data_mof_unit_14820.cif
_audit_creation_date              2013-03-05T15:40:28-0500
_audit_creation_method            fapswitch 2.2
_symmetry_space_group_name_H-M    P1
_symmetry_Int_Tables_number       1
_space_group_crystal_system       triclinic
_cell_length_a                    18.886394
_cell_length_b                    11.001444
_cell_length_c                    18.698588
_cell_angle_alpha                 90.484822
_cell_angle_beta                  90.418211
_cell_angle_gamma                 90.386156
_cell_volume                      3884.81539971

loop_
_atom_site_label
_atom_site_type_symbol
_atom_site_description
_atom_site_fract_x
_atom_site_fract_y
_atom_site_fract_z
_atom_type_partial_charge
O1    O     O_R   0.215090 0.709860 0.828130 -0.551402
O2    O     O_R   0.784910 0.709860 0.171870 -0.536605
O3    O     O_R   0.715090 0.209860 0.828130 -0.540645
O4    O     O_R   0.284910 0.209860 0.171870 -0.546318
O5    O     O_R   0.236990 0.958390 0.823710 -0.484266
O6    O     O_R   0.763010 0.958390 0.176290 -0.496790
O7    O     O_R   0.736990 0.458390 0.823710 -0.487236
O8    O     O_R   0.263010 0.458390 0.176290 -0.497898
C1    C     C_R   0.289338 0.000886 0.861531 0.571616
C2    C     C_R   0.727617 0.041509 0.146253 0.553252
C3    C     C_R   0.789365 0.500838 0.861528 0.569789
C4    C     C_R   0.227472 0.540369 0.145777 0.560967
O9    O     O_R   0.332380 0.074750 0.830850 -0.490303
O10   O     O_R   0.667620 0.074750 0.169150 -0.519350
O11   O     O_R   0.832380 0.574750 0.830850 -0.522264
O12   O     O_R   0.167620 0.574750 0.169150 -0.518258
O13   O     O_R   0.445800 0.917770 0.825070 -0.525318
O14   O     O_R   0.554200 0.917770 0.174930 -0.503785
O15   O     O_R   0.945800 0.417770 0.825070 -0.524369
O16   O     O_R   0.054200 0.417770 0.174930 -0.503922
C5    C     C_R   0.473270 0.823189 0.852036 0.537442
C6    C     C_R   0.529472 0.820867 0.145949 0.537552
C7    C     C_R   0.972395 0.322783 0.852710 0.541304
C8    C     C_R   0.028164 0.321210 0.146937 0.546324
O17   O     O_R   0.456410 0.716580 0.829970 -0.531756
O18   O     O_R   0.543590 0.716580 0.170030 -0.516435
O19   O     O_R   0.956410 0.216580 0.829970 -0.499641
O20   O     O_R   0.043590 0.216580 0.170030 -0.505844
O21   O     O_R   0.321080 0.625290 0.822650 -0.463473
O22   O     O_R   0.678920 0.625290 0.177350 -0.445549
O23   O     O_R   0.821080 0.125290 0.822650 -0.444612
O24   O     O_R   0.178920 0.125290 0.177350 -0.450552
C9    C     C_R   0.259483 0.634104 0.850081 0.562477
C10   C     C_R   0.740143 0.632302 0.150252 0.577021
C11   C     C_R   0.760637 0.135615 0.851134 0.562563
C12   C     C_R   0.240125 0.132358 0.150239 0.562770
O25   O     O_R   0.214930 0.711450 0.668160 -0.500377
O26   O     O_R   0.785070 0.711450 0.331840 -0.503217
O27   O     O_R   0.714930 0.211450 0.668160 -0.501722
O28   O     O_R   0.285070 0.211450 0.331840 -0.491098
O29   O     O_R   0.236850 0.959870 0.675420 -0.447668
O30   O     O_R   0.763150 0.959870 0.324580 -0.480822
O31   O     O_R   0.736850 0.459870 0.675420 -0.474414
O32   O     O_R   0.263150 0.459870 0.324580 -0.469018
C13   C     C_R   0.292128 0.994656 0.640271 0.611296
C14   C     C_R   0.730202 0.050979 0.349833 0.558106
C15   C     C_R   0.769445 0.551099 0.650627 0.566086
C16   C     C_R   0.205646 0.491684 0.358114 0.601101
O33   O     O_R   0.332230 0.076350 0.670880 -0.486827
O34   O     O_R   0.667770 0.076350 0.329120 -0.477474
O35   O     O_R   0.832230 0.576350 0.670880 -0.490087
O36   O     O_R   0.167770 0.576350 0.329120 -0.477236
O37   O     O_R   0.445660 0.919250 0.676780 -0.503139
O38   O     O_R   0.554340 0.919250 0.323220 -0.508013
O39   O     O_R   0.945660 0.419250 0.676780 -0.510377
O40   O     O_R   0.054340 0.419250 0.323220 -0.531407
C17   C     C_R   0.468353 0.822996 0.646434 0.565823
C18   C     C_R   0.527666 0.824598 0.350597 0.548081
C19   C     C_R   0.972221 0.324397 0.649472 0.555410
C20   C     C_R   0.031564 0.323439 0.353478 0.554316
O41   O     O_R   0.456260 0.718170 0.670000 -0.496421
O42   O     O_R   0.543740 0.718170 0.330000 -0.518258
O43   O     O_R   0.956260 0.218170 0.670000 -0.520566
O44   O     O_R   0.043740 0.218170 0.330000 -0.491980
O45   O     O_R   0.320940 0.626760 0.674370 -0.506799
O46   O     O_R   0.679060 0.626760 0.325630 -0.491003
O47   O     O_R   0.820940 0.126760 0.674370 -0.490700
O48   O     O_R   0.179060 0.126760 0.325630 -0.510809
C21   C     C_R   0.259485 0.634459 0.647074 0.538729
C22   C     C_R   0.725485 0.689414 0.362378 0.571329
C23   C     C_R   0.774965 0.189585 0.638188 0.571116
C24   C     C_R   0.242256 0.129303 0.349108 0.564239
Cr1   Cr    Cr6+3 0.230530 0.836340 0.748870 1.044930
Cr2   Cr    Cr6+3 0.769470 0.836340 0.251130 1.044523
Cr3   Cr    Cr6+3 0.730530 0.336340 0.748870 1.045849
Cr4   Cr    Cr6+3 0.269470 0.336340 0.251130 1.031498
Cr5   Cr    Cr6+3 0.387420 0.989430 0.750820 1.013261
Cr6   Cr    Cr6+3 0.612580 0.989430 0.249180 1.012644
Cr7   Cr    Cr6+3 0.887420 0.489430 0.750820 0.997772
Cr8   Cr    Cr6+3 0.112580 0.489430 0.249180 1.007546
Cr9   Cr    Cr6+3 0.385640 0.677860 0.749230 1.020308
Cr10  Cr    Cr6+3 0.614360 0.677860 0.250770 1.025922
Cr11  Cr    Cr6+3 0.885640 0.177860 0.749230 1.027216
Cr12  Cr    Cr6+3 0.114360 0.177860 0.250770 1.035458
O49   O     O_3   0.334530 0.834540 0.749640 -0.307736
O50   O     O_3   0.665470 0.834540 0.250360 -0.275299
O51   O     O_3   0.834530 0.334540 0.749640 -0.294050
O52   O     O_3   0.165470 0.334540 0.250360 -0.285629
H1    H     H_    0.531434 0.643331 0.927218 0.143920
H2    H     H_    0.530608 0.634063 0.054138 0.189214
H3    H     H_    0.012418 0.135824 0.932708 0.172999
H4    H     H_    0.012009 0.131246 0.058769 0.181222
C25   C     C_R   0.506541 0.825752 0.071299 -0.007267
C26   C     C_R   0.507941 0.835016 0.921999 -0.005807
C27   C     C_R   0.000903 0.326911 0.073881 -0.012023
C28   C     C_R   0.002760 0.332166 0.924591 -0.007419
C29   C     C_R   0.494563 0.937775 0.037003 0.021282
C30   C     C_R   0.503423 0.944326 0.962171 0.025260
C31   C     C_R   0.992827 0.439297 0.038620 0.023254
C32   C     C_R   0.001585 0.443135 0.963687 0.023706
C33   C     C_R   0.522667 0.726693 0.956853 -0.159002
C34   C     C_R   0.519840 0.721165 0.030024 -0.148450
C35   C     C_R   0.009356 0.222173 0.960850 -0.110690
C36   C     C_R   0.006354 0.219226 0.033820 -0.116914
C37   C     C_R   0.475612 0.043918 0.075064 -0.094356
C38   C     C_R   0.508810 0.059670 0.930335 -0.085475
C39   C     C_R   0.976852 0.547840 0.075815 -0.090665
C40   C     C_R   0.008755 0.557491 0.930622 -0.086432
C41   C     C_R   0.978706 0.659161 0.040960 -0.137124
C42   C     C_R   0.998335 0.664373 0.969552 -0.139478
C43   C     C_R   0.477058 0.156466 0.041752 -0.129918
C44   C     C_R   0.497966 0.164632 0.970855 -0.127924
H5    H     H_    0.459872 0.040823 0.130538 0.121121
H6    H     H_    0.524225 0.069538 0.875049 0.128440
H7    H     H_    0.961844 0.547218 0.131546 0.125346
H8    H     H_    0.024098 0.565311 0.875223 0.129993
H9    H     H_    0.966220 0.741731 0.069739 0.111329
H10   H     H_    0.004591 0.751416 0.944114 0.113558
H11   H     H_    0.463870 0.237675 0.071533 0.103464
H12   H     H_    0.505805 0.252364 0.947354 0.108012
C45   C     C_2   0.243081 0.578834 0.918464 -0.056528
C46   C     C_2   0.758704 0.557948 0.088413 -0.090210
C47   C     C_2   0.747449 0.076910 0.919407 -0.099378
C48   C     C_2   0.258593 0.058282 0.088304 -0.091630
C49   C     C_2   0.249522 0.575129 0.074224 -0.150838
C50   C     C_2   0.772757 0.531715 0.935105 -0.133872
C51   C     C_2   0.749970 0.081167 0.075859 -0.139499
C52   C     C_2   0.272649 0.031933 0.935053 -0.128795
C53   C     C_2   0.280656 0.491545 0.031371 -0.154686
C54   C     C_2   0.728450 0.463068 0.973948 -0.148047
C55   C     C_2   0.790353 0.007731 0.035440 -0.129284
C56   C     C_2   0.228238 0.963447 0.973874 -0.158409
C57   C     C_2   0.288791 0.508589 0.953502 0.228960
C58   C     C_2   0.710523 0.498005 0.047811 0.222327
C59   C     C_2   0.800118 0.027965 0.958735 0.224782
C60   C     C_2   0.210349 0.998464 0.047729 0.226105
H13   H     H_    0.298101 0.405214 0.052887 0.162075
H14   H     H_    0.700985 0.385812 0.949720 0.142304
H15   H     H_    0.816183 0.928984 0.058343 0.148446
H16   H     H_    0.200764 0.886180 0.949671 0.140957
H17   H     H_    0.232108 0.662108 0.053944 0.067717
H18   H     H_    0.797979 0.612481 0.957729 0.095364
H19   H     H_    0.725547 0.161461 0.053422 0.075116
H20   H     H_    0.297887 0.112733 0.957639 0.130328
H21   H     H_    0.196352 0.613448 0.945180 0.058041
H22   H     H_    0.813560 0.563030 0.071482 0.058307
H23   H     H_    0.695183 0.088810 0.942314 0.062113
H24   H     H_    0.313412 0.063507 0.071293 0.057166
C61   C     C_2   0.486744 0.827374 0.571737 0.014805
C62   C     C_2   0.487391 0.839634 0.415398 -0.107526
C63   C     C_2   0.012429 0.338615 0.584871 -0.089324
C64   C     C_2   0.013051 0.329303 0.428044 -0.063524
C65   C     C_2   0.466880 0.742146 0.451594 -0.124821
C66   C     C_2   0.452181 0.749746 0.527356 -0.095660
C67   C     C_2   0.045967 0.250696 0.471663 -0.069952
C68   C     C_2   0.029214 0.240974 0.546569 -0.052366
H25   H     H_    0.466687 0.652052 0.427282 0.165400
H26   H     H_    0.415535 0.682105 0.547924 0.143115
H27   H     H_    0.082166 0.183094 0.450623 0.204967
H28   H     H_    0.025439 0.149989 0.568472 0.190187
H29   H     H_    0.483559 0.930303 0.438555 0.123040
H30   H     H_    0.523666 0.895772 0.552899 0.116093
H31   H     H_    0.975537 0.396230 0.447075 0.096336
H32   H     H_    0.019423 0.429436 0.563714 0.068547
C69   C     C_2   0.244756 0.571140 0.580792 -0.058385
C70   C     C_2   0.733312 0.657592 0.437050 -0.088185
C71   C     C_2   0.767642 0.158477 0.563316 -0.086422
C72   C     C_2   0.262681 0.048427 0.406267 -0.095327
C73   C     C_2   0.205983 0.482633 0.436434 0.192553
C74   C     C_2   0.734888 0.621730 0.593252 0.209638
C75   C     C_2   0.764255 0.123410 0.407603 0.211155
C76   C     C_2   0.278968 0.009821 0.564321 0.256659
C77   C     C_2   0.166597 0.558894 0.477398 0.216895
C78   C     C_2   0.772072 0.710102 0.559910 0.231725
C79   C     C_2   0.726703 0.210506 0.442070 0.231975
C80   C     C_2   0.332927 0.039495 0.520098 0.208444
C81   C     C_2   0.178434 0.564857 0.555143 -0.064583
C82   C     C_2   0.755576 0.742056 0.484578 -0.131274
C83   C     C_2   0.745505 0.243274 0.517195 -0.136828
C84   C     C_2   0.321404 0.073200 0.444470 -0.099805
H33   H     H_    0.134569 0.591681 0.588877 0.120088
H34   H     H_    0.766742 0.833904 0.466770 0.142138
H35   H     H_    0.735233 0.334823 0.536497 0.127269
H36   H     H_    0.360082 0.135130 0.422250 0.161779
H37   H     H_    0.290121 0.550636 0.547637 0.133002
H38   H     H_    0.722965 0.564357 0.452633 0.120111
H39   H     H_    0.777084 0.065124 0.546741 0.137128
H40   H     H_    0.226492 0.975658 0.418964 0.168895
O53   O     O_3   0.131854 0.655956 0.445732 -0.513086
C85   C     C_3   0.061463 0.665020 0.469540 0.007862
H41   H     H_    0.059927 0.712439 0.522130 0.151955
H42   H     H_    0.035557 0.574633 0.473772 0.090747
C86   C     C_3   0.019645 0.739082 0.415587 -0.321644
H43   H     H_    0.023159 0.696391 0.361684 0.165925
H44   H     H_    0.963136 0.742792 0.430978 0.097149
H45   H     H_    0.041225 0.833152 0.413360 0.188989
O54   O     O_3   0.821721 0.776853 0.599610 -0.546733
C87   C     C_3   0.885971 0.789196 0.562388 -0.007330
H46   H     H_    0.879508 0.849312 0.515565 0.182704
H47   H     H_    0.906036 0.698743 0.544927 0.120320
C88   C     C_3   0.940761 0.847923 0.612006 -0.346791
H48   H     H_    0.951564 0.787641 0.658122 0.146109
H49   H     H_    0.990763 0.864133 0.582675 0.119267
H50   H     H_    0.920986 0.936595 0.632167 0.185494
O55   O     O_3   0.671079 0.266172 0.405222 -0.553554
C89   C     C_3   0.618207 0.312236 0.450674 0.004680
H51   H     H_    0.636525 0.398913 0.475225 0.191374
H52   H     H_    0.603547 0.245613 0.492685 0.133402
C90   C     C_3   0.552335 0.339205 0.406448 -0.350086
H53   H     H_    0.531974 0.254308 0.380862 0.148127
H54   H     H_    0.510638 0.377586 0.441434 0.118612
H55   H     H_    0.565073 0.406230 0.364246 0.168483
O56   O     O_3   0.401316 0.046080 0.548477 -0.593228
C91   C     C_3   0.429900 0.164861 0.542904 -0.003126
H56   H     H_    0.389152 0.236469 0.551220 0.198228
H57   H     H_    0.454900 0.176240 0.489807 0.118630
C92   C     C_3   0.487447 0.183378 0.599423 -0.348225
H58   H     H_    0.530143 0.115665 0.591939 0.146851
H59   H     H_    0.510561 0.276042 0.594734 0.123494
H60   H     H_    0.464921 0.173469 0.653740 0.181397
N1    N     N_R   0.245262 0.384549 0.467957 0.012317
O57   O     O_R   0.311225 0.367939 0.451158 -0.379532
O58   O     O_R   0.216787 0.317008 0.516877 -0.336618
N2    N     N_R   0.661446 0.597101 0.574207 0.018630
O59   O     O_R   0.623031 0.681835 0.545590 -0.371737
O60   O     O_R   0.629403 0.499358 0.596128 -0.370105
N3    N     N_R   0.837486 0.100511 0.426772 0.026007
O61   O     O_R   0.877167 0.188448 0.451702 -0.373765
O62   O     O_R   0.867290 0.997448 0.411274 -0.371639
N4    N     N_R   0.207061 0.995053 0.540647 0.026451
O63   O     O_R   0.163709 0.085166 0.548480 -0.329150
O64   O     O_R   0.181195 0.885713 0.533250 -0.354863
O65   O     O_3   0.334021 0.435788 0.914288 -0.533253
C93   C     C_3   0.404874 0.463136 0.932151 0.006931
H61   H     H_    0.421051 0.410402 0.979901 0.116913
H62   H     H_    0.413356 0.561757 0.943407 0.143023
C94   C     C_3   0.450896 0.427850 0.868730 -0.336608
H63   H     H_    0.437676 0.484211 0.821690 0.197185
H64   H     H_    0.507736 0.441099 0.882350 0.083245
H65   H     H_    0.441263 0.331283 0.853609 0.153726
O66   O     O_3   0.641033 0.486438 0.069727 -0.550132
C95   C     C_3   0.631408 0.370778 0.100440 0.002326
H66   H     H_    0.678452 0.340211 0.131908 0.135970
H67   H     H_    0.619608 0.302897 0.057517 0.132748
C96   C     C_3   0.569087 0.375936 0.151451 -0.340738
H68   H     H_    0.581975 0.436744 0.197498 0.169201
H69   H     H_    0.521590 0.411543 0.123482 0.131707
H70   H     H_    0.557330 0.283552 0.171917 0.104232
O67   O     O_3   0.865937 0.004441 0.929727 -0.535093
C97   C     C_3   0.865107 0.886532 0.899057 0.009595
H71   H     H_    0.813738 0.862831 0.872232 0.139326
H72   H     H_    0.875685 0.818609 0.941412 0.125886
C98   C     C_3   0.922640 0.878561 0.842567 -0.337323
H73   H     H_    0.908708 0.936110 0.796114 0.169733
H74   H     H_    0.974129 0.910559 0.865028 0.141727
H75   H     H_    0.927992 0.783069 0.823755 0.106826
O68   O     O_3   0.140981 0.986143 0.069958 -0.537808
C99   C     C_3   0.131815 0.869820 0.100047 0.001218
H76   H     H_    0.179523 0.837922 0.130039 0.126435
H77   H     H_    0.118814 0.802961 0.056882 0.136609
C100  C     C_3   0.070863 0.874351 0.152770 -0.336069
H78   H     H_    0.085344 0.933304 0.199201 0.167176
H79   H     H_    0.022878 0.911846 0.126568 0.143836
H80   H     H_    0.059037 0.781458 0.172410 0.102487

loop_
_geom_bond_atom_site_label_1
_geom_bond_atom_site_label_2
_geom_bond_distance
_ccdc_geom_bond_type
C18   O42   1.268967 A    
C71   C83   1.342550 D    
O4    C12   1.259150 A    
O47   Cr11  1.928997 S    
C33   C34   1.371473 A    
C72   H40   1.078249 S    
O39   C19   1.266139 A    
O20   Cr12  2.058227 S    
C39   C41   1.392526 A    
C88   H48   1.110836 S    
O15   C7    1.274302 A    
C43   C44   1.389451 A    
N2    O59   1.301384 A    
C42   H10   1.078983 S    
N4    O64   1.301157 A    
Cr7   O51   1.969276 S    
C29   C30   1.412809 A    
C88   H49   1.109655 S    
C41   H9    1.080203 S    
C26   C30   1.415875 A    
C38   C44   1.392856 A    
O55   C89   1.410015 S    
C14   C75   1.477792 S    
C92   H60   1.109951 S    
O7    C3    1.294048 A    
C80   C84   1.479912 S    
C48   H24   1.086617 S    
C21   C69   1.440982 S    
O67   C97   1.413786 S    
C85   H41   1.109921 S    
C28   C32   1.418044 A    
C38   H6    1.082184 S    
O24   C12   1.267768 A    
Cr1   O49   1.964369 S    
C37   H5    1.081876 S    
C12   C48   1.456267 S    
C66   H26   1.087415 S    
C55   C59   1.466088 S    
C22   C70   1.449102 S    
O45   Cr9   1.928997 S    
O30   C14   1.272615 A    
C100  H78   1.110766 S    
C91   H57   1.110164 S    
C5    C26   1.463081 S    
C50   C54   1.344530 D    
C97   H72   1.111406 S    
C51   C55   1.346104 D    
C94   H64   1.109860 S    
O21   C9    1.278767 A    
O8    Cr4   1.951317 S    
C90   H55   1.111095 S    
O23   Cr11  1.932428 S    
C7    C28   1.460022 S    
C43   H11   1.080242 S    
O66   C95   1.411624 S    
C20   C64   1.440949 S    
N2    O60   1.301098 A    
O32   Cr4   1.928836 S    
N3    O61   1.300907 A    
C1    O9    1.286884 A    
C46   C58   1.346359 D    
O25   Cr1   2.050643 S    
C35   C36   1.366680 A    
C85   C86   1.521971 S    
C90   H54   1.110749 S    
C3    O11   1.286873 A    
O11   Cr7   2.052578 S    
C56   H16   1.086624 S    
C4    O12   1.273596 A    
C26   C33   1.391842 A    
C49   H17   1.084532 S    
C86   H44   1.108327 S    
C62   C65   1.330008 D    
C17   C61   1.442839 S    
C95   H67   1.111988 S    
C87   H46   1.108230 S    
C70   C82   1.343639 D    
C7    O19   1.273590 A    
C15   O35   1.270385 A    
O14   C6    1.275965 A    
O3    Cr3   2.062379 S    
O65   C93   1.406805 S    
C78   C82   1.486024 S    
O47   C23   1.302615 A    
O2    Cr2   2.048060 S    
C56   C60   1.472829 S    
Cr11  O51   1.981239 S    
C29   C37   1.411913 A    
Cr9   O49   1.981239 S    
O2    C10   1.259263 A    
C97   C98   1.523337 S    
C46   H22   1.086741 S    
C37   C43   1.390936 A    
Cr5   O49   1.969276 S    
C10   C46   1.456992 S    
C23   C71   1.443841 S    
C96   H68   1.110452 S    
C9    C45   1.455018 S    
C24   C72   1.448268 S    
C54   C58   1.472907 S    
C93   H62   1.113751 S    
C59   O67   1.385013 S    
C52   C56   1.344524 D    
C14   O34   1.271934 A    
O6    Cr2   1.951317 S    
C67   C68   1.442885 S    
C83   H35   1.086176 S    
O31   Cr3   1.944017 S    
C87   H47   1.114387 S    
O24   Cr12  1.930395 S    
O9    Cr5   2.052578 S    
C32   C40   1.412605 A    
C95   C96   1.521443 S    
O30   Cr2   1.928836 S    
O22   C10   1.267940 A    
C67   H27   1.086797 S    
O48   Cr12  1.940666 S    
O14   Cr6   1.926708 S    
C8    O20   1.267837 A    
C68   H28   1.086804 S    
C3    C50   1.451349 S    
C90   H53   1.110858 S    
C2    O10   1.269266 A    
C8    C27   1.458331 S    
C44   H12   1.073689 S    
C45   H21   1.086840 S    
O16   Cr8   1.926708 S    
C91   H56   1.115752 S    
C48   C60   1.346202 D    
O7    Cr3   1.933812 S    
C4    C49   1.457530 S    
O26   Cr2   2.070322 S    
C97   H71   1.117193 S    
O56   C91   1.415463 S    
C75   C79   1.357152 D    
C50   H18   1.086443 S    
C69   H37   1.085028 S    
Cr4   O52   1.964096 S    
O28   Cr4   2.070322 S    
C47   C59   1.350353 D    
O48   C24   1.268761 A    
O12   Cr8   2.057743 S    
C93   C94   1.524577 S    
C57   O65   1.384654 S    
C99   H77   1.112374 S    
C61   C66   1.347846 D    
C58   O66   1.383124 S    
O5    C1    1.293887 A    
N1    O57   1.300733 A    
C72   C84   1.340018 D    
O46   Cr10  1.940666 S    
O39   Cr7   1.933457 S    
O25   C21   1.260858 A    
H4    C36   1.083610 S    
C98   H74   1.110351 S    
C31   C32   1.413005 A    
C64   C67   1.345857 D    
O3    C11   1.265769 A    
C69   C81   1.339126 D    
O8    C4    1.265173 A    
C86   H45   1.110936 S    
C71   H39   1.086515 S    
C28   C35   1.397917 A    
C98   H75   1.110546 S    
C87   C88   1.521773 S    
O13   Cr5   1.942337 S    
C13   O33   1.297975 A    
C53   H13   1.086843 S    
C51   H19   1.085367 S    
C63   C68   1.327471 D    
C76   N4    1.433092 S    
C70   H38   1.085526 S    
O15   Cr7   1.942337 S    
C52   H20   1.086622 S    
O35   Cr7   2.061575 S    
C39   H7    1.082018 S    
C82   H34   1.086389 S    
C53   C57   1.478622 S    
O18   Cr10  2.058227 S    
Cr3   O51   1.964369 S    
O26   C22   1.288129 A    
N3    O62   1.300705 A    
C47   H23   1.087193 S    
O21   Cr9   1.932428 S    
C63   H32   1.085335 S    
O27   Cr3   2.050643 S    
C96   H69   1.110402 S    
C49   C53   1.354643 D    
O37   Cr5   1.933457 S    
C88   H50   1.110852 S    
O23   C11   1.268596 A    
C94   H65   1.110515 S    
C99   C100  1.521863 S    
C92   H59   1.110666 S    
C93   H61   1.110981 S    
C79   O55   1.399503 S    
C2    C51   1.454814 S    
C54   H14   1.086641 S    
C13   C76   1.451179 S    
C25   C29   1.412907 A    
O68   C99   1.412376 S    
C15   C74   1.480361 S    
C27   C36   1.401053 A    
C100  H79   1.110633 S    
O38   C18   1.267231 A    
O53   C85   1.408971 S    
O45   C21   1.268168 A    
C62   H29   1.087130 S    
C5    O17   1.277526 A    
C78   O54   1.393166 S    
C85   H42   1.108958 S    
O22   Cr10  1.930395 S    
O28   C24   1.254482 A    
H1    C33   1.081826 S    
C89   H51   1.107048 S    
O36   Cr8   2.043238 S    
O5    Cr1   1.933812 S    
Cr12  O52   1.970001 S    
H3    C35   1.084160 S    
C73   N1    1.441300 S    
C77   O53   1.391354 S    
C91   C92   1.521936 S    
O37   C17   1.275345 A    
C25   C34   1.405105 A    
C74   N2    1.452657 S    
C100  H80   1.110685 S    
C79   C83   1.487202 S    
C40   C42   1.393548 A    
C17   O41   1.258106 A    
O42   Cr10  2.048432 S    
C74   C78   1.354454 D    
C19   C63   1.440573 S    
Cr2   O50   1.964096 S    
C31   C39   1.412287 A    
C75   N3    1.450446 S    
C19   O43   1.268260 A    
O40   Cr8   1.936888 S    
O44   Cr12  2.048432 S    
C20   O44   1.258294 A    
C77   C81   1.470038 S    
O1    Cr1   2.062379 S    
C40   H8    1.081653 S    
H2    C34   1.082369 S    
O19   Cr11  2.049187 S    
C99   H76   1.117918 S    
C92   H58   1.110284 S    
N4    O63   1.298017 A    
N1    O58   1.300523 A    
O32   C16   1.306334 A    
Cr10  O50   1.970001 S    
C41   C42   1.389881 A    
C89   C90   1.521102 S    
Cr6   O50   1.981214 S    
C98   H73   1.110303 S    
C30   C38   1.409580 A    
C81   H33   1.085855 S    
C95   H66   1.117359 S    
O34   Cr6   2.043238 S    
C11   C47   1.457834 S    
C6    C25   1.460002 S    
O38   Cr6   1.936888 S    
O33   Cr5   2.061575 S    
C27   C31   1.414767 A    
O10   Cr6   2.057743 S    
C65   H25   1.086919 S    
O54   C87   1.409622 S    
C84   H36   1.083031 S    
O13   C5    1.272179 A    
O4    Cr4   2.048060 S    
C64   H31   1.084899 S    
C55   H15   1.086662 S    
O6    C2    1.268824 A    
O1    C9    1.255476 A    
O29   Cr1   1.944017 S    
C16   C73   1.468664 S    
C18   C62   1.444262 S    
C16   O36   1.298113 A    
O40   C20   1.274249 A    
O46   C22   1.300428 A    
C73   C77   1.360067 D    
Cr8   O52   1.981214 S    
C86   H43   1.110967 S    
C6    O18   1.265417 A    
C96   H70   1.110636 S    
O43   Cr11  2.049968 S    
C60   O68   1.383496 S    
O29   C13   1.295081 A    
C80   O56   1.393986 S    
O41   Cr9   2.049968 S    
C61   H30   1.085154 S    
C45   C57   1.334550 D    
C1    C52   1.451147 S    
C94   H63   1.108403 S    
C89   H52   1.114068 S    
O31   C15   1.266850 A    
O16   C8    1.274382 A    
O17   Cr9   2.049187 S    
C76   C80   1.356920 D    
C65   C66   1.447411 S    
O27   C23   1.291590 A    
