data_mof_unit_52585.cif
_audit_creation_date              2012-12-11T17:23:06-0500
_audit_creation_method            fapswitch 2.2
_symmetry_space_group_name_H-M    P1
_symmetry_Int_Tables_number       1
_space_group_crystal_system       triclinic
_cell_length_a                    22.421839
_cell_length_b                    7.094603
_cell_length_c                    19.398558
_cell_angle_alpha                 90.001348
_cell_angle_beta                  99.60266
_cell_angle_gamma                 90.001491
_cell_volume                      3042.56968681

loop_
_atom_site_label
_atom_site_type_symbol
_atom_type_description
_atom_site_fract_x
_atom_site_fract_y
_atom_site_fract_z
_atom_type_partial_charge
O1    O     O_R   0.443980 0.494320 0.557430 -0.535387
O2    O     O_R   0.556020 0.994320 0.442570 -0.535387
O3    O     O_R   0.441210 0.822520 0.414610 -0.537310
O4    O     O_R   0.558790 0.322520 0.585390 -0.537312
C1    C     C_R   0.426685 0.655367 0.388752 0.692437
C2    C     C_R   0.573316 0.155376 0.611248 0.692436
O5    O     O_R   0.436920 0.823940 0.555180 -0.534864
O6    O     O_R   0.563080 0.323940 0.444820 -0.534865
O7    O     O_R   0.551700 0.995760 0.584140 -0.534463
O8    O     O_R   0.448300 0.495760 0.415860 -0.534461
C3    C     C_R   0.421647 0.655356 0.574876 0.718450
C4    C     C_R   0.578354 0.155356 0.425124 0.718454
O9    O     O_3   0.537660 0.661290 0.509340 -0.370563
O10   O     O_3   0.462340 0.161290 0.490660 -0.370559
V1    V     V_3+5 0.493010 0.935560 0.498270 1.436128
V2    V     V_3+5 0.506990 0.435560 0.501730 1.436128
C5    C     C_R   0.755852 0.948202 0.210975 -0.113757
C6    C     C_R   0.244150 0.448228 0.789032 -0.113727
H1    H     H_    0.760836 0.820196 0.181951 0.158339
H2    H     H_    0.239169 0.320234 0.818061 0.158327
C7    C     C_R   0.792674 0.104188 0.203261 -0.029306
C8    C     C_R   0.207321 0.604201 0.796734 -0.029326
C9    C     C_R   0.785816 0.271269 0.241454 -0.008590
C10   C     C_R   0.214175 0.771270 0.758532 -0.008632
C11   C     C_R   0.742399 0.275501 0.286615 -0.203362
C12   C     C_R   0.257596 0.775496 0.713376 -0.203355
H3    H     H_    0.736558 0.402829 0.315697 0.187970
H4    H     H_    0.263435 0.902807 0.684285 0.187988
C13   C     C_R   0.705684 0.119194 0.294285 0.000172
C14   C     C_R   0.294318 0.619200 0.705716 0.000153
C15   C     C_R   0.712697 0.952694 0.255813 0.390511
C16   C     C_R   0.287308 0.452717 0.744197 0.390555
C17   C     C_1   0.837971 0.085907 0.157518 0.041348
C18   C     C_1   0.162026 0.585915 0.842478 0.041383
C19   C     C_1   0.661124 0.134347 0.341120 -0.035490
C20   C     C_1   0.338878 0.634347 0.658882 -0.035496
C21   C     C_1   0.623687 0.145481 0.379717 -0.176595
C22   C     C_1   0.376314 0.645479 0.620284 -0.176591
C23   C     C_1   0.875928 0.072667 0.119675 -0.150814
C24   C     C_1   0.124070 0.572670 0.880324 -0.150781
C25   C     C_R   0.632055 0.170442 0.804428 -0.099312
C26   C     C_R   0.367968 0.669856 0.195560 -0.099304
H5    H     H_    0.545105 0.194003 0.739636 0.119658
H6    H     H_    0.454920 0.693400 0.260352 0.119659
H7    H     H_    0.612608 0.189761 0.851430 0.174775
H8    H     H_    0.387426 0.688895 0.148552 0.174776
C27   C     C_R   0.615494 0.147933 0.678341 -0.036485
C28   C     C_R   0.384508 0.647877 0.321659 -0.036473
C29   C     C_R   0.909833 0.047128 0.760398 -0.161667
C30   C     C_R   0.090151 0.547511 0.239608 -0.161676
C31   C     C_R   0.873071 0.048567 0.695237 -0.112537
C32   C     C_R   0.126906 0.549101 0.304773 -0.112528
C33   C     C_R   0.810753 0.072651 0.689403 -0.135967
C34   C     C_R   0.189231 0.573039 0.310604 -0.135967
C35   C     C_R   0.783143 0.096460 0.749363 0.072589
C36   C     C_R   0.216853 0.596536 0.250638 0.072583
C37   C     C_R   0.821369 0.096014 0.816283 0.030255
C38   C     C_R   0.178635 0.595905 0.183714 0.030253
C39   C     C_R   0.719059 0.120478 0.744966 0.009922
C40   C     C_R   0.280943 0.620422 0.255034 0.009923
C41   C     C_R   0.694809 0.144839 0.807768 0.092781
C42   C     C_R   0.305206 0.644430 0.192224 0.092771
C43   C     C_R   0.733042 0.143971 0.873242 0.340103
C44   C     C_R   0.266981 0.643379 0.126746 0.340110
C45   C     C_R   0.795539 0.119449 0.876801 -0.277343
C46   C     C_R   0.204478 0.619016 0.123189 -0.277321
C47   C     C_R   0.677909 0.121675 0.680370 -0.188084
C48   C     C_R   0.322084 0.621812 0.319635 -0.188074
C49   C     C_R   0.593087 0.172700 0.740546 -0.194959
C50   C     C_R   0.406930 0.672272 0.259447 -0.194974
C51   C     C_R   0.885008 0.070900 0.821266 -0.061068
C52   C     C_R   0.114989 0.570955 0.178734 -0.061053
H9    H     H_    0.692691 0.104084 0.630707 0.093474
H10   H     H_    0.307292 0.604490 0.369304 0.093460
H11   H     H_    0.958124 0.027113 0.763418 0.114913
H12   H     H_    0.041854 0.527641 0.236591 0.114904
H13   H     H_    0.785580 0.071835 0.637058 0.109983
H14   H     H_    0.214399 0.572360 0.362953 0.109983
H15   H     H_    0.893081 0.030282 0.648592 0.130381
H16   H     H_    0.106887 0.531063 0.351423 0.130384
H17   H     H_    0.824011 0.119085 0.927713 0.104978
H18   H     H_    0.176012 0.618512 0.072274 0.104931
O11   O     O_R   0.051730 0.724670 0.084120 -0.534874
O12   O     O_R   0.948270 0.224670 0.915880 -0.534878
O13   O     O_R   0.063080 0.393540 0.944820 -0.539610
O14   O     O_R   0.936920 0.893540 0.055180 -0.539605
C53   C     C_R   0.078261 0.562206 0.925040 0.705838
C54   C     C_R   0.921739 0.062205 0.074960 0.705843
O15   O     O_R   0.058800 0.395030 0.085390 -0.536177
O16   O     O_R   0.941200 0.895030 0.914610 -0.536172
O17   O     O_R   0.943980 0.223310 0.057440 -0.524834
O18   O     O_R   0.056020 0.723310 0.942560 -0.524816
C55   C     C_R   0.072948 0.563536 0.111269 0.682326
C56   C     C_R   0.927051 0.063527 0.888731 0.682326
O19   O     O_3   0.962360 0.556290 0.990650 -0.367803
O20   O     O_3   0.037640 0.056290 0.009350 -0.367797
V3    V     V_3+5 0.006980 0.281990 0.001730 1.457111
V4    V     V_3+5 0.993020 0.781990 0.998270 1.457147
O21   O     O_3   0.678959 0.791288 0.260012 -0.641892
H19   H     H_    0.650874 0.809911 0.293678 0.292643
O22   O     O_3   0.321052 0.291324 0.740010 -0.641875
H20   H     H_    0.349139 0.309942 0.706346 0.292644
C57   C     C_2   0.822773 0.443445 0.235587 0.766257
O23   O     O_2   0.829000 0.560951 0.282407 -0.559860
O24   O     O_R   0.849578 0.474423 0.176444 -0.665351
H21   H     H_    0.872905 0.597377 0.178873 0.288207
C58   C     C_2   0.177208 0.943437 0.764379 0.766260
O25   O     O_2   0.171043 0.061020 0.717589 -0.559867
O26   O     O_R   0.150323 0.974326 0.823469 -0.665352
H22   H     H_    0.126999 0.097285 0.821029 0.288212
O27   O     O_3   0.708337 0.167368 0.933452 -0.642071
H23   H     H_    0.740987 0.163202 0.974783 0.298793
O28   O     O_3   0.291699 0.666439 0.066529 -0.642074
H24   H     H_    0.259052 0.662182 0.025195 0.298759

loop_
_geom_bond_atom_site_label_1
_geom_bond_atom_site_label_2
_ccdc_geom_bond_type
C43   C45   A    
O22   H20   S    
C35   C39   A    
O27   H23   S    
O1    C3    A    
C25   C41   A    
O2    C4    A    
C2    O7    A    
O19   V4    S    
O18   V4    S    
C51   C56   S    
O5    C3    A    
C17   C23   T    
C18   C24   T    
O12   V3    S    
C24   C53   S    
C19   C21   T    
C10   C12   A    
O14   C54   A    
C7    C17   S    
C48   H10   S    
O11   C55   A    
C26   C50   A    
C37   C51   A    
C40   C42   A    
C26   H8    S    
C4    C21   S    
C41   C43   A    
C30   C52   A    
C27   C49   A    
C42   C44   A    
C39   C47   A    
C38   C46   A    
C9    C57   S    
C29   C31   A    
O11   V4    S    
O20   V4    S    
C30   C32   A    
C58   O25   D    
C29   H11   S    
H6    C50   S    
C47   H9    S    
C15   O21   S    
C26   C42   A    
O5    V1    S    
O6    V2    S    
C53   O18   A    
O15   C55   A    
C58   O26   S    
C23   C54   S    
C27   C47   A    
C32   C34   A    
O16   C56   A    
C33   C35   A    
C11   C13   A    
C8    C18   S    
C1    C28   S    
C34   C36   A    
C39   C41   A    
C2    C27   S    
O13   C53   A    
O4    C2    A    
C37   C45   A    
C10   C58   S    
C28   C48   A    
C5    C7    A    
C36   C40   A    
O15   V3    S    
C31   C33   A    
C44   C46   A    
O4    V2    S    
C3    C22   S    
C33   H13   S    
C30   H12   S    
C46   H18   S    
C45   H17   S    
O21   H19   S    
O10   V1    S    
C54   O17   A    
O6    C4    A    
O20   V3    S    
C57   O24   S    
O1    V2    S    
O12   C56   A    
O17   V3    S    
O2    V1    S    
C52   C55   S    
C12   C14   A    
C7    C9    A    
C5    C15   A    
C8    C10   A    
C6    C16   A    
O3    V1    S    
C25   C49   A    
O28   H24   S    
C44   O28   S    
C6    C8    A    
C28   C50   A    
O3    C1    A    
O19   V3    S    
C11   H3    S    
O24   H21   S    
C13   C19   S    
C12   H4    S    
C14   C20   S    
C35   C37   A    
O7    V1    S    
C1    O8    A    
C13   C15   A    
O8    V2    S    
O26   H22   S    
C14   C16   A    
C38   C52   A    
C20   C22   T    
C5    H1    S    
C36   C38   A    
C6    H2    S    
C9    C11   A    
C43   O27   S    
O14   V4    S    
C31   H15   S    
O13   V3    S    
C40   C48   A    
H5    C49   S    
C29   C51   A    
O9    V2    S    
C57   O23   D    
C25   H7    S    
C16   O22   S    
C32   H16   S    
O16   V4    S    
C34   H14   S    
