data_mof_unit_62740.cif
_audit_creation_date              2012-12-10T18:25:08-0500
_audit_creation_method            fapswitch 2.2
_symmetry_space_group_name_H-M    P1
_symmetry_Int_Tables_number       1
_space_group_crystal_system       triclinic
_cell_length_a                    19.321568
_cell_length_b                    15.871059
_cell_length_c                    14.616245
_cell_angle_alpha                 90.003914
_cell_angle_beta                  90.002849
_cell_angle_gamma                 90.535925
_cell_volume                      4481.93019003

loop_
_atom_site_label
_atom_site_type_symbol
_atom_type_description
_atom_site_fract_x
_atom_site_fract_y
_atom_site_fract_z
_atom_type_partial_charge
C1    C     C_R   0.500736 0.339400 0.500002 0.865019
C2    C     C_R   0.499223 0.660599 0.500038 0.865704
C3    C     C_3   0.561584 0.972319 0.529158 -0.136148
C4    C     C_3   0.438314 0.027687 0.470533 -0.135078
C5    C     C_3   0.550137 0.028298 0.443813 -0.150336
C6    C     C_3   0.449761 0.971708 0.555879 -0.164915
C7    C     C_1   0.500747 0.249701 0.499989 -0.124169
C8    C     C_1   0.499182 0.750300 0.500029 -0.123872
C9    C     C_3   0.511731 0.028096 0.585189 -0.164208
C10   C     C_3   0.488167 0.971900 0.414503 -0.148589
C11   C     C_3   0.500280 0.082539 0.499847 0.171238
C12   C     C_3   0.499618 0.917463 0.499853 0.173853
C13   C     C_1   0.500589 0.174167 0.499915 -0.048329
C14   C     C_1   0.499321 0.825833 0.499942 -0.047993
C15   C     C_3   0.461327 0.563800 0.969289 -0.143588
C16   C     C_3   0.538680 0.436132 0.030852 -0.138106
C17   C     C_3   0.434947 0.490578 0.030875 -0.137213
C18   C     C_3   0.565062 0.509347 0.969270 -0.131824
C19   C     C_3   0.526394 0.573165 0.030890 -0.136843
C20   C     C_3   0.473618 0.426760 0.969252 -0.147609
C21   C     C_3   0.500010 0.499951 0.091331 0.069046
C22   C     C_3   0.500000 0.499978 0.908776 0.074917
C23   C     C_R   0.367111 0.496578 0.499907 0.865840
C24   C     C_R   0.632884 0.503372 0.499860 0.866241
C25   C     C_1   0.499994 0.499975 0.194098 0.151168
C26   C     C_1   0.500011 0.499992 0.805934 0.120617
C27   C     C_R   0.255714 0.541426 0.563734 -0.254865
C28   C     C_R   0.744248 0.457888 0.563195 -0.255442
C29   C     C_R   0.183973 0.542823 0.565157 -0.181405
C30   C     C_R   0.815987 0.456447 0.564603 -0.181403
C31   C     C_R   0.145696 0.496886 0.500952 0.008857
C32   C     C_R   0.854277 0.502957 0.500905 0.009071
C33   C     C_R   0.179845 0.449269 0.432835 0.050192
C34   C     C_R   0.820145 0.551210 0.433302 0.049999
C35   C     C_R   0.253021 0.441961 0.436083 0.432509
C36   C     C_R   0.746965 0.558458 0.436583 0.431259
C37   C     C_R   0.290922 0.492255 0.499639 -0.179084
C38   C     C_R   0.709064 0.507628 0.499612 -0.178600
C39   C     C_R   0.930052 0.501272 0.507132 0.415285
C40   C     C_R   0.069913 0.498502 0.507158 0.415506
Cu1   Cu    Cu3+1 0.500010 0.500000 0.590220 0.990122
Cu2   Cu    Cu3+1 0.499990 0.500000 0.409780 1.067408
H1    H     H_    0.284020 0.579385 0.613006 0.171046
H2    H     H_    0.715921 0.419520 0.612066 0.170871
H3    H     H_    0.451770 0.366157 0.943977 0.138396
H4    H     H_    0.548268 0.633722 0.056267 0.136772
H5    H     H_    0.158077 0.580121 0.616727 0.164926
H6    H     H_    0.841873 0.418680 0.615775 0.164915
H7    H     H_    0.591341 0.052896 0.397822 0.145005
H8    H     H_    0.408556 0.947110 0.601869 0.141561
H9    H     H_    0.612171 0.948207 0.553211 0.151547
H10   H     H_    0.387735 0.051817 0.446465 0.160549
H11   H     H_    0.478490 0.947457 0.344452 0.144982
H12   H     H_    0.521413 0.052529 0.655243 0.140512
H13   H     H_    0.381119 0.482768 0.056261 0.152741
H14   H     H_    0.618924 0.517117 0.944012 0.139271
H15   H     H_    0.429309 0.616644 0.944032 0.134993
H16   H     H_    0.570694 0.383301 0.056153 0.138819
N1    N     N_R   0.032739 0.425505 0.507662 -0.219822
N2    N     N_R   0.967224 0.574257 0.508705 -0.219881
N3    N     N_R   0.963904 0.426841 0.507951 -0.230824
N4    N     N_R   0.036062 0.572916 0.509021 -0.230963
N5    N     N_1   0.499980 0.500000 0.274190 -0.132661
N6    N     N_1   0.500020 0.500000 0.725810 -0.154623
O1    O     O_R   0.500010 0.379080 0.576170 -0.584837
O2    O     O_R   0.499990 0.620920 0.423830 -0.551958
O3    O     O_R   0.500000 0.379080 0.423800 -0.550586
O4    O     O_R   0.500000 0.620920 0.576200 -0.584512
O5    O     O_R   0.400150 0.499990 0.576210 -0.588077
O6    O     O_R   0.599850 0.500010 0.423790 -0.525049
O7    O     O_R   0.400140 0.499990 0.423840 -0.523225
O8    O     O_R   0.599860 0.500010 0.576160 -0.587853
C41   C     C_3   0.138654 0.411627 0.354415 -0.694610
H17   H     H_    0.168362 0.415398 0.289542 0.262216
H18   H     H_    0.124682 0.345178 0.369977 0.263156
H19   H     H_    0.090504 0.447163 0.341119 0.206130
C42   C     C_3   0.861358 0.589645 0.355363 -0.694054
H20   H     H_    0.831744 0.586271 0.290386 0.262682
H21   H     H_    0.875123 0.656020 0.371605 0.263007
H22   H     H_    0.909631 0.554434 0.341840 0.206128
S1    S     S_3+6 0.296473 0.366752 0.365949 -0.005709
O9    O     O_2   0.355126 0.328581 0.418502 -0.321898
O10   O     O_2   0.248874 0.296534 0.336148 -0.289513
O11   O     O_3   0.327844 0.416220 0.272800 -0.539285
H23   H     H_    0.358926 0.374949 0.243430 0.367638
S2    S     S_3+6 0.703456 0.634206 0.367217 -0.004675
O12   O     O_2   0.644970 0.672052 0.420376 -0.323680
O13   O     O_2   0.751006 0.704600 0.337796 -0.286736
O14   O     O_3   0.671818 0.585432 0.273781 -0.534234
H24   H     H_    0.638778 0.625759 0.246711 0.367172

loop_
_geom_bond_atom_site_label_1
_geom_bond_atom_site_label_2
_ccdc_geom_bond_type
C16   C21   S    
C27   C29   A    
C15   H15   S    
Cu1   Cu2   S    
C23   O5    A    
C25   N5    T    
C6    C9    S    
S1    O9    D    
C35   S1    S    
C19   H4    S    
C24   O6    A    
C42   H20   S    
C15   C19   S    
C29   H5    S    
C30   H6    S    
C19   C21   S    
C5    C11   S    
C2    O4    A    
C34   C42   S    
C6    C12   S    
S2    O13   D    
Cu2   O6    S    
C17   C20   S    
C40   N4    A    
C31   C40   S    
N2    N4    A    
C18   C19   S    
C41   H17   S    
C32   C39   S    
C10   H11   S    
C26   N6    T    
C3    C12   S    
C33   C35   A    
C15   C22   S    
C1    O1    A    
C31   C33   A    
C17   H13   S    
C20   H3    S    
C18   H14   S    
C40   N1    A    
C1    C7    S    
C41   H18   S    
C5    H7    S    
S1    O10   D    
Cu1   O4    S    
C42   H21   S    
C39   N3    A    
N1    N3    A    
C23   O7    A    
O11   H23   S    
C4    C6    S    
C3    H9    S    
S2    O12   D    
Cu1   O1    S    
C36   S2    S    
C23   C37   S    
C28   H2    S    
C17   C21   S    
C32   C34   A    
C3    C9    S    
C24   C38   S    
C28   C38   A    
C16   C20   S    
C16   H16   S    
C6    H8    S    
C4    C11   S    
C9    C11   S    
C10   C12   S    
Cu1   O8    S    
C33   C41   S    
C4    H10   S    
Cu2   O3    S    
C41   H19   S    
C4    C10   S    
S1    O11   S    
C24   O8    A    
Cu1   O5    S    
C42   H22   S    
C15   C17   S    
C21   C25   S    
C8    C14   T    
C35   C37   A    
C18   C22   S    
C2    C8    S    
C20   C22   S    
C3    C5    S    
S2    O14   S    
C2    O2    A    
C36   C38   A    
C12   C14   S    
C5    C10   S    
C29   C31   A    
C30   C32   A    
C11   C13   S    
C27   C37   A    
C39   N2    A    
C28   C30   A    
Cu2   O7    S    
C1    O3    A    
C34   C36   A    
C27   H1    S    
C7    C13   T    
C16   C18   S    
C22   C26   S    
Cu2   O2    S    
C9    H12   S    
Cu1   N6    S    
O14   H24   S    
Cu2   N5    S    
