data_mof_unit_20357.cif
_audit_creation_date              2013-03-05T16:06:48-0500
_audit_creation_method            fapswitch 2.2
_symmetry_space_group_name_H-M    P1
_symmetry_Int_Tables_number       1
_space_group_crystal_system       triclinic
_cell_length_a                    10.958232
_cell_length_b                    9.603195
_cell_length_c                    19.485993
_cell_angle_alpha                 90.24775
_cell_angle_beta                  93.774977
_cell_angle_gamma                 90.136372
_cell_volume                      2046.11418754

loop_
_atom_site_label
_atom_site_type_symbol
_atom_site_description
_atom_site_fract_x
_atom_site_fract_y
_atom_site_fract_z
_atom_type_partial_charge
O1    O     O_R   0.319640 0.618740 0.500000 -0.618919
O2    O     O_R   0.680360 0.381260 0.500000 -0.631788
O3    O     O_R   0.680360 0.618740 0.500000 -0.625226
O4    O     O_R   0.319640 0.381260 0.500000 -0.621944
C1    C     C_R   0.870915 0.496847 0.491499 -0.264325
C2    C     C_R   0.127979 0.495774 0.502245 -0.250655
C3    C     C_R   0.262368 0.499212 0.501463 0.753163
C4    C     C_R   0.737186 0.499572 0.496393 0.748511
O5    O     O_R   0.500020 0.618830 0.400190 -0.575260
O6    O     O_R   0.499980 0.381170 0.599810 -0.562774
O7    O     O_R   0.499980 0.618830 0.599810 -0.589737
O8    O     O_R   0.500020 0.381170 0.400190 -0.567794
C5    C     C_R   0.499741 0.499202 0.367454 0.829866
C6    C     C_R   0.501662 0.499866 0.632076 0.859566
Cu1   Cu    Cu3+1 0.500000 0.640660 0.500000 0.932654
Cu2   Cu    Cu3+1 0.500000 0.359340 0.500000 0.938269
C7    C     C_R   0.062031 0.369954 0.488311 -0.039503
C8    C     C_R   0.938012 0.622951 0.489843 -0.025313
C9    C     C_R   0.935415 0.368447 0.493041 -0.044570
C10   C     C_R   0.062170 0.619881 0.512879 -0.014112
C11   C     C_R   0.425474 0.409504 0.741158 0.417213
C12   C     C_R   0.469879 0.613116 0.251675 0.322985
C13   C     C_R   0.546999 0.375617 0.257641 0.322203
C14   C     C_R   0.591334 0.579564 0.746238 0.408267
C15   C     C_R   0.435373 0.399146 0.813593 -0.086613
C16   C     C_R   0.495481 0.619929 0.182092 -0.114595
C17   C     C_R   0.544607 0.370997 0.185214 -0.121112
C18   C     C_R   0.587743 0.588421 0.818269 -0.088843
C19   C     C_R   0.512847 0.493695 0.852121 -0.197258
C20   C     C_R   0.524492 0.495669 0.147388 -0.100846
C21   C     C_R   0.427310 0.073253 0.452792 0.027335
C22   C     C_R   0.582324 0.926927 0.542139 0.039909
C23   C     C_R   0.573480 0.075026 0.546994 0.061456
C24   C     C_R   0.417555 0.925653 0.458332 0.090199
C25   C     C_R   0.504708 0.498237 0.707645 -0.303729
C26   C     C_R   0.505871 0.496109 0.291413 -0.234507
C27   C     C_R   0.411836 0.530066 0.961454 -0.176922
C28   C     C_R   0.627511 0.458229 0.038136 -0.085871
C29   C     C_R   0.414353 0.528388 0.032919 -0.080202
C30   C     C_R   0.623722 0.455268 0.966502 -0.175140
H1    H     H_    0.328414 0.559078 0.932134 0.141649
H2    H     H_    0.711454 0.431456 0.067521 0.120117
H3    H     H_    0.332528 0.555447 0.058267 0.119888
H4    H     H_    0.704748 0.425863 0.940989 0.142006
N1    N     N_R   0.500000 0.852070 0.500000 -0.273370
N2    N     N_R   0.500000 0.147930 0.500000 -0.277541
C31   C     C_R   0.522564 0.494123 0.071618 0.260410
C32   C     C_R   0.516251 0.492818 0.927936 0.080848
C33   C     C_2   0.363400 0.143641 0.393257 0.555257
H5    H     H_    0.321911 0.244218 0.398166 0.096611
O9    O     O_2   0.358268 0.089342 0.336365 -0.532055
C34   C     C_2   0.684089 0.855535 0.581156 0.477720
H6    H     H_    0.673101 0.753549 0.601251 0.164800
O10   O     O_2   0.784558 0.910271 0.589970 -0.481675
C35   C     C_2   0.639663 0.148336 0.605399 0.548164
H7    H     H_    0.689617 0.243274 0.598313 0.080409
O11   O     O_2   0.637712 0.102368 0.663664 -0.510221
C36   C     C_2   0.312365 0.853999 0.422526 0.453393
H8    H     H_    0.322369 0.754409 0.398677 0.142312
O12   O     O_2   0.210529 0.905540 0.421103 -0.514419
C37   C     C_2   0.119910 0.237363 0.468087 0.453206
H9    H     H_    0.188624 0.186801 0.501808 0.106744
O13   O     O_2   0.085649 0.180168 0.414087 -0.518026
C38   C     C_2   0.886179 0.749065 0.453754 0.482256
H10   H     H_    0.796334 0.746707 0.427163 0.059979
O14   O     O_2   0.946893 0.854566 0.447937 -0.434748
C39   C     C_2   0.875448 0.229893 0.498808 0.444576
H11   H     H_    0.800406 0.198524 0.463329 0.088106
O15   O     O_2   0.912917 0.148011 0.543032 -0.474226
C40   C     C_2   0.115580 0.735252 0.557303 0.468636
H12   H     H_    0.206604 0.727371 0.582060 0.066711
O16   O     O_2   0.055085 0.836466 0.571847 -0.437018
O17   O     O_3   0.344030 0.325390 0.702666 -0.505251
C41   C     C_3   0.232832 0.398146 0.690415 0.065075
H13   H     H_    0.243166 0.480043 0.651039 0.099361
H14   H     H_    0.201580 0.447591 0.738118 0.133831
C42   C     C_3   0.134207 0.296168 0.663770 -0.612828
H15   H     H_    0.113673 0.221552 0.704846 0.276580
H16   H     H_    0.049336 0.353039 0.647240 0.179260
H17   H     H_    0.165877 0.237029 0.619378 0.249834
O18   O     O_3   0.398010 0.715533 0.278452 -0.581572
C43   C     C_3   0.273123 0.681929 0.261271 0.001872
H18   H     H_    0.234361 0.629585 0.305715 0.152307
H19   H     H_    0.257658 0.610763 0.215914 0.136719
C44   C     C_3   0.200771 0.813963 0.244436 -0.687011
H20   H     H_    0.233046 0.863002 0.197440 0.230427
H21   H     H_    0.102268 0.787909 0.235141 0.199525
H22   H     H_    0.211172 0.889440 0.287437 0.307843
O19   O     O_3   0.572791 0.254986 0.294304 -0.539745
C45   C     C_3   0.700286 0.245897 0.309510 0.045564
H23   H     H_    0.728801 0.318823 0.352125 0.147231
H24   H     H_    0.753534 0.270224 0.264161 0.117094
C46   C     C_3   0.731341 0.097714 0.331789 -0.712504
H25   H     H_    0.707474 0.024027 0.288882 0.238453
H26   H     H_    0.830747 0.089389 0.346329 0.239464
H27   H     H_    0.679010 0.068526 0.376520 0.246938
O20   O     O_3   0.682641 0.646840 0.713484 -0.547385
C47   C     C_3   0.785524 0.557832 0.714262 0.055307
H28   H     H_    0.765165 0.464144 0.681499 0.121347
H29   H     H_    0.814245 0.523828 0.767562 0.157722
C48   C     C_3   0.892790 0.634971 0.686206 -0.665077
H30   H     H_    0.908542 0.735387 0.713951 0.299596
H31   H     H_    0.976830 0.570994 0.693129 0.164025
H32   H     H_    0.874138 0.655230 0.630574 0.242953
C49   C     C_2   0.367856 0.287841 0.849187 0.439583
H33   H     H_    0.382198 0.273264 0.904232 0.097030
O21   O     O_2   0.296988 0.208499 0.817743 -0.490861
C50   C     C_2   0.488381 0.758653 0.147769 0.384936
H34   H     H_    0.445582 0.845754 0.172260 0.140781
O22   O     O_2   0.536005 0.780156 0.093903 -0.536400
C51   C     C_2   0.558727 0.232782 0.151245 0.417547
H35   H     H_    0.605915 0.148680 0.178703 0.112974
O23   O     O_2   0.512831 0.208374 0.093654 -0.533068
C52   C     C_2   0.660821 0.697476 0.857831 0.431240
H36   H     H_    0.656551 0.707467 0.913007 0.094314
O24   O     O_2   0.724459 0.780953 0.829278 -0.469565

loop_
_geom_bond_atom_site_label_1
_geom_bond_atom_site_label_2
_geom_bond_distance
_ccdc_geom_bond_type
C23   C35   1.482834 S    
C35   H7    1.076382 S    
C46   H25   1.110574 S    
O17   C41   1.413220 S    
C51   H35   1.084096 S    
O20   C47   1.415749 S    
C15   C49   1.497066 S    
C42   H15   1.110252 S    
C49   O21   1.220466 D    
C48   H30   1.111042 S    
C41   H14   1.116099 S    
C18   C19   1.417438 A    
C28   H2    1.083135 S    
O7    C6    1.305982 A    
C42   H17   1.107912 S    
C36   O12   1.220546 D    
Cu1   Cu2   2.701571 S    
C13   C26   1.417757 A    
C11   O17   1.383759 S    
C50   H34   1.084079 S    
C22   N1    1.378082 A    
C37   O13   1.221405 D    
O5    C5    1.311518 A    
C22   C34   1.479241 S    
C7    C37   1.487035 S    
O7    Cu1   1.957076 S    
O8    Cu2   1.957078 S    
C33   O9    1.220935 D    
C41   C42   1.520956 S    
C13   O19   1.383623 S    
C9    C39   1.490540 S    
C40   H12   1.081983 S    
O1    Cu1   1.987107 S    
C13   C17   1.410331 A    
O2    Cu2   1.987107 S    
C44   H21   1.110456 S    
C17   C51   1.493547 S    
C48   H31   1.109434 S    
C17   C20   1.418717 A    
C23   N2    1.374119 A    
C10   C40   1.497097 S    
C21   C33   1.481646 S    
O4    C3    1.297384 A    
C34   O10   1.220444 D    
C52   H36   1.083099 S    
C42   H16   1.109723 S    
C15   C19   1.419620 A    
C14   C25   1.404989 A    
C41   H13   1.111890 S    
C19   C32   1.475409 S    
C39   H11   1.080317 S    
C12   O18   1.383193 S    
C20   C31   1.475228 S    
C5    C26   1.487840 S    
O3    C4    1.307978 A    
O6    C6    1.298890 A    
Cu2   N2    2.030212 S    
C6    C25   1.470866 S    
C29   H3    1.083425 S    
C1    C8    1.416827 A    
C36   H8    1.070521 S    
C44   H20   1.109538 S    
C21   N2    1.374800 A    
O18   C43   1.423292 S    
C14   O20   1.382198 S    
C39   O15   1.220786 D    
C38   O14   1.220526 D    
O4    Cu2   1.988103 S    
C45   H24   1.115787 S    
C21   C24   1.426291 A    
C51   O23   1.220690 D    
C24   N1    1.373387 A    
C27   C32   1.400744 A    
C28   C31   1.402069 A    
C18   C52   1.496701 S    
C11   C25   1.407981 A    
C47   H28   1.114516 S    
C46   H27   1.110989 S    
C47   H29   1.115694 S    
C35   O11   1.221404 D    
C33   H5    1.075064 S    
Cu1   N1    2.030211 S    
C16   C50   1.493136 S    
C47   C48   1.520953 S    
C12   C26   1.409662 A    
C34   H6    1.065841 S    
C45   C46   1.522330 S    
C29   C31   1.403330 A    
C44   H22   1.105553 S    
C30   C32   1.403407 A    
C2    C7    1.422353 A    
C11   C15   1.412434 A    
O1    C3    1.308227 A    
O2    C4    1.298726 A    
C14   C18   1.408947 A    
C1    C4    1.475078 S    
C52   O24   1.220984 D    
C16   C20   1.416132 A    
C2    C3    1.474045 S    
C1    C9    1.422166 A    
C48   H32   1.107976 S    
C43   C44   1.522511 S    
C2    C10   1.415999 A    
C49   H33   1.083512 S    
C43   H19   1.118676 S    
C38   H10   1.082094 S    
O5    Cu1   1.955275 S    
C27   C29   1.391171 A    
O6    Cu2   1.955274 S    
C22   C23   1.428907 A    
C28   C30   1.393909 A    
C8    C38   1.497322 S    
C45   H23   1.112385 S    
C7    C9    1.396626 A    
C50   O22   1.220753 D    
C8    C10   1.404759 A    
C27   H1    1.083301 S    
C37   H9    1.083454 S    
C30   H4    1.083221 S    
O8    C5    1.302967 A    
C46   H26   1.110514 S    
C43   H18   1.110987 S    
C12   C16   1.404346 A    
C24   C36   1.474856 S    
O3    Cu1   1.988103 S    
C40   O16   1.220636 D    
O19   C45   1.411961 S    
