data_mof_unit_20203.cif
_audit_creation_date              2012-12-11T14:50:50-0500
_audit_creation_method            fapswitch 2.2
_symmetry_space_group_name_H-M    P1
_symmetry_Int_Tables_number       1
_space_group_crystal_system       triclinic
_cell_length_a                    10.99096
_cell_length_b                    11.006642
_cell_length_c                    18.61961
_cell_angle_alpha                 89.663694
_cell_angle_beta                  89.430769
_cell_angle_gamma                 59.663186
_cell_volume                      1943.95419919

loop_
_atom_site_label
_atom_site_type_symbol
_atom_type_description
_atom_site_fract_x
_atom_site_fract_y
_atom_site_fract_z
_atom_type_partial_charge
C1    C     C_R   0.303993 0.615124 0.613931 0.547246
C2    C     C_R   0.535573 0.216336 0.798064 -0.132173
C3    C     C_R   0.525019 0.228273 0.724981 -0.152639
C4    C     C_R   0.658330 0.629588 0.596677 0.533319
C5    C     C_R   0.621944 0.247852 0.686002 0.006902
C6    C     C_R   0.261742 0.516999 0.728780 -0.153040
C7    C     C_R   0.222356 0.538654 0.801462 -0.155593
C8    C     C_R   0.182142 0.670100 0.832336 0.022319
C9    C     C_R   0.186170 0.772193 0.787857 -0.009592
C10   C     C_R   0.276453 0.725832 0.729486 -0.135876
C11   C     C_R   0.288678 0.612928 0.692154 -0.010415
C12   C     C_3   0.717513 0.566093 0.795407 0.113526
C13   C     C_R   0.709550 0.499578 0.265191 -0.141572
C14   C     C_R   0.720771 0.520800 0.192627 -0.122009
C15   C     C_R   0.641356 0.656107 0.162662 0.023395
C16   C     C_R   0.595256 0.285483 0.610557 0.545675
C17   C     C_R   0.535736 0.764698 0.204051 -0.140574
C18   C     C_R   0.523267 0.742975 0.277020 -0.132141
C19   C     C_R   0.616295 0.612079 0.308697 0.012734
C20   C     C_R   0.569805 0.106683 0.299127 -0.122569
C21   C     C_R   0.583957 0.071057 0.227432 -0.140664
C22   C     C_R   0.694262 0.065815 0.187615 0.019004
C23   C     C_3   0.726259 0.700904 0.805301 0.052357
C24   C     C_R   0.798239 0.083524 0.221915 -0.145475
C25   C     C_R   0.782200 0.122623 0.293350 -0.158119
C26   C     C_R   0.663176 0.142722 0.330872 0.027471
C27   C     C_R   0.095904 0.711753 0.307489 -0.104889
C28   C     C_R   0.288184 0.620510 0.392788 0.541755
C29   C     C_R   0.049604 0.726582 0.237826 -0.123388
C30   C     C_R   0.147862 0.665878 0.182041 0.043308
C31   C     C_R   0.291660 0.581230 0.195271 -0.126635
C32   C     C_R   0.337829 0.562083 0.265688 -0.139461
C33   C     C_R   0.240186 0.632771 0.320847 0.038557
C34   C     C_3   0.683084 0.670220 0.669261 0.039128
C35   C     C_R   0.696135 0.110207 0.899108 0.544940
C36   C     C_R   0.755112 0.711936 0.882535 0.556304
C37   C     C_R   0.112003 0.710237 0.903047 0.525548
C38   C     C_R   0.702988 0.039932 0.110910 0.567687
C39   C     C_R   0.692417 0.687094 0.095884 0.545269
C40   C     C_R   0.614627 0.588440 0.386081 0.546506
C41   C     C_R   0.096672 0.706374 0.110987 0.535844
C42   C     C_R   0.620158 0.223734 0.396792 0.543472
C43   C     C_3   0.583967 0.835314 0.777431 -0.136506
C44   C     C_3   0.568087 0.820105 0.694750 -0.258901
C45   C     C_3   0.826448 0.668547 0.676998 -0.098266
C46   C     C_3   0.850997 0.686574 0.757675 -0.211053
C47   C     C_3   0.958781 0.557097 0.634735 -0.238017
C48   C     C_3   0.025799 0.402544 0.658470 -0.268201
C49   C     C_3   0.137769 0.303678 0.604778 -0.456900
C50   C     C_3   0.057876 0.916512 0.778229 -0.250593
C51   C     C_3   0.997467 0.937595 0.700750 -0.285615
C52   C     C_3   0.037104 0.027619 0.653138 -0.417521
C53   C     C_3   0.446880 0.864416 0.819877 -0.245971
C54   C     C_3   0.362118 0.011438 0.853495 -0.310658
C55   C     C_3   0.263599 0.017436 0.913523 -0.411191
C56   C     C_3   0.669622 0.565689 0.719903 -0.179061
C57   C     C_R   0.736694 0.240685 0.721272 -0.145366
C58   C     C_R   0.759636 0.205775 0.793759 -0.114581
C59   C     C_R   0.661190 0.188572 0.832026 0.024137
Cl1   Cl    Cl    0.882677 0.405452 0.811412 -0.738056
Cr1   Cr    Cr6+3 0.392930 0.397900 0.502230 0.981279
Cr2   Cr    Cr6+3 0.398240 0.708600 0.501260 0.981967
Cr3   Cr    Cr6+3 0.708800 0.393470 0.496460 0.977820
Cr4   Cr    Cr6+3 0.937620 0.938540 0.007640 1.000304
Cr5   Cr    Cr6+3 0.625150 0.937450 0.994520 0.975680
Cr6   Cr    Cr6+3 0.937990 0.625080 0.001190 1.038671
H1    H     H_    0.597386 0.928264 0.784058 0.147858
H2    H     H_    0.290579 0.801681 0.700026 0.127926
H3    H     H_    0.777449 0.396237 0.287831 0.128582
H4    H     H_    0.800008 0.433388 0.161327 0.141989
H5    H     H_    0.469612 0.868172 0.181311 0.119401
H6    H     H_    0.445464 0.830072 0.308955 0.136489
H7    H     H_    0.478839 0.116987 0.327820 0.142795
H8    H     H_    0.505220 0.054306 0.202517 0.124405
H9    H     H_    0.888930 0.073409 0.193058 0.150580
H10   H     H_    0.857548 0.145557 0.317578 0.127235
H11   H     H_    0.020231 0.762708 0.350724 0.139467
H12   H     H_    0.731136 0.461558 0.698439 0.166019
H13   H     H_    0.461773 0.842075 0.680516 0.129056
H14   H     H_    0.937868 0.789419 0.226966 0.116406
H15   H     H_    0.366963 0.533693 0.151608 0.121688
H16   H     H_    0.448869 0.495705 0.277042 0.103420
H17   H     H_    0.578341 0.902561 0.665031 0.112735
H18   H     H_    0.859244 0.782563 0.764267 0.062823
H19   H     H_    0.808857 0.767283 0.650552 0.104967
H20   H     H_    0.640311 0.564083 0.833699 0.143718
H21   H     H_    0.559231 0.587904 0.721242 0.082838
H22   H     H_    0.088550 0.307714 0.552330 0.159214
H23   H     H_    0.952811 0.598001 0.776208 0.184388
H24   H     H_    0.219817 0.332638 0.596619 0.189749
H25   H     H_    0.189641 0.194037 0.625365 0.122001
H26   H     H_    0.076193 0.387700 0.711532 0.191465
H27   H     H_    0.946443 0.369972 0.662279 0.214219
H28   H     H_    0.933029 0.566043 0.576695 0.174456
H29   H     H_    0.039966 0.588073 0.638703 0.154388
H30   H     H_    0.036070 0.113645 0.684183 0.139177
H31   H     H_    0.143921 0.968239 0.630286 0.176299
H32   H     H_    0.963285 0.071691 0.607386 0.169218
H33   H     H_    0.029443 0.836569 0.673328 0.183494
H34   H     H_    0.814224 0.250307 0.691030 0.143188
H35   H     H_    0.882140 0.984378 0.703509 0.149604
H36   H     H_    0.973177 0.929964 0.815698 0.153764
H37   H     H_    0.085600 0.997655 0.790999 0.151017
H38   H     H_    0.199700 0.127146 0.933504 0.155350
H39   H     H_    0.191591 0.982654 0.894195 0.181103
H40   H     H_    0.325746 0.948660 0.958888 0.160914
H41   H     H_    0.433092 0.040411 0.877991 0.220961
H42   H     H_    0.300637 0.090551 0.811379 0.147457
H43   H     H_    0.372371 0.860046 0.784588 0.135598
H44   H     H_    0.468860 0.782295 0.860697 0.173632
H45   H     H_    0.857167 0.182525 0.818591 0.188123
H46   H     H_    0.450913 0.213518 0.826345 0.124320
H47   H     H_    0.439692 0.223361 0.699512 0.122731
H48   H     H_    0.262769 0.431837 0.700682 0.121433
H49   H     H_    0.207428 0.461213 0.830135 0.139798
O1    O     O_R   0.507430 0.255570 0.581420 -0.534303
O2    O     O_R   0.837200 0.593290 0.915250 -0.437327
O3    O     O_R   0.065330 0.635370 0.931590 -0.512751
O4    O     O_R   0.280190 0.527390 0.578910 -0.525969
O5    O     O_R   0.068300 0.828790 0.091860 -0.526026
O6    O     O_R   0.798730 0.057480 0.079370 -0.501654
O7    O     O_R   0.584680 0.080480 0.076790 -0.512229
O8    O     O_R   0.626790 0.809640 0.067050 -0.520630
O9    O     O_R   0.816010 0.596460 0.076500 -0.509611
O10   O     O_R   0.045680 0.638310 0.081070 -0.496975
O11   O     O_3   0.833590 0.833690 0.001120 -0.290538
O12   O     O_R   0.524460 0.695920 0.424060 -0.511775
O13   O     O_R   0.260310 0.739740 0.584580 -0.529185
O14   O     O_R   0.532250 0.695150 0.573830 -0.521339
O15   O     O_R   0.744930 0.503430 0.576380 -0.535648
O16   O     O_R   0.699250 0.276390 0.571950 -0.510933
O17   O     O_R   0.499020 0.256400 0.419850 -0.523541
O18   O     O_R   0.272400 0.528160 0.429140 -0.484925
O19   O     O_R   0.251910 0.740570 0.423020 -0.514910
O20   O     O_R   0.736530 0.504260 0.414810 -0.505807
O21   O     O_R   0.691460 0.277160 0.422180 -0.519344
O22   O     O_3   0.499990 0.499990 0.499980 -0.315508
O23   O     O_R   0.089490 0.825610 0.930610 -0.532887
O24   O     O_R   0.818370 0.054540 0.929880 -0.501092
O25   O     O_R   0.605870 0.077310 0.915530 -0.558125
O26   O     O_R   0.646440 0.806700 0.917570 -0.523272

loop_
_geom_bond_atom_site_label_1
_geom_bond_atom_site_label_2
_ccdc_geom_bond_type
C53   H44   S    
C34   C56   S    
Cr1   O4    S    
Cr3   O22   S    
C54   H42   S    
C49   H22   S    
C1    O13   A    
C49   H24   S    
C43   C44   S    
C44   H17   S    
C39   O8    A    
C7    C8    A    
C46   H23   S    
Cr4   O23   S    
C53   C54   S    
C27   C33   A    
C12   C23   S    
C2    H46   S    
C20   C26   A    
C54   H41   S    
C55   H39   S    
C28   O19   A    
C42   O21   A    
C30   C31   A    
C27   C29   A    
Cr4   O6    S    
C22   C38   S    
C52   H31   S    
C56   H12   S    
C35   C59   S    
C18   C19   A    
C1    O4    A    
Cr3   O15   S    
C7    H49   S    
Cr5   O11   S    
C16   O16   A    
C6    H48   S    
C5    C16   S    
Cr1   O17   S    
C35   O24   A    
Cr5   O25   S    
C43   C53   S    
C37   O3    A    
C47   C48   S    
C8    C9    A    
Cr6   O2    S    
C1    C11   S    
C30   C41   S    
Cr3   O16   S    
C9    C10   A    
C50   H37   S    
Cr2   O22   S    
C23   C46   S    
C21   C22   A    
C51   H33   S    
C14   H4    S    
Cr2   O14   S    
C49   H25   S    
C16   O1    A    
C50   C51   S    
C45   C47   S    
C18   H6    S    
C40   O20   A    
C4    C34   S    
C48   H27   S    
C13   C19   A    
C55   H40   S    
Cr1   O18   S    
C28   O18   A    
C41   O10   A    
C34   C44   S    
C24   C25   A    
C3    H47   S    
C6    C11   A    
C2    C59   A    
C56   H21   S    
C4    O15   A    
C3    C5    A    
C58   C59   A    
C45   C46   S    
C40   O12   A    
C21   H8    S    
C39   O9    A    
Cr6   O11   S    
Cr3   O20   S    
C45   H19   S    
C36   O26   A    
C29   C30   A    
C35   O25   A    
Cr5   O26   S    
C31   C32   A    
Cr1   O1    S    
C17   C18   A    
C4    O14   A    
C34   C45   S    
C38   O7    A    
Cr5   O7    S    
C36   O2    A    
C15   C39   S    
C12   C56   S    
C46   H18   S    
C48   C49   S    
C28   C33   S    
C17   H5    S    
Cr4   O11   S    
C37   O23   A    
C48   H26   S    
Cr6   O9    S    
C8    C37   S    
C26   C42   S    
C53   H43   S    
C15   C17   A    
C54   C55   S    
C23   C43   S    
C44   H13   S    
C9    C50   S    
C5    C57   A    
C27   H11   S    
C31   H15   S    
C58   H45   S    
C24   H9    S    
C50   H36   S    
C6    C7    A    
C10   H2    S    
C51   H35   S    
C32   H16   S    
Cr4   O5    S    
Cr6   O10   S    
C12   H20   S    
C25   H10   S    
C10   C11   A    
C32   C33   A    
Cr2   O19   S    
C2    C3    A    
C25   C26   A    
C51   C52   S    
Cr3   O21   S    
Cr2   O13   S    
C57   H34   S    
Cr1   O22   S    
C57   C58   A    
Cr2   O12   S    
C29   H14   S    
C13   H3    S    
C55   H38   S    
C52   H32   S    
C47   H28   S    
C20   H7    S    
C52   H30   S    
C22   C24   A    
Cr5   O8    S    
C41   O5    A    
C38   O6    A    
C19   C40   S    
C12   Cl1   S    
C20   C21   A    
C43   H1    S    
C23   C36   S    
Cr6   O3    S    
C47   H29   S    
C14   C15   A    
C42   O17   A    
C13   C14   A    
Cr4   O24   S    
