data_mof_unit_26473.cif
_audit_creation_date              2012-12-10T16:48:06-0500
_audit_creation_method            fapswitch 2.2
_symmetry_space_group_name_H-M    P1
_symmetry_Int_Tables_number       1
_space_group_crystal_system       triclinic
_cell_length_a                    15.815602
_cell_length_b                    8.717115
_cell_length_c                    7.450409
_cell_angle_alpha                 103.220125
_cell_angle_beta                  93.227542
_cell_angle_gamma                 92.834759
_cell_volume                      996.298904963

loop_
_atom_site_label
_atom_site_type_symbol
_atom_type_description
_atom_site_fract_x
_atom_site_fract_y
_atom_site_fract_z
_atom_type_partial_charge
C1    C     C_R   0.497448 0.199665 0.453110 0.878811
C2    C     C_R   0.502552 0.800335 0.546890 0.878811
C3    C     C_R   0.339873 0.497311 0.503438 0.817898
C4    C     C_R   0.660127 0.502689 0.496562 0.817898
C5    C     C_2   0.496242 0.031677 0.426985 -0.361901
C6    C     C_2   0.503757 0.968323 0.573015 -0.361901
C7    C     C_3   0.964848 0.399810 0.585210 0.542377
C8    C     C_3   0.035152 0.600189 0.414790 0.542378
C9    C     C_3   0.018768 0.350986 0.417662 -0.315260
C10   C     C_3   0.981232 0.649013 0.582338 -0.315260
C11   C     C_1   0.250185 0.491807 0.511622 -0.157835
C12   C     C_1   0.749815 0.508193 0.488378 -0.157835
C13   C     C_3   0.029159 0.536643 0.681027 -0.303346
C14   C     C_3   0.970841 0.463356 0.318972 -0.303345
C15   C     C_3   0.082572 0.489877 0.511735 0.075133
C16   C     C_3   0.917428 0.510123 0.488265 0.075135
C17   C     C_1   0.174493 0.488369 0.514999 0.012334
C18   C     C_1   0.825507 0.511631 0.485001 0.012335
Cu1   Cu    Cu3+1 0.509330 0.517380 0.684380 0.963255
Cu2   Cu    Cu3+1 0.490670 0.482620 0.315620 0.963255
H1    H     H_    0.035891 0.229744 0.355449 0.148224
H2    H     H_    0.964111 0.770256 0.644552 0.148224
H3    H     H_    0.946111 0.437605 0.172051 0.161318
H4    H     H_    0.053889 0.562394 0.827948 0.161319
H5    H     H_    0.489170 0.959740 0.286366 0.180445
H6    H     H_    0.510830 0.040260 0.713634 0.180445
H7    H     H_    0.434127 0.377716 0.949319 0.226609
H8    H     H_    0.565872 0.622284 0.050681 0.226608
N1    N     N_2   0.476600 0.456420 0.038510 -0.213819
N2    N     N_2   0.523400 0.543580 0.961490 -0.213819
O1    O     O_R   0.506070 0.286130 0.619780 -0.583943
O2    O     O_R   0.493930 0.713870 0.380220 -0.583943
O3    O     O_R   0.490300 0.256770 0.308360 -0.585869
O4    O     O_R   0.509700 0.743230 0.691640 -0.585869
O5    O     O_R   0.386960 0.514660 0.655680 -0.585001
O6    O     O_R   0.613040 0.485340 0.344320 -0.585002
O7    O     O_R   0.371190 0.485310 0.344260 -0.568557
O8    O     O_R   0.628810 0.514690 0.655740 -0.568557
O9    O     O_3   0.918474 0.298955 0.672457 -0.576581
C19   C     C_3   0.973411 0.200639 0.741260 0.053985
H9    H     H_    0.020667 0.271456 0.848545 0.147547
H10   H     H_    0.006924 0.127206 0.628097 0.139610
C20   C     C_3   0.920684 0.090459 0.828547 -0.791562
H11   H     H_    0.869866 0.024778 0.726968 0.252165
H12   H     H_    0.961521 0.004159 0.871556 0.192084
H13   H     H_    0.891397 0.159025 0.951332 0.251879
O10   O     O_3   0.081526 0.701044 0.327542 -0.576581
C21   C     C_3   0.026587 0.799360 0.258741 0.053983
H14   H     H_    0.993077 0.872796 0.371906 0.139612
H15   H     H_    0.979329 0.728544 0.151461 0.147546
C22   C     C_3   0.079313 0.909537 0.171449 -0.791559
H16   H     H_    0.108597 0.840969 0.048660 0.251878
H17   H     H_    0.038475 0.995839 0.128444 0.192083
H18   H     H_    0.130133 0.975216 0.273024 0.252167

loop_
_geom_bond_atom_site_label_1
_geom_bond_atom_site_label_2
_ccdc_geom_bond_type
C14   H3    S    
C7    C13   S    
C20   H11   S    
C4    O6    A    
N1    N2    D    
Cu1   O8    S    
H7    N1    S    
Cu1   Cu2   S    
C3    O5    A    
C9    C14   S    
C22   H18   S    
Cu1   O1    S    
C19   C20   S    
C2    O4    A    
H8    N2    S    
C9    C15   S    
C8    O10   S    
C1    O3    A    
C10   C16   S    
C16   C18   S    
Cu1   O5    S    
C10   H2    S    
Cu2   O7    S    
C20   H12   S    
C9    H1    S    
C6    H6    S    
C5    H5    S    
Cu2   O3    S    
C21   H15   S    
C21   H14   S    
C4    O8    A    
C8    C15   S    
C14   C16   S    
Cu2   N1    S    
C13   C15   S    
C7    C16   S    
C5    C6    D    
C20   H13   S    
C1    C5    S    
C21   C22   S    
C4    C12   S    
C22   H16   S    
Cu2   O6    S    
O10   C21   S    
C7    C9    S    
C1    O1    A    
C3    C11   S    
C3    O7    A    
C2    O2    A    
Cu2   O2    S    
C12   C18   T    
O9    C19   S    
C15   C17   S    
C7    O9    S    
C19   H9    S    
C8    C14   S    
Cu1   N2    S    
Cu1   O4    S    
C8    C10   S    
C11   C17   T    
C2    C6    S    
C13   H4    S    
C19   H10   S    
C22   H17   S    
C10   C13   S    
