data_mof_unit_38927.cif
_audit_creation_date              2013-03-05T16:41:01-0500
_audit_creation_method            fapswitch 2.2
_symmetry_space_group_name_H-M    P1
_symmetry_Int_Tables_number       1
_space_group_crystal_system       triclinic
_cell_length_a                    18.559281
_cell_length_b                    18.837669
_cell_length_c                    18.933476
_cell_angle_alpha                 109.931948
_cell_angle_beta                  109.302918
_cell_angle_gamma                 108.993934
_cell_volume                      5106.94205389

loop_
_atom_site_label
_atom_site_type_symbol
_atom_site_description
_atom_site_fract_x
_atom_site_fract_y
_atom_site_fract_z
_atom_type_partial_charge
O1    O     O_R   0.408360 0.551710 0.460090 -0.662632
O2    O     O_R   0.408400 0.448280 0.356670 -0.544709
C1    C     C_R   0.377782 0.498862 0.380195 0.989942
O3    O     O_R   0.591600 0.643340 0.551710 -0.648585
O4    O     O_R   0.591630 0.539900 0.448290 -0.569519
C2    C     C_R   0.621857 0.620442 0.501858 0.934257
Zn1   Zn    Zn3+2 0.499980 0.569060 0.569060 1.027121
Zn2   Zn    Zn3+2 0.500020 0.430940 0.430940 1.152507
O5    O     O_R   0.591600 0.551720 0.643330 -0.639455
O6    O     O_R   0.591640 0.448290 0.539910 -0.612497
O7    O     O_R   0.408370 0.460100 0.551710 -0.594194
O8    O     O_R   0.408400 0.356660 0.448290 -0.578372
C3    C     C_R   0.618057 0.497812 0.619746 0.881079
C4    C     C_R   0.376033 0.380383 0.496796 0.913425
C5    C     C_R   0.745309 0.827675 0.790748 0.262295
C6    C     C_R   0.723134 0.807273 0.704714 -0.098007
C7    C     C_R   0.770202 0.777280 0.668157 -0.006293
C8    C     C_R   0.846010 0.781512 0.722699 -0.238328
H1    H     H_    0.886768 0.766662 0.697271 0.242016
C9    C     C_R   0.878409 0.819913 0.811938 -0.142291
C10   C     C_R   0.824263 0.835999 0.845203 0.401115
C11   C     C_R   0.819326 0.826821 0.578700 -0.004804
C12   C     C_R   0.810606 0.816044 0.498888 -0.096209
C13   C     C_R   0.733659 0.748997 0.420020 0.011969
C14   C     C_R   0.671963 0.682593 0.420248 -0.049849
C15   C     C_R   0.685267 0.688552 0.500803 -0.077740
C16   C     C_R   0.756705 0.763033 0.580650 0.065752
C17   C     C_R   0.671314 0.801552 0.319161 0.036434
C18   C     C_R   0.659651 0.809074 0.244693 0.244301
C19   C     C_R   0.693141 0.773991 0.193455 -0.161414
C20   C     C_R   0.733475 0.726651 0.213755 0.452940
C21   C     C_R   0.742475 0.716953 0.285516 -0.294116
H2    H     H_    0.773995 0.681445 0.301233 0.203660
C22   C     C_R   0.713145 0.754250 0.339086 -0.041419
H3    H     H_    0.514627 0.883665 0.609464 0.173392
C23   C     C_R   0.399788 0.760758 0.543943 -0.077534
H4    H     H_    0.386139 0.778613 0.596826 0.200841
C24   C     C_R   0.343168 0.679554 0.468224 0.012029
C25   C     C_R   0.364971 0.657291 0.401807 -0.063959
C26   C     C_R   0.436159 0.720920 0.407632 0.446147
C27   C     C_R   0.489628 0.802539 0.482180 -0.081145
H5    H     H_    0.544286 0.851440 0.486771 0.186958
C28   C     C_R   0.472711 0.821371 0.550903 -0.219296
C29   C     C_R   0.248098 0.569318 0.252208 -0.153083
H6    H     H_    0.250003 0.629307 0.257645 0.186751
C30   C     C_R   0.183656 0.490711 0.178480 -0.075493
C31   C     C_R   0.173549 0.410809 0.173128 -0.082205
C32   C     C_R   0.235150 0.412579 0.242424 -0.095723
C33   C     C_R   0.305178 0.494351 0.314621 -0.101080
C34   C     C_R   0.306743 0.571943 0.321545 0.011145
C35   C     C_R   0.016734 0.298239 0.097468 -0.235946
H7    H     H_    0.012732 0.340643 0.149744 0.150065
C36   C     C_R   0.942408 0.218509 0.031260 -0.055559
C37   C     C_R   0.947780 0.164300 0.962256 0.363568
C38   C     C_R   0.028717 0.189429 0.962772 -0.103226
C39   C     C_R   0.104321 0.269592 0.032518 -0.125987
C40   C     C_R   0.096497 0.325809 0.097751 -0.017212
H8    H     H_    0.084597 0.512458 0.466368 0.250059
C41   C     C_R   0.190726 0.505719 0.546776 -0.105570
H9    H     H_    0.212596 0.566315 0.602385 0.239461
C42   C     C_R   0.235360 0.459581 0.553858 0.432762
C43   C     C_R   0.205547 0.379165 0.482592 -0.067811
C44   C     C_R   0.129198 0.345939 0.402899 -0.134075
C45   C     C_R   0.086801 0.396024 0.395786 -0.025686
C46   C     C_R   0.117118 0.474233 0.469175 -0.089926
C47   C     C_R   0.176701 0.254128 0.502419 -0.174147
H10   H     H_    0.118663 0.255802 0.502211 0.197852
C48   C     C_R   0.189114 0.185261 0.502017 -0.073224
C49   C     C_R   0.264198 0.181901 0.503005 0.074791
C50   C     C_R   0.324553 0.247966 0.502075 -0.189991
H11   H     H_    0.383026 0.246510 0.503602 0.170469
C51   C     C_R   0.310191 0.315307 0.498520 -0.054555
C52   C     C_R   0.234895 0.318534 0.498145 0.055550
C53   C     C_R   0.310002 0.106002 0.578264 -0.155353
H12   H     H_    0.316876 0.153011 0.636129 0.193332
C54   C     C_R   0.330085 0.041479 0.580578 -0.245675
H13   H     H_    0.350376 0.038839 0.639836 0.194972
C55   C     C_R   0.324010 0.980801 0.507629 -0.106642
C56   C     C_R   0.299117 0.986841 0.431638 0.366876
C57   C     C_R   0.276356 0.050662 0.428663 0.334350
C58   C     C_R   0.280914 0.109938 0.502137 -0.069371
C59   C     C_R   0.511846 0.539052 0.823689 -0.055988
C60   C     C_R   0.587012 0.556207 0.812727 0.012685
C61   C     C_R   0.592589 0.485836 0.760919 0.081740
C62   C     C_R   0.524361 0.400845 0.719611 -0.174024
H14   H     H_    0.528774 0.346835 0.680263 0.149705
C63   C     C_R   0.452010 0.383935 0.731494 -0.070087
H15   H     H_    0.401234 0.317028 0.699344 0.171424
C64   C     C_R   0.445017 0.451687 0.784192 -0.004960
C65   C     C_R   0.741299 0.501862 0.823265 0.310260
C66   C     C_R   0.812543 0.499197 0.813661 -0.236609
C67   C     C_R   0.817334 0.492847 0.739042 0.032748
C68   C     C_R   0.752065 0.492041 0.676042 -0.109354
H16   H     H_    0.755193 0.487042 0.618405 0.205244
C69   C     C_R   0.682024 0.495543 0.685569 -0.170601
C70   C     C_R   0.674263 0.497610 0.757575 -0.114420
C71   C     C_R   0.954266 0.533493 0.724246 -0.060255
C72   C     C_R   0.008293 0.507252 0.697014 0.267805
C73   C     C_R   0.986708 0.419730 0.660580 0.373346
C74   C     C_R   0.912596 0.358423 0.651649 -0.214140
H17   H     H_    0.897026 0.291412 0.622315 0.209708
C75   C     C_R   0.858576 0.382321 0.679279 -0.092503
C76   C     C_R   0.879601 0.470472 0.716679 -0.039681
O9    O     O_R   0.051730 0.908360 0.460060 -0.665860
O10   O     O_R   0.948280 0.908380 0.356650 -0.550469
C77   C     C_R   0.997280 0.876533 0.380560 0.885653
O11   O     O_R   0.960110 0.908350 0.551690 -0.577619
O12   O     O_R   0.856660 0.908370 0.448270 -0.624671
C78   C     C_R   0.879237 0.879585 0.498776 0.832540
Zn3   Zn    Zn3+2 0.069070 0.999960 0.569030 1.115830
Zn4   Zn    Zn3+2 0.930930 0.999990 0.430930 1.099202
O13   O     O_R   0.051720 0.091580 0.643310 -0.552658
O14   O     O_R   0.948270 0.091600 0.539890 -0.640354
O15   O     O_R   0.143340 0.091590 0.551680 -0.622260
O16   O     O_R   0.039890 0.091610 0.448270 -0.577200
C79   C     C_R   0.996862 0.117655 0.619116 0.860055
C80   C     C_R   0.120933 0.117713 0.498472 0.903855
O17   O     O_R   0.051730 0.460050 0.908360 -0.642498
O18   O     O_R   0.948290 0.356630 0.908390 -0.622748
C81   C     C_R   0.004770 0.380550 0.883588 0.847492
O19   O     O_R   0.143340 0.551690 0.091580 -0.601461
O20   O     O_R   0.039900 0.448270 0.091610 -0.634629
C82   C     C_R   0.119610 0.494561 0.114409 0.854254
Zn5   Zn    Zn3+2 0.069070 0.569030 0.999960 0.998406
Zn6   Zn    Zn3+2 0.930930 0.430930 0.000000 1.058441
O21   O     O_R   0.051710 0.643320 0.091560 -0.625963
O22   O     O_R   0.948270 0.539900 0.091590 -0.569347
O23   O     O_R   0.960100 0.551680 0.908340 -0.632990
O24   O     O_R   0.856660 0.448270 0.908370 -0.562673
C83   C     C_R   0.001551 0.620132 0.121360 0.878721
C84   C     C_R   0.879542 0.499372 0.879553 0.921471
C85   C     C_R   0.026636 0.750127 0.538168 -0.151355
C86   C     C_R   0.050081 0.764752 0.478053 -0.038959
C87   C     C_R   0.985008 0.719209 0.389450 -0.115179
C88   C     C_R   0.904399 0.647011 0.359542 0.298482
C89   C     C_R   0.883251 0.629512 0.418442 0.338690
C90   C     C_R   0.943287 0.681596 0.507385 0.229557
C91   C     C_R   0.015015 0.681635 0.265560 -0.016522
C92   C     C_R   0.006418 0.687584 0.191280 -0.183437
C93   C     C_R   0.005533 0.759648 0.184532 -0.037058
C94   C     C_R   0.005432 0.822704 0.248735 0.395655
C95   C     C_R   0.000115 0.810667 0.316424 -0.209234
C96   C     C_R   0.003267 0.739253 0.324972 0.010162
C97   C     C_R   0.097382 0.822316 0.128772 -0.069187
H18   H     H_    0.153422 0.858434 0.193009 0.224720
C98   C     C_R   0.109704 0.819699 0.059410 0.450602
C99   C     C_R   0.037888 0.769043 0.975690 -0.122898
H19   H     H_    0.048295 0.764726 0.922009 0.146091
C100  C     C_R   0.953044 0.725288 0.961645 -0.145310
H20   H     H_    0.897200 0.688295 0.896910 0.180955
C101  C     C_R   0.940741 0.726727 0.030912 -0.044661
H21   H     H_    0.875637 0.689198 0.019281 0.211022
C102  C     C_R   0.013483 0.773111 0.114373 0.087859
C103  C     C_R   0.260123 0.564380 0.923308 -0.209103
H22   H     H_    0.264527 0.623108 0.923192 0.176136
C104  C     C_R   0.180399 0.486764 0.867317 -0.054912
H23   H     H_    0.125309 0.487124 0.824298 0.179537
C105  C     C_R   0.170922 0.409949 0.868165 -0.007269
C106  C     C_R   0.247114 0.410336 0.918259 0.348156
C107  C     C_R   0.326701 0.488350 0.974825 -0.160405
H24   H     H_    0.383916 0.487716 0.014143 0.219158
C108  C     C_R   0.333283 0.566150 0.979047 -0.051051
C109  C     C_R   0.077072 0.261096 0.743158 -0.035680
H25   H     H_    0.134440 0.268263 0.736344 0.201027
C110  C     C_R   0.996700 0.185410 0.682856 -0.083171
C111  C     C_R   0.919331 0.176698 0.685017 -0.000647
C112  C     C_R   0.927121 0.240865 0.755395 -0.196311
H26   H     H_    0.868384 0.235256 0.758637 0.188737
C113  C     C_R   0.007256 0.316059 0.817188 -0.108884
C114  C     C_R   0.083849 0.328681 0.809872 0.053323
C115  C     C_R   0.799067 0.107707 0.533514 -0.135566
H27   H     H_    0.845382 0.143445 0.519126 0.187804
C116  C     C_R   0.709572 0.068249 0.475495 0.431335
C117  C     C_R   0.646583 0.034530 0.498667 -0.086544
C118  C     C_R   0.676709 0.039534 0.580613 0.008828
C119  C     C_R   0.766082 0.070454 0.633026 -0.162867
H28   H     H_    0.788691 0.075505 0.696123 0.167162
C120  C     C_R   0.828514 0.109792 0.612957 0.039083
Cl1   Cl    Cl    0.855395 0.868989 0.954932 -0.348333
C121  C     C_2   0.687122 0.788852 0.120146 0.629416
H29   H     H_    0.629998 0.789920 0.081099 0.118986
O25   O     O_2   0.747624 0.803698 0.104822 -0.412155
Cl2   Cl    Cl    0.770952 0.675884 0.148794 -0.457873
C122  C     C_2   0.258747 0.622037 0.456776 0.442801
H30   H     H_    0.219010 0.554759 0.405197 0.052797
O26   O     O_2   0.231033 0.650500 0.503489 -0.533346
Cl3   Cl    Cl    0.454884 0.702079 0.319469 -0.584872
C123  C     C_2   0.221626 0.329175 0.240831 0.405340
H31   H     H_    0.183034 0.268078 0.180341 0.125221
O27   O     O_2   0.250450 0.326884 0.307451 -0.613168
Cl4   Cl    Cl    0.680145 0.853067 0.834126 -0.421389
C124  C     C_2   0.861160 0.196274 0.037763 0.545197
H32   H     H_    0.858893 0.245300 0.086639 0.053489
O28   O     O_2   0.796934 0.123766 0.991202 -0.417934
Cl5   Cl    Cl    0.852944 0.067066 0.872208 -0.594444
C125  C     C_2   0.031898 0.131443 0.888846 0.570640
H33   H     H_    0.992737 0.061495 0.857919 0.112025
O29   O     O_2   0.075557 0.161000 0.859571 -0.487814
C126  C     C_2   0.193173 0.292658 0.043340 0.540481
H34   H     H_    0.241832 0.360164 0.073037 0.079881
O30   O     O_2   0.214657 0.237184 0.024167 -0.451547
Cl6   Cl    Cl    0.322334 0.500688 0.656648 -0.592352
C127  C     C_2   0.091006 0.255798 0.331625 0.435103
H35   H     H_    0.133423 0.229075 0.324244 0.157271
O31   O     O_2   0.011808 0.208132 0.284771 -0.520135
C128  C     C_2   0.011683 0.369013 0.312898 0.489346
H36   H     H_    0.991569 0.314065 0.252963 0.082593
O32   O     O_2   0.971558 0.409039 0.310200 -0.504384
C129  C     C_2   0.657217 0.825950 0.657874 0.514239
H37   H     H_    0.602114 0.818716 0.668621 0.094619
O33   O     O_2   0.666186 0.853500 0.609899 -0.594870
C130  C     C_2   0.343820 0.912474 0.514129 0.554223
H38   H     H_    0.377988 0.920118 0.577380 0.089820
O34   O     O_2   0.319352 0.845638 0.449915 -0.543022
Cl7   Cl    Cl    0.302376 0.919794 0.342284 -0.475511
Cl8   Cl    Cl    0.243345 0.057117 0.333156 -0.453613
C131  C     C_2   0.365379 0.429677 0.793772 0.494302
H39   H     H_    0.353366 0.479971 0.827295 0.066254
O35   O     O_2   0.310900 0.354201 0.762868 -0.551139
C132  C     C_2   0.501581 0.611066 0.874502 0.516724
H40   H     H_    0.481321 0.608589 0.921499 0.013967
O36   O     O_2   0.513098 0.672448 0.862270 -0.461779
C133  C     C_2   0.662043 0.645627 0.856550 0.567265
H41   H     H_    0.703529 0.660325 0.828668 0.040723
O37   O     O_2   0.680931 0.702738 0.925720 -0.441157
Cl9   Cl    Cl    0.734523 0.509463 0.916764 -0.534044
C134  C     C_2   0.976649 0.626157 0.758810 0.496482
H42   H     H_    0.042814 0.676179 0.784226 0.110520
O38   O     O_2   0.921525 0.648214 0.757493 -0.616310
Cl10  Cl    Cl    0.101718 0.582473 0.704654 -0.568416
Cl11  Cl    Cl    0.051200 0.384158 0.624250 -0.572700
C135  C     C_2   0.778193 0.314118 0.665756 0.448194
H43   H     H_    0.739911 0.330852 0.694007 0.081782
O39   O     O_2   0.752353 0.237357 0.621274 -0.574039
Cl12  Cl    Cl    0.913533 0.658297 0.579625 -0.588123
C136  C     C_2   0.972527 0.852069 0.867586 0.533657
H44   H     H_    0.008420 0.829463 0.839243 0.084819
O40   O     O_2   0.012758 0.907965 0.943847 -0.474326
C137  C     C_2   0.086314 0.807658 0.633151 0.636907
H45   H     H_    0.086743 0.781815 0.676374 0.106536
O41   O     O_2   0.132929 0.885469 0.664490 -0.517673
C138  C     C_2   0.143236 0.819522 0.504105 0.609813
H46   H     H_    0.158501 0.845219 0.464545 0.036443
O42   O     O_2   0.204061 0.832361 0.567078 -0.545550
Cl13  Cl    Cl    0.832465 0.572189 0.247416 -0.435287
Cl14  Cl    Cl    0.780012 0.542183 0.380463 -0.449059
C139  C     C_2   0.040947 0.618486 0.281838 0.519326
H47   H     H_    0.053354 0.577253 0.237043 0.047912
O43   O     O_2   0.052812 0.613773 0.347056 -0.524282
Cl15  Cl    Cl    0.013489 0.917379 0.243545 -0.446481
Cl16  Cl    Cl    0.215548 0.876824 0.076984 -0.445701
C140  C     C_2   0.887443 0.910673 0.659955 0.425314
H48   H     H_    0.871627 0.961555 0.682934 0.087124
O44   O     O_2   0.960571 0.922336 0.701415 -0.534241
C141  C     C_2   0.416635 0.648960 0.039527 0.462840
H49   H     H_    0.421255 0.708351 0.040748 0.124139
O45   O     O_2   0.481135 0.651871 0.088765 -0.569305
Cl17  Cl    Cl    0.248590 0.314510 0.907456 -0.493268
Cl18  Cl    Cl    0.681524 0.070691 0.378244 -0.411291
C142  C     C_2   0.593605 0.609654 0.335453 0.541142
H50   H     H_    0.599563 0.588093 0.277761 0.103642
O46   O     O_2   0.521294 0.575457 0.328055 -0.537566
C143  C     C_2   0.550905 0.994083 0.438784 0.567999
H51   H     H_    0.503479 0.945288 0.442158 0.104210
O47   O     O_2   0.523433 0.015309 0.385934 -0.409585
C144  C     C_2   0.621187 0.026162 0.621037 0.357713
H52   H     H_    0.642865 0.016529 0.676052 0.121521
O48   O     O_2   0.554292 0.031277 0.597886 -0.596134
C145  C     C_2   0.643415 0.847143 0.376790 0.494706
H53   H     H_    0.596195 0.866709 0.352765 0.131029
O49   O     O_2   0.673201 0.864864 0.452158 -0.586705
Cl19  Cl    Cl    0.607632 0.867281 0.217664 -0.528278

loop_
_geom_bond_atom_site_label_1
_geom_bond_atom_site_label_2
_geom_bond_distance
_ccdc_geom_bond_type
C47   C48   1.387450 A    
C63   H15   1.082425 S    
C141  O45   1.220536 D    
C27   H5    1.078885 S    
C68   H16   1.085585 S    
C27   C28   1.394752 A    
C113  C114  1.424441 A    
C88   Cl13  1.771167 S    
C69   C70   1.406499 A    
C99   H19   1.077299 S    
C127  H35   1.084171 S    
C132  O36   1.220971 D    
C71   C72   1.416427 A    
C1    C33   1.453216 S    
C143  H51   1.083640 S    
C57   Cl8   1.768044 S    
C26   Cl3   1.758661 S    
C116  C117  1.417166 A    
C122  H30   1.084147 S    
Zn1   O7    2.027570 S    
C127  O31   1.220416 D    
C130  H38   1.085336 S    
C134  H42   1.083687 S    
C15   C16   1.424661 A    
C110  C111  1.407305 A    
C59   C64   1.423030 A    
C44   C127  1.492869 S    
C3    C69   1.433732 S    
O4    C2    1.290717 A    
C140  O44   1.220831 D    
C6    C129  1.477354 S    
C109  C110  1.393260 A    
C85   C137  1.486040 S    
C54   C55   1.401301 A    
C32   C123  1.496113 S    
C91   C96   1.405246 A    
C100  C101  1.396634 A    
C106  C107  1.398767 A    
C19   C20   1.407601 A    
C57   C58   1.410974 A    
O7    C4    1.277704 A    
C128  O32   1.221596 D    
C81   C113  1.446376 S    
O13   C79   1.287743 A    
C66   C84   1.439288 S    
O21   C83   1.275270 A    
C5    C6    1.413325 A    
C72   C73   1.402328 A    
C144  O48   1.220524 D    
C24   C122  1.478548 S    
O12   C78   1.273017 A    
C8    C9    1.396945 A    
C123  O27   1.218635 D    
C8    H1    1.081188 S    
C61   C70   1.484937 S    
C140  H48   1.085089 S    
C97   C102  1.402006 A    
C109  C114  1.387977 A    
O5    C3    1.277541 A    
C117  C118  1.421681 A    
C74   H17   1.078848 S    
O19   Zn5   2.028404 S    
C91   C139  1.505416 S    
O10   Zn4   2.016445 S    
C67   C76   1.487045 S    
C117  C143  1.489456 S    
C72   Cl10  1.769273 S    
C14   C142  1.493994 S    
C61   C62   1.396516 A    
Zn4   O14   2.027276 S    
C60   C61   1.414233 A    
C36   C37   1.415075 A    
C29   C30   1.380508 A    
C85   C86   1.422631 A    
C9    C136  1.479044 S    
C7    C8    1.400912 A    
C138  O42   1.220751 D    
C12   C13   1.412296 A    
C115  C120  1.401753 A    
C119  H28   1.085079 S    
C50   H11   1.085586 S    
C111  C120  1.488389 S    
C90   Cl12  1.766136 S    
C18   C19   1.411794 A    
H3    C28   1.077024 S    
Zn3   O15   2.030889 S    
C103  C104  1.396000 A    
Zn2   O8    2.022651 S    
C93   C102  1.478346 S    
Zn5   O23   2.017392 S    
C39   C126  1.483110 S    
C60   C133  1.490405 S    
C56   Cl7   1.766794 S    
C38   C125  1.486580 S    
C87   C96   1.500743 S    
C101  H21   1.081730 S    
C17   C22   1.422975 A    
C126  H34   1.085387 S    
C68   C69   1.389019 A    
O1    Zn1   2.028299 S    
C145  H53   1.082490 S    
C75   C135  1.489095 S    
C94   Cl15  1.779977 S    
O11   C78   1.287037 A    
C111  C112  1.385020 A    
C42   C43   1.410232 A    
O3    Zn1   2.022648 S    
C83   C92   1.440339 S    
C118  C144  1.481523 S    
C135  O39   1.217143 D    
C132  H40   1.083243 S    
C121  O25   1.220454 D    
C77   C95   1.440244 S    
O17   C81   1.274206 A    
C54   H13   1.083514 S    
C139  O43   1.220172 D    
C137  H45   1.084729 S    
Zn4   O16   2.019601 S    
C24   C25   1.417109 A    
C12   C78   1.437430 S    
O2    Zn2   2.017262 S    
C41   C42   1.390786 A    
C95   C96   1.425769 A    
C53   H12   1.083205 S    
C62   C63   1.387547 A    
C35   H7    1.082306 S    
C7    C16   1.502820 S    
C31   C32   1.408277 A    
C88   C89   1.400764 A    
C49   C58   1.481950 S    
C13   C14   1.396584 A    
C133  H41   1.085245 S    
C112  C113  1.391239 A    
C136  H44   1.085488 S    
C144  H52   1.085873 S    
C112  H26   1.084874 S    
C128  H36   1.079841 S    
C48   C49   1.409685 A    
O16   C80   1.289295 A    
C14   C15   1.419862 A    
C62   H14   1.083822 S    
C47   C52   1.384482 A    
C45   C128  1.487535 S    
C13   C22   1.498367 S    
C44   C45   1.423824 A    
C21   H2    1.074007 S    
Zn2   O6    2.028302 S    
C123  H31   1.082441 S    
C35   C36   1.398033 A    
C104  H23   1.080059 S    
C105  C106  1.414603 A    
C30   C31   1.417976 A    
C11   C140  1.489137 S    
C43   C44   1.428824 A    
Zn6   O22   2.024469 S    
C48   C80   1.436087 S    
C31   C40   1.499262 S    
C43   C52   1.488658 S    
C115  C116  1.396917 A    
H8    C46   1.083258 S    
C73   C74   1.390442 A    
C10   Cl1   1.768807 S    
C139  H47   1.082604 S    
C25   C34   1.476333 S    
C38   C39   1.424478 A    
C74   C75   1.400512 A    
C129  H37   1.082393 S    
C89   Cl14  1.767871 S    
C137  O41   1.221148 D    
C41   H9    1.082920 S    
O17   Zn5   2.024683 S    
C93   C94   1.380972 A    
O18   C81   1.297913 A    
C65   C70   1.394771 A    
C67   C68   1.382321 A    
C115  H27   1.081428 S    
C103  H22   1.083278 S    
C71   C76   1.425503 A    
C53   C54   1.392330 A    
C35   C40   1.397711 A    
O18   Zn6   2.019671 S    
C125  O29   1.219609 D    
C26   C27   1.393605 A    
C134  O38   1.219349 D    
O8    C4    1.289825 A    
C59   C60   1.427337 A    
C106  Cl17  1.756484 S    
C11   C16   1.394828 A    
C145  O49   1.219364 D    
C86   C87   1.419039 A    
O11   Zn3   2.019509 S    
C30   C82   1.432660 S    
O3    C2    1.273887 A    
C39   C40   1.412402 A    
C53   C58   1.399614 A    
C141  H49   1.085456 S    
O23   C84   1.280403 A    
C55   C130  1.480925 S    
C107  C108  1.402260 A    
C66   C67   1.411719 A    
C121  H29   1.084804 S    
Zn5   O21   2.019458 S    
C98   C99   1.394173 A    
C29   C34   1.373513 A    
Zn1   O5    2.017264 S    
C142  H50   1.084862 S    
C5    Cl4   1.769558 S    
C37   C38   1.415930 A    
C17   C18   1.417482 A    
C37   Cl5   1.774267 S    
C71   C134  1.489043 S    
C55   C56   1.415202 A    
C18   Cl19  1.772356 S    
C4    C51   1.440713 S    
C65   Cl9   1.776573 S    
C20   C21   1.395128 A    
C105  C114  1.493902 S    
C29   H6    1.086806 S    
C130  O34   1.220114 D    
C125  H33   1.084682 S    
O6    C3    1.283110 A    
C97   C98   1.393250 A    
C103  C108  1.399161 A    
O4    Zn2   2.027566 S    
C73   Cl11  1.762635 S    
C92   C93   1.410963 A    
C133  O37   1.218942 D    
C86   C138  1.491630 S    
C116  Cl18  1.761556 S    
O9    C77   1.277114 A    
C131  O35   1.221503 D    
C99   C100  1.399463 A    
O10   C77   1.288406 A    
C87   C88   1.413823 A    
C122  O26   1.221156 D    
O12   Zn4   2.030632 S    
C98   Cl16  1.753644 S    
C97   H18   1.078294 S    
C107  H24   1.083330 S    
O14   C79   1.272720 A    
O20   Zn6   2.017390 S    
C23   C24   1.400698 A    
O2    C1    1.288270 A    
C85   C90   1.410740 A    
O22   C83   1.287508 A    
C118  C119  1.401467 A    
C143  O47   1.220360 D    
C94   C95   1.403833 A    
C124  H32   1.085981 S    
O9    Zn3   2.027314 S    
C65   C66   1.407073 A    
C2    C15   1.442819 S    
C51   C52   1.416190 A    
C32   C33   1.420261 A    
C138  H46   1.083437 S    
C45   C46   1.402003 A    
C104  C105  1.406095 A    
C135  H43   1.082739 S    
C129  O33   1.219531 D    
C136  O40   1.220617 D    
C47   H10   1.086579 S    
O15   C80   1.274457 A    
C20   Cl2   1.762858 S    
C101  C102  1.401240 A    
C42   Cl6   1.753477 S    
C75   C76   1.415968 A    
C79   C110  1.428342 S    
C36   C124  1.487003 S    
Zn3   O13   2.016573 S    
O19   C82   1.293616 A    
C109  H25   1.085178 S    
C131  H39   1.082222 S    
C91   C92   1.409490 A    
C64   C131  1.489633 S    
C56   C57   1.409968 A    
C25   C26   1.406122 A    
Zn6   O24   2.028532 S    
C5    C10   1.405770 A    
C17   C145  1.490079 S    
C59   C132  1.483833 S    
C9    C10   1.408844 A    
C23   H4    1.083203 S    
C33   C34   1.411970 A    
C142  O46   1.219478 D    
C126  O30   1.221080 D    
C63   C64   1.402322 A    
C19   C121  1.483293 S    
C11   C12   1.399522 A    
C89   C90   1.400491 A    
C23   C28   1.387948 A    
C50   C51   1.396866 A    
C49   C50   1.387217 A    
O1    C1    1.280355 A    
O20   C82   1.271491 A    
C100  H20   1.081543 S    
C41   C46   1.388592 A    
C108  C141  1.475762 S    
C6    C7    1.419775 A    
C21   C22   1.395276 A    
C119  C120  1.400090 A    
O24   C84   1.284489 A    
C124  O28   1.219892 D    
