data_mof_unit_37297.cif
_audit_creation_date              2012-12-10T17:10:15-0500
_audit_creation_method            fapswitch 2.2
_symmetry_space_group_name_H-M    P1
_symmetry_Int_Tables_number       1
_space_group_crystal_system       triclinic
_cell_length_a                    15.734004
_cell_length_b                    10.740168
_cell_length_c                    10.115458
_cell_angle_alpha                 89.305569
_cell_angle_beta                  89.995985
_cell_angle_gamma                 91.246782
_cell_volume                      1708.83892405

loop_
_atom_site_label
_atom_site_type_symbol
_atom_type_description
_atom_site_fract_x
_atom_site_fract_y
_atom_site_fract_z
_atom_type_partial_charge
C1    C     C_R   0.494972 0.262979 0.500699 0.823619
C2    C     C_2   0.506744 0.869495 0.493557 -0.327765
C3    C     C_2   0.497229 0.068594 0.392855 -0.394019
C4    C     C_R   0.338242 0.499951 0.499977 0.874996
C5    C     C_2   0.475737 0.131744 0.500411 0.257382
C6    C     C_2   0.545704 0.578636 0.925186 0.494379
C7    C     C_2   0.534217 0.590022 0.074710 0.647271
C8    C     C_R   0.500116 0.737196 0.498670 0.906210
C9    C     C_R   0.661729 0.500161 0.499992 0.874413
C10   C     C_3   0.972023 0.484720 0.621882 0.436370
C11   C     C_3   0.027050 0.389752 0.549116 -0.342220
C12   C     C_3   0.083498 0.501403 0.501165 -0.025034
C13   C     C_1   0.249434 0.500617 0.500035 -0.162912
C14   C     C_1   0.750503 0.500537 0.499789 -0.146808
C15   C     C_3   0.029746 0.595940 0.578316 -0.384758
C16   C     C_3   0.404587 0.345165 0.870792 0.289963
C17   C     C_3   0.331600 0.295780 0.956835 -0.893384
C18   C     C_3   0.649993 0.704107 0.146608 0.142565
C19   C     C_3   0.676719 0.793356 0.255564 -0.765961
C20   C     C_3   0.005559 0.811097 0.383060 0.118721
C21   C     C_3   0.969449 0.925673 0.315537 -0.781153
C22   C     C_3   0.411546 0.957236 0.183319 0.109179
C23   C     C_3   0.974272 0.610239 0.452504 0.347574
C24   C     C_3   0.365870 0.881598 0.077708 -0.730648
C25   C     C_3   0.916458 0.501249 0.499039 0.007916
C26   C     C_3   0.028424 0.517812 0.377165 0.341126
C27   C     C_3   0.971520 0.409346 0.424844 0.322855
C28   C     C_1   0.174225 0.501170 0.500383 0.065204
C29   C     C_1   0.825697 0.500831 0.499411 0.133223
C30   C     C_2   0.482069 0.935019 0.386785 0.564831
H1    H     H_    0.049746 0.299836 0.589485 0.174859
H2    H     H_    0.316229 0.197633 0.930977 0.202533
H3    H     H_    0.348853 0.299398 0.063014 0.264783
H4    H     H_    0.678870 0.741235 0.053857 0.202686
H5    H     H_    0.677327 0.611327 0.169482 0.142810
H6    H     H_    0.657574 0.755296 0.353637 0.237607
H7    H     H_    0.746960 0.806294 0.255025 0.221846
H8    H     H_    0.647193 0.885303 0.239465 0.256186
H9    H     H_    0.483968 0.328981 0.161132 0.367962
H10   H     H_    0.989348 0.459738 0.807626 0.342919
H11   H     H_    0.989166 0.269510 0.313114 0.346591
H12   H     H_    0.055160 0.670488 0.643314 0.173471
H13   H     H_    0.010003 0.544247 0.191900 0.353979
H14   H     H_    0.057797 0.776084 0.320219 0.176248
H15   H     H_    0.031660 0.839600 0.480620 0.145689
H16   H     H_    0.917852 0.964113 0.376775 0.269461
H17   H     H_    0.020325 0.998068 0.302382 0.205490
H18   H     H_    0.943466 0.900673 0.217035 0.258338
H19   H     H_    0.461282 0.016169 0.133540 0.147181
H20   H     H_    0.364035 0.016919 0.232098 0.138331
H21   H     H_    0.315646 0.821097 0.123742 0.254324
H22   H     H_    0.335999 0.945229 0.004818 0.195341
H23   H     H_    0.535318 0.914186 0.579167 0.168449
H24   H     H_    0.411749 0.822411 0.025336 0.274109
H25   H     H_    0.528785 0.113854 0.309019 0.141383
H26   H     H_    0.414119 0.137650 0.667842 0.325221
H27   H     H_    0.606422 0.646841 0.772751 0.384430
H28   H     H_    0.459975 0.283362 0.884353 0.152306
H29   H     H_    0.382424 0.339471 0.767869 0.161481
H30   H     H_    0.274343 0.352590 0.940118 0.271149
N1    N     N_2   0.500900 0.501330 0.852150 0.010502
N2    N     N_2   0.500930 0.501360 0.147810 0.013635
O1    O     O_R   0.499990 0.319060 0.613040 -0.657267
O2    O     O_3   0.606173 0.657441 0.868770 -0.835233
O3    O     O_3   0.424569 0.469256 0.905637 -0.544509
O4    O     O_3   0.560141 0.699521 0.135668 -0.596696
O5    O     O_3   0.511833 0.387442 0.098300 -0.745166
O6    O     O_3   0.939083 0.467196 0.749239 -0.725352
O7    O     O_3   0.938902 0.314685 0.344558 -0.737898
O8    O     O_3   0.060559 0.533859 0.249099 -0.754533
O9    O     O_3   0.940123 0.720506 0.399565 -0.603732
O10   O     O_3   0.448897 0.874952 0.275357 -0.555965
O11   O     O_R   0.500010 0.319100 0.386900 -0.646346
O12   O     O_R   0.376760 0.499970 0.613050 -0.615048
O13   O     O_R   0.376790 0.500010 0.386910 -0.597143
O14   O     O_R   0.499990 0.680900 0.613100 -0.634286
O15   O     O_R   0.500010 0.680940 0.386960 -0.517946
O16   O     O_R   0.623210 0.499990 0.613090 -0.629849
O17   O     O_R   0.623240 0.500030 0.386950 -0.611878
O18   O     O_3   0.429689 0.074551 0.602101 -0.780328
Zn1   Zn    Zn3+2 0.499980 0.499970 0.650990 0.980824
Zn2   Zn    Zn3+2 0.500020 0.500030 0.349010 1.023918

loop_
_geom_bond_atom_site_label_1
_geom_bond_atom_site_label_2
_ccdc_geom_bond_type
C24   H22   S    
C26   C27   S    
N2    O5    S    
O1    Zn1   S    
C1    C5    S    
C6    N1    D    
C10   C15   S    
C24   H24   S    
C8    O14   A    
C18   C19   S    
C9    O17   A    
C23   C26   S    
C6    O2    S    
C4    C13   S    
C4    O13   A    
C19   H7    S    
C3    H25   S    
C16   C17   S    
C13   C28   T    
C18   H5    S    
C4    O12   A    
C20   H15   S    
C27   O7    S    
C22   H20   S    
C21   H18   S    
C24   H21   S    
C15   C23   S    
N2    Zn2   S    
C11   H1    S    
C17   H3    S    
C1    O1    A    
C22   O10   S    
C20   H14   S    
C25   C29   S    
C23   O9    S    
C19   H6    S    
C12   C26   S    
C16   H29   S    
C3    C30   S    
C9    C14   S    
C7    N2    D    
C19   H8    S    
C12   C15   S    
C11   C27   S    
C20   O9    S    
C16   H28   S    
C5    O18   S    
C18   H4    S    
C22   H19   S    
C10   C25   S    
C12   C28   S    
H13   O8    S    
C8    O15   A    
C26   O8    S    
C22   C24   S    
C25   C27   S    
O12   Zn1   S    
O11   Zn2   S    
H27   O2    S    
H11   O7    S    
C21   H16   S    
H9    O5    S    
C2    C8    S    
C15   H12   S    
C3    C5    D    
C2    H23   S    
O14   Zn1   S    
O17   Zn2   S    
C30   O10   S    
C11   C12   S    
O13   Zn2   S    
C6    C7    S    
C10   O6    S    
C18   O4    S    
H26   O18   S    
C2    C30   D    
C1    O11   A    
N1    Zn1   S    
C7    O4    S    
O16   Zn1   S    
O15   Zn2   S    
C9    O16   A    
C23   C25   S    
C10   C11   S    
C17   H30   S    
N1    O3    S    
C20   C21   S    
H10   O6    S    
C17   H2    S    
C16   O3    S    
C14   C29   T    
C21   H17   S    
