data_mof_unit_63248.cif
_audit_creation_date              2012-12-10T20:59:27-0500
_audit_creation_method            fapswitch 2.2
_symmetry_space_group_name_H-M    P1
_symmetry_Int_Tables_number       1
_space_group_crystal_system       triclinic
_cell_length_a                    22.228064
_cell_length_b                    22.279269
_cell_length_c                    22.259215
_cell_angle_alpha                 110.100312
_cell_angle_beta                  108.330502
_cell_angle_gamma                 110.076915
_cell_volume                      8473.90519867

loop_
_atom_site_label
_atom_site_type_symbol
_atom_type_description
_atom_site_fract_x
_atom_site_fract_y
_atom_site_fract_z
_atom_type_partial_charge
C1    C     C_R   0.900420 0.500035 0.599557 0.823592
C2    C     C_1   0.139427 0.778577 0.639237 -0.101582
C3    C     C_3   0.256249 0.577116 0.299271 -0.556745
C4    C     C_R   0.099605 0.500038 0.400393 0.821857
C5    C     C_3   0.157884 0.446925 0.200242 0.069589
C6    C     C_3   0.201806 0.445428 0.157995 -0.415531
C7    C     C_1   0.360432 0.499549 0.138910 -0.147916
C8    C     C_3   0.211619 0.497813 0.284652 0.146827
C9    C     C_3   0.299367 0.577321 0.256373 -0.390578
C10   C     C_3   0.285341 0.498362 0.212002 0.213993
C11   C     C_3   0.309363 0.471376 0.265906 -0.436368
C12   C     C_1   0.360527 0.221418 0.860664 -0.117339
C13   C     C_3   0.267148 0.472334 0.309696 0.533321
C14   C     C_1   0.326625 0.498985 0.171817 -0.078597
C15   C     C_1   0.171668 0.499038 0.326315 -0.014133
C16   C     C_R   0.140547 0.499360 0.639469 0.807429
C17   C     C_1   0.139047 0.499831 0.360457 -0.098526
C18   C     C_R   0.984091 0.518010 0.243888 -0.119766
C19   C     C_R   0.931296 0.529407 0.259181 -0.216984
C20   C     C_R   0.857155 0.472609 0.217329 -0.014986
C21   C     C_R   0.836537 0.404587 0.159334 0.671715
C22   C     C_R   0.889648 0.393574 0.144299 -0.173379
C23   C     C_3   0.213324 0.926902 0.713074 0.197141
C24   C     C_R   0.963264 0.450149 0.186551 -0.178327
C25   C     C_R   0.745278 0.482286 0.181600 -0.153263
C26   C     C_R   0.694024 0.497906 0.196538 -0.073123
C27   C     C_R   0.697830 0.514774 0.265431 0.000904
C28   C     C_R   0.860530 0.500745 0.359644 0.801955
C29   C     C_R   0.754267 0.517298 0.318418 -0.238297
C30   C     C_R   0.805502 0.501651 0.303444 -0.055177
C31   C     C_R   0.801529 0.484580 0.234501 0.060869
C32   C     C_R   0.664289 0.594190 0.342787 -0.139046
C33   C     C_R   0.611965 0.606417 0.358446 -0.118370
C34   C     C_3   0.208068 0.042894 0.725413 -0.425076
C35   C     C_R   0.537643 0.551701 0.314754 -0.085148
C36   C     C_R   0.515517 0.484404 0.255617 -0.116553
C37   C     C_R   0.567648 0.471919 0.239746 -0.118547
C38   C     C_R   0.642425 0.527106 0.282828 0.136542
C39   C     C_3   0.801474 0.579622 0.758758 0.562435
C40   C     C_R   0.900484 0.300885 0.400390 0.815174
C41   C     C_3   0.809742 0.471557 0.766751 0.552628
C42   C     C_3   0.767280 0.472523 0.810379 -0.412713
C43   C     C_1   0.639273 0.499942 0.860782 -0.106972
C44   C     C_3   0.787037 0.500342 0.713908 -0.002091
C45   C     C_3   0.286339 0.073116 0.786335 0.236057
C46   C     C_3   0.758909 0.579355 0.802294 -0.555338
C47   C     C_3   0.713465 0.499869 0.786641 0.038692
C48   C     C_3   0.659824 0.448604 0.702719 0.515502
C49   C     C_3   0.703253 0.448645 0.660011 -0.684134
C50   C     C_1   0.672664 0.499915 0.827409 0.034379
C51   C     C_1   0.827595 0.500237 0.672872 0.059921
C52   C     C_R   0.099628 0.699193 0.599607 0.828177
C53   C     C_1   0.860832 0.500146 0.639346 -0.092201
C54   C     C_3   0.821282 0.042732 0.329383 1.219003
C55   C     C_3   0.787414 0.044017 0.209214 0.466261
C56   C     C_3   0.279232 0.043038 0.838552 -0.392872
C57   C     C_3   0.746285 0.956265 0.166777 0.652625
C58   C     C_1   0.639110 0.778403 0.139055 -0.093993
C59   C     C_3   0.786315 0.073225 0.283678 -0.331486
C60   C     C_3   0.776753 0.956778 0.286601 -0.585337
C61   C     C_3   0.712828 0.926713 0.210034 -0.246579
C62   C     C_3   0.661803 0.956893 0.223127 0.312408
C63   C     C_3   0.704777 0.042890 0.266155 0.265125
C64   C     C_3   0.164815 0.956793 0.682465 0.516480
C65   C     C_1   0.672305 0.845104 0.171344 0.170523
C66   C     C_1   0.827387 0.154904 0.326253 0.246403
C67   C     C_3   0.236371 0.957036 0.795490 -0.499404
C68   C     C_1   0.860847 0.221606 0.360479 -0.051648
C69   C     C_R   0.290334 0.537053 0.546757 -0.128830
C70   C     C_R   0.266367 0.508684 0.587265 -0.144095
C71   C     C_R   0.294428 0.555543 0.662441 0.131058
C72   C     C_R   0.347400 0.630586 0.696645 -0.168553
C73   C     C_R   0.371247 0.658678 0.656082 -0.139988
C74   C     C_R   0.342746 0.612064 0.581196 0.221728
C75   C     C_R   0.321738 0.527370 0.761749 -0.241320
C76   C     C_3   0.283871 0.957252 0.706918 -0.348990
C77   C     C_R   0.303195 0.502021 0.806293 -0.018852
C78   C     C_1   0.327108 0.154658 0.827216 -0.071370
C79   C     C_R   0.231289 0.476824 0.796615 0.059487
C80   C     C_R   0.178712 0.474175 0.739838 -0.217784
C81   C     C_R   0.197165 0.499192 0.694887 -0.060998
C82   C     C_R   0.269841 0.526618 0.706294 0.009179
C83   C     C_R   0.156061 0.383548 0.819557 -0.216910
C84   C     C_R   0.136991 0.363525 0.866774 -0.100947
C85   C     C_R   0.171342 0.416045 0.941156 -0.188385
C86   C     C_R   0.224468 0.488859 0.968399 -0.186799
C87   C     C_R   0.243762 0.509275 0.921450 0.670931
C88   C     C_3   0.326645 0.043246 0.749781 -0.375844
C89   C     C_1   0.172756 0.845336 0.672502 -0.038063
C90   C     C_R   0.210121 0.456357 0.846647 -0.002309
C91   C     C_R   0.639327 0.499143 0.140365 0.791542
C92   C     C_R   0.359540 0.500915 0.860848 0.853739
C93   C     C_R   0.400329 0.499951 0.099515 0.833170
C94   C     C_R   0.599571 0.499967 0.900458 0.818512
C95   C     C_R   0.599492 0.699118 0.099587 0.831389
C96   C     C_R   0.400354 0.300806 0.900421 0.822488
F1    F     F_    0.142058 0.930538 0.608425 -0.647695
F2    F     F_    0.700811 0.068763 0.330256 -0.586175
F3    F     F_    0.822206 0.069031 0.396124 -0.597400
F4    F     F_    0.601437 0.930548 0.157409 -0.629019
F5    F     F_    0.295183 0.580366 0.948798 -0.674017
F6    F     F_    0.232044 0.403008 0.301573 -0.621167
F7    F     F_    0.765447 0.348636 0.118365 -0.651733
F8    F     F_    0.876003 0.629028 0.806672 -0.579833
F9    F     F_    0.884806 0.514269 0.815015 -0.590942
F10   F     F_    0.617291 0.376864 0.686226 -0.634689
F11   F     F_    0.893492 0.066669 0.344468 -0.571457
F12   F     F_    0.859964 0.071050 0.224451 -0.512183
F13   F     F_    0.797704 0.934918 0.164410 -0.568296
H1    H     H_    0.211752 0.063751 0.687123 0.220198
H2    H     H_    0.307479 0.511599 0.369026 0.098869
H3    H     H_    0.369431 0.507791 0.304860 0.134836
H4    H     H_    0.295397 0.616050 0.358886 0.226647
H5    H     H_    0.359149 0.616317 0.295600 0.198437
H6    H     H_    0.299033 0.414359 0.235040 0.218899
H7    H     H_    0.004122 0.441391 0.174791 0.164898
H8    H     H_    0.041176 0.561726 0.276558 0.140909
H9    H     H_    0.948128 0.582280 0.303785 0.144493
H10   H     H_    0.873807 0.341050 0.099981 0.183564
H11   H     H_    0.319794 0.937053 0.729306 0.176668
H12   H     H_    0.114758 0.936756 0.688128 0.080866
H13   H     H_    0.743036 0.470725 0.129213 0.173279
H14   H     H_    0.756691 0.529055 0.370902 0.166385
H15   H     H_    0.721649 0.637273 0.376744 0.141508
H16   H     H_    0.629020 0.658435 0.404337 0.146399
H17   H     H_    0.497269 0.561480 0.326792 0.127102
H18   H     H_    0.457944 0.442019 0.221944 0.125787
H19   H     H_    0.549805 0.419552 0.193728 0.112794
H20   H     H_    0.798142 0.617221 0.862160 0.256868
H21   H     H_    0.796721 0.413706 0.734295 0.089513
H22   H     H_    0.269362 0.936464 0.648301 0.221457
H23   H     H_    0.177855 0.063551 0.750243 0.143159
H24   H     H_    0.806742 0.509343 0.870294 0.220498
H25   H     H_    0.736515 0.415835 0.800810 0.195200
H26   H     H_    0.684994 0.467457 0.621009 0.177575
H27   H     H_    0.690963 0.391283 0.626695 0.254418
H28   H     H_    0.621975 0.468747 0.684828 0.100010
H29   H     H_    0.782694 0.599114 0.720599 0.070649
H30   H     H_    0.721816 0.600876 0.786416 0.153773
H31   H     H_    0.813665 0.934524 0.280693 0.269826
H32   H     H_    0.332095 0.063673 0.711555 0.193848
H33   H     H_    0.678149 0.063155 0.233108 0.179040
H34   H     H_    0.334784 0.063839 0.882848 0.199640
H35   H     H_    0.640290 0.936692 0.255443 0.193488
H36   H     H_    0.754267 0.936864 0.318543 0.204589
H37   H     H_    0.383157 0.064163 0.792356 0.188957
H38   H     H_    0.268233 0.500832 0.488763 0.166543
H39   H     H_    0.225869 0.450548 0.560198 0.135564
H40   H     H_    0.369819 0.667362 0.754621 0.162930
H41   H     H_    0.411888 0.716676 0.682888 0.170465
H42   H     H_    0.376947 0.546893 0.769293 0.172570
H43   H     H_    0.123692 0.455234 0.732710 0.177858
H44   H     H_    0.129413 0.342187 0.762134 0.169580
H45   H     H_    0.282087 0.597699 0.218614 0.198478
H46   H     H_    0.095706 0.307195 0.845723 0.160678
H47   H     H_    0.186830 0.936250 0.801808 0.186743
H48   H     H_    0.156694 0.400364 0.977656 0.156066
H49   H     H_    0.250779 0.529448 0.026000 0.154669
H50   H     H_    0.271453 0.936686 0.819126 0.213668
H51   H     H_    0.250122 0.063419 0.865347 0.185639
H52   H     H_    0.218691 0.597883 0.282407 0.206031
H53   H     H_    0.123511 0.470580 0.183144 0.106184
H54   H     H_    0.183257 0.462287 0.117238 0.156828
H55   H     H_    0.190847 0.388271 0.126735 0.205219
I1    I     I_    0.079323 0.335860 0.166544 -0.227311
I2    I     I_    0.748290 0.093210 0.147766 -0.178165
I3    I     I_    0.665481 0.900096 0.051120 -0.107697
I4    I     I_    0.379676 0.655512 0.521097 -0.431345
O1    O     O_3   1.000000 0.500000 0.500000 -0.498133
O2    O     O_R   0.573110 0.542970 0.909170 -0.636701
O3    O     O_R   0.590800 0.663980 0.133850 -0.637033
O4    O     O_R   0.909130 0.543010 0.573110 -0.636260
O5    O     O_R   0.469890 0.336020 0.926900 -0.626092
O6    O     O_R   0.573080 0.663970 0.030140 -0.612380
O7    O     O_R   0.366170 0.336040 0.909160 -0.639510
O8    O     O_R   0.366140 0.457030 0.030130 -0.635936
O9    O     O_R   0.590860 0.456990 0.926900 -0.627119
O10   O     O_R   0.615780 0.542990 0.158810 -0.632767
O11   O     O_R   0.427160 0.542990 0.884210 -0.635652
O12   O     O_R   0.158790 0.542980 0.615810 -0.633467
O13   O     O_R   0.133840 0.542970 0.469880 -0.636083
O14   O     O_R   0.072820 0.457010 0.615810 -0.636885
O15   O     O_R   0.884200 0.457010 0.341200 -0.625374
O16   O     O_R   0.926910 0.336030 0.469870 -0.619362
O17   O     O_R   0.030090 0.663980 0.573120 -0.628834
O18   O     O_R   0.909180 0.336020 0.366160 -0.619554
O19   O     O_R   0.133810 0.663960 0.590860 -0.633315
O20   O     O_R   0.884180 0.543000 0.427180 -0.646680
O21   O     O_R   0.926880 0.457030 0.590850 -0.624290
O22   O     O_R   0.030150 0.456990 0.366160 -0.616404
O23   O     O_3   0.499990 0.500000 0.000010 -0.495494
O24   O     O_R   0.615810 0.457000 0.072830 -0.633897
O25   O     O_R   0.341200 0.457020 0.884200 -0.648795
O26   O     O_R   0.469840 0.543010 0.133850 -0.626881
Zn1   Zn    Zn3+2 0.104790 0.561410 0.543380 0.994377
Zn2   Zn    Zn3+2 0.981970 0.438590 0.543380 1.016948
Zn3   Zn    Zn3+2 0.956640 0.438570 0.395200 1.020674
Zn4   Zn    Zn3+2 0.956600 0.561430 0.518040 0.990504
Zn5   Zn    Zn3+2 0.395190 0.438590 0.956630 0.994438
Zn6   Zn    Zn3+2 0.543350 0.561430 0.104810 1.001061
Zn7   Zn    Zn3+2 0.518020 0.561410 0.956640 1.020895
Zn8   Zn    Zn3+2 0.543380 0.438570 0.981970 0.999777

loop_
_geom_bond_atom_site_label_1
_geom_bond_atom_site_label_2
_ccdc_geom_bond_type
C44   C49   S    
C25   C31   A    
C66   C68   T    
C77   C92   S    
C8    C13   S    
C96   O7    A    
C55   C59   S    
C73   H41   S    
C27   C29   A    
C41   C42   S    
C32   H15   S    
C35   C36   A    
C23   C76   S    
C6    H54   S    
C46   H20   S    
C74   I4    S    
C81   C82   A    
C39   F8    S    
O1    Zn1   S    
C54   C60   S    
C85   C86   A    
C26   C27   A    
O15   Zn3   S    
C41   F9    S    
C54   F11   S    
C60   C61   S    
C42   H24   S    
C18   C24   A    
C9    H5    S    
C36   C37   A    
C37   C38   A    
O23   Zn5   S    
C63   F2    S    
C28   O20   A    
C59   C66   S    
C5    C6    S    
C84   H46   S    
C16   O14   A    
C40   O18   A    
C27   C38   S    
C64   H12   S    
C91   O10   A    
C43   C94   S    
C80   H43   S    
C18   C19   A    
C73   C74   A    
C23   C67   S    
C1    C53   S    
O2    Zn7   S    
C93   O26   A    
C87   F5    S    
C56   H34   S    
C7    C14   T    
C48   F10   S    
C19   C20   A    
C45   C56   S    
C75   H42   S    
C79   C90   S    
C12   C78   T    
C76   H22   S    
C23   C89   S    
O18   Zn3   S    
O4    Zn4   S    
C70   C71   A    
O23   Zn8   S    
C32   C38   A    
C4    O13   A    
C47   C50   S    
C11   H6    S    
C25   H13   S    
C76   C88   S    
C71   C82   S    
C49   H26   S    
C39   H29   S    
C34   H23   S    
C21   C22   A    
C69   C70   A    
C85   H48   S    
C33   H16   S    
O1    Zn2   S    
C54   C59   S    
C77   C79   A    
C22   H10   S    
C7    C93   S    
C57   F13   S    
C96   O5    A    
C40   C68   S    
O11   Zn7   S    
C45   C88   S    
C84   C85   A    
C19   H9    S    
C3    C8    S    
C3    H4    S    
C86   C87   A    
C72   C73   A    
C25   C26   A    
O25   Zn5   S    
O6    Zn7   S    
C35   H17   S    
O5    Zn8   S    
C51   C53   T    
C94   O9    A    
C57   I3    S    
C2    C89   T    
C58   C95   S    
C29   C30   A    
C3    C9    S    
C92   O11   A    
C4    O22   A    
C86   H49   S    
C58   C65   T    
C47   C48   S    
O20   Zn4   S    
C30   C31   A    
C62   C63   S    
C34   C64   S    
C69   C74   A    
C43   C50   T    
C34   C45   S    
C76   H11   S    
O23   Zn6   S    
C57   C61   S    
C75   C77   A    
C18   H8    S    
O7    Zn5   S    
C45   C78   S    
O12   Zn1   S    
C2    C52   S    
C60   H31   S    
C39   C46   S    
C62   F4    S    
C4    C17   S    
C48   H28   S    
C44   C51   S    
C64   F1    S    
C52   O19   A    
C49   H27   S    
C6    H55   S    
C9    H45   S    
C92   O25   A    
C8    C15   S    
C5    I1    S    
C55   C57   S    
C10   C14   S    
O17   Zn4   S    
C41   C44   S    
O26   Zn6   S    
C54   F3    S    
C83   C84   A    
C36   H18   S    
O14   Zn2   S    
C60   H36   S    
O8    Zn5   S    
C88   H32   S    
C46   H30   S    
O1    Zn3   S    
C9    C10   S    
C15   C17   T    
C83   C90   A    
O10   Zn6   S    
C46   C47   S    
C48   C49   S    
O24   Zn8   S    
C93   O8    A    
O19   Zn1   S    
C11   H3    S    
C28   O15   A    
C12   C96   S    
O3    Zn6   S    
C62   H35   S    
C80   C81   A    
C6    C10   S    
C5    C8    S    
C75   C82   A    
C24   H7    S    
C39   C44   S    
C83   H44   S    
C56   C67   S    
C91   O24   A    
C1    O4    A    
C59   C63   S    
C55   I2    S    
C55   F12   S    
C42   H25   S    
C5    H53   S    
C37   H19   S    
C28   C30   S    
C26   C91   S    
C23   C64   S    
C71   C72   A    
C56   H51   S    
O16   Zn2   S    
C32   C33   A    
C11   C13   S    
O21   Zn2   S    
C41   H21   S    
C69   H38   S    
C29   H14   S    
C95   O6    A    
C16   C81   S    
C33   C35   A    
C63   H33   S    
C22   C24   A    
C42   C47   S    
C61   C62   S    
O13   Zn1   S    
C10   C11   S    
C3    H52   S    
C79   C80   A    
C21   F7    S    
C61   C65   S    
C70   H39   S    
C20   C21   A    
C13   H2    S    
C72   H40   S    
C52   O17   A    
C87   C90   A    
C88   H37   S    
O9    Zn8   S    
C67   H47   S    
C67   H50   S    
O23   Zn7   S    
C34   H1    S    
C13   F6    S    
C95   O3    A    
C94   O2    A    
C16   O12   A    
O22   Zn3   S    
O1    Zn4   S    
C40   O16   A    
C20   C31   S    
C1    O21   A    
