data_mof_unit_6083.cif
_audit_creation_date              2012-10-26T20:02:28-0400
_audit_creation_method            fapswitch 2.2
_symmetry_space_group_name_H-M    P1
_symmetry_Int_Tables_number       1
_space_group_crystal_system       triclinic
_cell_length_a                    19.825591
_cell_length_b                    18.678013
_cell_length_c                    12.339931
_cell_angle_alpha                 89.592125
_cell_angle_beta                  129.258273
_cell_angle_gamma                 91.809392
_cell_volume                      3535.92416501

loop_
_atom_site_label
_atom_site_type_symbol
_atom_type_description
_atom_site_fract_x
_atom_site_fract_y
_atom_site_fract_z
_atom_type_partial_charge
C1    C     C_R   0.612091 0.899724 0.655244 0.553955
C2    C     C_R   0.682180 0.739116 0.057523 0.010207
C3    C     C_R   0.152881 0.775764 0.016922 0.009132
C4    C     C_R   0.182325 0.239249 0.057797 0.010271
C5    C     C_R   0.582790 0.230561 0.910849 0.138045
C6    C     C_R   0.605093 0.768215 0.943498 0.139725
C7    C     C_R   0.082808 0.730567 0.910882 0.138010
C8    C     C_R   0.105235 0.268352 0.943791 0.139647
C9    C     C_R   0.578897 0.206919 0.800996 -0.099245
C10   C     C_R   0.603780 0.805600 0.845202 -0.090514
C11   C     C_R   0.078907 0.706909 0.801030 -0.099198
C12   C     C_R   0.605858 0.105766 0.645031 0.531403
C13   C     C_R   0.103899 0.305713 0.845455 -0.090582
C14   C     C_R   0.279834 0.849487 0.100891 -0.142720
C15   C     C_R   0.321554 0.189694 0.156961 -0.155443
C16   C     C_R   0.779804 0.349498 0.100874 -0.142877
C17   C     C_R   0.821443 0.689596 0.156765 -0.155427
C18   C     C_R   0.246893 0.823802 0.254777 0.227759
C19   C     C_R   0.242406 0.152875 0.238556 0.249147
C20   C     C_R   0.746912 0.323776 0.254808 0.227882
C21   C     C_R   0.742333 0.652837 0.238471 0.249218
C22   C     C_R   0.655283 0.175164 0.711891 -0.010453
C23   C     C_R   0.112100 0.399732 0.655261 0.553996
C24   C     C_R   0.673244 0.841813 0.741989 -0.000030
C25   C     C_R   0.155266 0.675172 0.711866 -0.010453
C26   C     C_R   0.173275 0.341842 0.742057 -0.000029
C27   C     C_R   0.679250 0.009795 0.285561 -0.104299
C28   C     C_R   0.179250 0.509794 0.285565 -0.104136
C29   C     C_R   0.348565 0.986602 0.629849 0.132686
C30   C     C_R   0.848580 0.486509 0.629865 0.132934
C31   C     C_R   0.318057 0.972808 0.703182 -0.083639
C32   C     C_R   0.818084 0.472693 0.703208 -0.083662
C33   C     C_R   0.384887 0.097184 0.341053 0.586861
C34   C     C_R   0.105853 0.605768 0.645024 0.531413
C35   C     C_R   0.382823 0.901873 0.340046 0.618840
C36   C     C_R   0.884866 0.597171 0.341025 0.586759
C37   C     C_R   0.882816 0.401878 0.340038 0.618839
C38   C     C_R   0.376055 0.973470 0.848651 -0.100055
C39   C     C_R   0.876078 0.473402 0.848673 -0.100059
C40   C     C_R   0.465418 0.988855 0.922760 0.039595
C41   C     C_R   0.965427 0.488839 0.922768 0.039536
C42   C     C_R   0.494142 0.997828 0.842531 0.175977
C43   C     C_R   0.994145 0.497839 0.842534 0.175910
C44   C     C_R   0.527312 0.994900 0.072726 0.037540
C45   C     C_R   0.217616 0.797372 0.005159 -0.027999
C46   C     C_R   0.027318 0.494892 0.072731 0.037562
C47   C     C_R   0.617167 0.003786 0.139419 0.061555
C48   C     C_R   0.117169 0.503787 0.139423 0.061704
C49   C     C_R   0.644595 0.005916 0.059987 -0.128381
C50   C     C_R   0.144597 0.505929 0.059991 -0.128457
C51   C     C_R   0.584486 0.002958 0.914995 -0.084938
C52   C     C_R   0.084489 0.502979 0.914999 -0.085059
C53   C     C_R   0.504094 0.994418 0.160185 0.084027
C54   C     C_R   0.004097 0.494411 0.160186 0.083990
C55   C     C_R   0.652242 0.007457 0.365567 0.060703
C56   C     C_R   0.249278 0.228474 0.049718 -0.026487
C57   C     C_R   0.152242 0.507456 0.365569 0.060692
C58   C     C_R   0.663166 0.299605 0.136171 0.268282
C59   C     C_R   0.687922 0.709451 0.167425 0.269323
C60   C     C_R   0.163150 0.799653 0.136118 0.268350
C61   C     C_R   0.188064 0.209537 0.167666 0.269406
C62   C     C_R   0.304581 0.855238 0.234616 -0.020767
C63   C     C_R   0.315718 0.147078 0.245018 -0.037626
C64   C     C_R   0.804570 0.355242 0.234610 -0.020751
C65   C     C_R   0.815648 0.647028 0.244918 -0.037668
C66   C     C_R   0.711768 0.200286 0.687624 -0.093670
C67   C     C_R   0.717603 0.297366 0.005164 -0.028008
C68   C     C_R   0.731282 0.821417 0.719702 -0.125809
C69   C     C_R   0.211723 0.700307 0.687550 -0.093679
C70   C     C_R   0.231284 0.321416 0.719727 -0.125796
C71   C     C_R   0.272446 0.754973 0.770429 -0.062846
C72   C     C_R   0.281924 0.261933 0.786004 -0.063708
C73   C     C_R   0.772500 0.254943 0.770531 -0.062878
C74   C     C_R   0.781909 0.761922 0.785936 -0.063712
C75   C     C_R   0.283729 0.780719 0.886900 0.084763
C76   C     C_R   0.284107 0.227227 0.888553 0.124912
C77   C     C_R   0.783755 0.280697 0.886976 0.084744
C78   C     C_R   0.749155 0.728355 0.049489 -0.026485
C79   C     C_R   0.784047 0.727172 0.888408 0.124918
C80   C     C_R   0.717410 0.266972 0.898643 0.049558
C81   C     C_R   0.740408 0.755722 0.933508 0.046411
C82   C     C_R   0.217406 0.766980 0.898618 0.049545
C83   C     C_R   0.240503 0.255812 0.933693 0.046382
C84   C     C_R   0.649576 0.216400 0.802436 -0.017109
C85   C     C_R   0.674254 0.804929 0.844328 -0.012754
C86   C     C_R   0.149571 0.716402 0.802429 -0.017106
C87   C     C_R   0.174339 0.305009 0.844496 -0.012732
C88   C     C_R   0.652874 0.275743 0.016934 0.009108
Cu1   Cu    Cu3+1 0.526340 0.000000 0.421010 1.013106
Cu2   Cu    Cu3+1 0.026340 0.500000 0.421010 1.012975
Cu3   Cu    Cu3+1 0.473640 0.000000 0.578990 1.001374
Cu4   Cu    Cu3+1 0.973640 0.500000 0.578990 1.001579
H1    H     H_    0.713423 0.010776 0.110393 0.133805
H2    H     H_    0.849401 0.461321 0.900646 0.134463
H3    H     H_    0.249497 0.960422 0.647096 0.172882
H4    H     H_    0.749536 0.460250 0.647131 0.172813
H5    H     H_    0.612216 0.003975 0.864322 0.188205
H6    H     H_    0.112220 0.503992 0.864329 0.188197
H7    H     H_    0.309359 0.885628 0.072384 0.163117
H8    H     H_    0.379451 0.188608 0.165879 0.197315
H9    H     H_    0.809321 0.385640 0.072352 0.163067
H10   H     H_    0.879340 0.688514 0.165680 0.197309
H11   H     H_    0.712706 0.175139 0.609792 0.190377
H12   H     H_    0.213424 0.510792 0.110397 0.133777
H13   H     H_    0.731916 0.847205 0.641447 0.175602
H14   H     H_    0.212646 0.675165 0.609697 0.190383
H15   H     H_    0.231878 0.347165 0.641404 0.175621
H16   H     H_    0.316902 0.771929 0.752164 0.190177
H17   H     H_    0.314359 0.239953 0.749661 0.208964
H18   H     H_    0.816978 0.271885 0.752309 0.190177
H19   H     H_    0.814377 0.739971 0.749630 0.208970
H20   H     H_    0.520178 0.178241 0.716211 0.178834
H21   H     H_    0.541877 0.823822 0.757363 0.179067
H22   H     H_    0.020187 0.678218 0.716277 0.178899
H23   H     H_    0.748169 0.016199 0.337489 0.135067
H24   H     H_    0.041982 0.323912 0.757627 0.178906
H25   H     H_    0.699772 0.012086 0.478398 0.144234
H26   H     H_    0.199769 0.512087 0.478400 0.144202
H27   H     H_    0.399806 0.826523 0.622948 0.354147
H28   H     H_    0.206145 0.966440 0.276827 0.389477
H29   H     H_    0.899953 0.326447 0.622909 0.354131
H30   H     H_    0.705767 0.466478 0.276581 0.389479
H31   H     H_    0.440788 0.351955 0.972625 0.369685
H32   H     H_    0.615123 0.862061 0.245018 0.371951
H33   H     H_    0.940731 0.852038 0.972243 0.369683
H34   H     H_    0.248168 0.516202 0.337496 0.134987
H35   H     H_    0.115096 0.361947 0.245331 0.372156
H36   H     H_    0.437037 0.990536 0.117742 0.142537
H37   H     H_    0.937039 0.490529 0.117738 0.142514
H38   H     H_    0.304329 0.981872 0.518094 0.216034
H39   H     H_    0.804343 0.481723 0.518115 0.216271
H40   H     H_    0.349370 0.961407 0.900615 0.134493
I1    I     I_    0.490777 0.174311 0.914872 -0.246413
I2    I     I_    0.484909 0.722145 0.873715 -0.195885
I3    I     I_    0.990859 0.674323 0.915072 -0.246362
I4    I     I_    0.985055 0.222254 0.873965 -0.195546
I5    I     I_    0.414181 0.816648 0.049395 -0.288461
I6    I     I_    0.308618 0.116636 0.908960 -0.343428
I7    I     I_    0.914201 0.316600 0.049545 -0.288518
I8    I     I_    0.808555 0.616585 0.908740 -0.343558
N1    N     N_R   0.566260 0.000000 0.302220 -0.248221
N2    N     N_R   0.066260 0.500000 0.302220 -0.248248
N3    N     N_R   0.434410 0.000000 0.697680 -0.265850
N4    N     N_R   0.934410 0.500000 0.697680 -0.265755
O1    O     O_R   0.608610 0.924520 0.551740 -0.497474
O2    O     O_R   0.435880 0.924530 0.314850 -0.500183
O3    O     O_R   0.935880 0.575470 0.314850 -0.503265
O4    O     O_R   0.935880 0.424530 0.314850 -0.500213
O5    O     O_R   0.391380 0.075460 0.448260 -0.451879
O6    O     O_R   0.391380 0.924540 0.448260 -0.460356
O7    O     O_R   0.891380 0.575460 0.448260 -0.451462
O8    O     O_R   0.891380 0.424540 0.448260 -0.460327
O9    O     O_2   0.243711 0.852938 0.464883 -0.305255
O10   O     O_2   0.241463 0.727452 0.410486 -0.233388
O11   O     O_3   0.387323 0.799001 0.543442 -0.513711
O12   O     O_R   0.608610 0.075480 0.551740 -0.502743
O13   O     O_2   0.227949 0.093386 0.420103 -0.245000
O14   O     O_2   0.102921 0.077679 0.171274 -0.192643
O15   O     O_3   0.237789 0.004125 0.267148 -0.555702
O16   O     O_2   0.743845 0.352779 0.465080 -0.305279
O17   O     O_2   0.741598 0.227330 0.410504 -0.233305
O18   O     O_3   0.887428 0.298907 0.543400 -0.513632
O19   O     O_2   0.728652 0.593642 0.421035 -0.244937
O20   O     O_2   0.603087 0.577790 0.172551 -0.192896
O21   O     O_3   0.737751 0.504145 0.267528 -0.555854
O22   O     O_2   0.553418 0.255831 0.185096 -0.210885
O23   O     O_R   0.108610 0.424520 0.551740 -0.497490
O24   O     O_2   0.592526 0.383084 0.218058 -0.236707
O25   O     O_3   0.484641 0.335528 0.964902 -0.511114
O26   O     O_2   0.574905 0.712694 0.218696 -0.149076
O27   O     O_2   0.722886 0.760316 0.399931 -0.279000
O28   O     O_3   0.619639 0.836900 0.179565 -0.531601
O29   O     O_2   0.053338 0.756108 0.185031 -0.210924
O30   O     O_2   0.092487 0.883351 0.217673 -0.236304
O31   O     O_3   0.984633 0.835617 0.964630 -0.511041
O32   O     O_2   0.074912 0.212607 0.218632 -0.149116
O33   O     O_2   0.222896 0.260130 0.400231 -0.279019
O34   O     O_R   0.108610 0.575480 0.551740 -0.502753
O35   O     O_3   0.119821 0.336915 0.180084 -0.531920
O36   O     O_R   0.564110 0.924510 0.685150 -0.547377
O37   O     O_R   0.564110 0.075490 0.685150 -0.545175
O38   O     O_R   0.064110 0.424510 0.685150 -0.547439
O39   O     O_R   0.064110 0.575490 0.685150 -0.545205
O40   O     O_R   0.435880 0.075470 0.314850 -0.503145
S1    S     S_3+6 0.278808 0.800808 0.421003 0.046513
S2    S     S_3+6 0.200787 0.081280 0.276991 0.084531
S3    S     S_3+6 0.778908 0.300707 0.421055 0.046630
S4    S     S_3+6 0.700974 0.581374 0.277628 0.084306
S5    S     S_3+6 0.572832 0.318245 0.130050 0.085148
S6    S     S_3+6 0.650038 0.754320 0.244620 0.081828
S7    S     S_3+6 0.072792 0.818423 0.129853 0.085353
S8    S     S_3+6 0.150118 0.254276 0.244865 0.081747

loop_
_geom_bond_atom_site_label_1
_geom_bond_atom_site_label_2
_ccdc_geom_bond_type
C51   H5    S    
C83   C87   A    
Cu2   O34   S    
C10   C85   A    
C50   H12   S    
C8    C13   A    
C55   N1    A    
Cu2   O23   S    
C8    I4    S    
C1    O1    A    
C45   C82   A    
O25   S5    S    
C15   H8    S    
C80   C84   A    
C73   H18   S    
C39   C41   A    
C28   C57   A    
Cu1   O1    S    
C67   C88   A    
C57   N2    A    
C21   S4    S    
O15   S2    S    
C31   H3    S    
C21   C59   A    
C3    C7    A    
C70   H15   S    
C19   S2    S    
O31   S7    S    
O18   S3    S    
C1    O36   A    
C27   C55   A    
C43   C52   A    
C23   C26   S    
C11   C86   A    
C68   C74   A    
C30   H39   S    
C14   C62   A    
C12   C22   S    
C30   N4    A    
C32   C39   A    
C4    C8    A    
C69   C71   A    
C11   H22   S    
C73   C77   A    
C22   C66   A    
Cu2   O4    S    
C5    C88   A    
C44   C53   A    
O35   S8    S    
C12   O37   A    
C19   C63   A    
C26   C87   A    
C49   C51   A    
Cu4   O8    S    
H28   O15   S    
C50   C52   A    
C41   C46   A    
O17   S3    D    
C35   O6    A    
Cu1   Cu3   S    
C24   C85   A    
C44   C47   A    
C72   C76   A    
C25   C34   S    
C3    C60   A    
C9    H20   S    
C40   C42   A    
C79   I8    S    
H30   O21   S    
C71   H16   S    
C4    C56   A    
C41   C43   A    
C13   C87   A    
C43   N4    A    
C2    C6    A    
C12   O12   A    
O14   S2    D    
C76   C83   A    
C28   H34   S    
C14   C45   A    
Cu3   N3    S    
Cu1   O2    S    
O10   S1    D    
C46   C48   A    
C71   C75   A    
O21   S4    S    
C30   C32   A    
Cu1   O40   S    
C14   H7    S    
O13   S2    D    
C23   O38   A    
C47   C49   A    
O11   S1    S    
C74   H19   S    
Cu3   O5    S    
C2    C59   A    
C18   C62   A    
Cu1   O12   S    
O28   S6    S    
C82   C86   A    
C66   C73   A    
C4    C61   A    
C3    C45   A    
O24   S5    D    
O27   S6    D    
O19   S4    D    
C35   O2    A    
C38   H40   S    
C20   C64   A    
C7    C11   A    
C17   H10   S    
C39   H2    S    
C5    C9    A    
Cu2   O3    S    
C2    C78   A    
C53   H36   S    
C61   S8    S    
C36   O3    A    
Cu2   Cu4   S    
C29   H38   S    
H32   O28   S    
C33   C63   S    
Cu3   O36   S    
C46   C54   A    
C58   S5    S    
C5    I1    S    
C33   O40   A    
C34   O39   A    
C75   C82   A    
C16   C67   A    
H31   O25   S    
C48   C50   A    
Cu2   N2    S    
C10   H21   S    
C23   O23   A    
C18   C60   A    
C54   N2    A    
Cu4   O7    S    
C74   C79   A    
Cu3   O37   S    
C75   I5    S    
C26   C70   A    
C25   C86   A    
C34   O34   A    
C25   C69   A    
C68   H13   S    
C37   O8    A    
C20   C58   A    
H33   O31   S    
C37   C64   S    
C56   C83   A    
C79   C81   A    
C55   H25   S    
C77   C80   A    
C27   C47   A    
C54   H37   S    
O26   S6    D    
C72   H17   S    
C28   C48   A    
H27   O11   S    
C21   C65   A    
C36   C65   S    
C66   H11   S    
C67   C80   A    
C77   I7    S    
O20   S4    D    
Cu4   O39   S    
C58   C88   A    
C6    C10   A    
Cu3   O6    S    
C70   C72   A    
C69   H14   S    
C36   O7    A    
C42   C51   A    
C76   I6    S    
C32   H4    S    
O30   S7    D    
C18   S1    S    
C17   C65   A    
C31   C38   A    
O22   S5    D    
H35   O35   S    
C15   C56   A    
C29   C31   A    
Cu4   O38   S    
C20   S3    S    
C38   C40   A    
C29   N3    A    
C78   C81   A    
O9    S1    D    
C19   C61   A    
C60   S7    S    
Cu1   N1    S    
H29   O18   S    
C52   H6    S    
C17   C78   A    
O29   S7    D    
C35   C62   S    
C53   N1    A    
C37   O4    A    
Cu4   N4    S    
C13   H24   S    
O32   S8    D    
C7    I3    S    
C24   C68   A    
C9    C84   A    
C16   H9    S    
C40   C44   A    
C1    C24   S    
C6    I2    S    
C42   N3    A    
O33   S8    D    
C15   C63   A    
C59   S6    S    
C33   O5    A    
C16   C64   A    
O16   S3    D    
C49   H1    S    
C81   C85   A    
C22   C84   A    
C57   H26   S    
C27   H23   S    
