data_mof_unit_21566.cif
_audit_creation_date              2012-12-11T15:35:30-0500
_audit_creation_method            fapswitch 2.2
_symmetry_space_group_name_H-M    P1
_symmetry_Int_Tables_number       1
_space_group_crystal_system       triclinic
_cell_length_a                    17.45842
_cell_length_b                    24.112751
_cell_length_c                    15.054307
_cell_angle_alpha                 90.043356
_cell_angle_beta                  124.805215
_cell_angle_gamma                 90.13529
_cell_volume                      5203.60632154

loop_
_atom_site_label
_atom_site_type_symbol
_atom_type_description
_atom_site_fract_x
_atom_site_fract_y
_atom_site_fract_z
_atom_type_partial_charge
C1    C     C_R   0.308159 0.119605 0.913493 -0.158550
C2    C     C_R   0.550571 0.156179 0.917154 -0.158493
C3    C     C_R   0.253364 0.546832 0.301624 -0.138988
C4    C     C_3   0.291152 0.859670 0.200357 -0.391786
C5    C     C_3   0.370800 0.830162 0.301302 -0.931828
C6    C     C_3   0.287694 0.140653 0.199652 -0.384163
C7    C     C_3   0.257433 0.080079 0.170594 -0.893149
C8    C     C_3   0.791062 0.359712 0.200281 -0.391625
C9    C     C_3   0.870691 0.330224 0.301299 -0.931586
C10   C     C_3   0.787570 0.640596 0.199538 -0.384090
C11   C     C_3   0.757232 0.580034 0.170349 -0.892966
C12   C     C_3   0.225136 0.897594 0.647109 -0.393343
C13   C     C_R   0.053278 0.344046 0.917492 -0.108603
C14   C     C_3   0.309760 0.878065 0.653675 -0.944211
C15   C     C_3   0.236868 0.105070 0.659084 -0.348677
C16   C     C_3   0.221038 0.105788 0.548148 -0.934982
C17   C     C_3   0.725134 0.397591 0.647114 -0.393317
C18   C     C_3   0.809752 0.378063 0.653665 -0.944213
C19   C     C_3   0.736879 0.605069 0.659080 -0.348663
C20   C     C_3   0.721059 0.605785 0.548149 -0.935000
C21   C     C_3   0.532211 0.103260 0.719394 -0.344058
C22   C     C_3   0.441996 0.133407 0.640091 -0.955253
C23   C     C_3   0.521562 0.896184 0.711260 -0.374525
C24   C     C_R   0.050572 0.656181 0.917157 -0.158477
C25   C     C_3   0.622219 0.876154 0.768133 -0.876989
C26   C     C_3   0.032235 0.603259 0.719417 -0.343975
C27   C     C_3   0.942024 0.633409 0.640111 -0.955276
C28   C     C_3   0.021546 0.396186 0.711242 -0.374513
C29   C     C_3   0.122193 0.376139 0.768109 -0.877027
C30   C     C_R   0.546106 0.999443 0.721081 -0.109972
C31   C     C_R   0.046122 0.499442 0.721099 -0.109962
C32   C     C_R   0.800811 0.000968 0.363386 -0.010019
C33   C     C_R   0.300814 0.500969 0.363383 -0.010022
C34   C     C_R   0.615450 0.186324 0.006803 0.054788
C35   C     C_R   0.619341 0.814846 0.007295 0.046910
C36   C     C_R   0.115452 0.686326 0.006809 0.054788
C37   C     C_R   0.307409 0.882031 0.914245 -0.116152
C38   C     C_R   0.119342 0.314845 0.007296 0.046915
C39   C     C_3   0.039226 0.954646 0.604373 -0.419381
C40   C     C_3   0.040841 0.057033 0.580216 -0.395320
C41   C     C_3   0.539230 0.454650 0.604372 -0.419358
C42   C     C_3   0.540848 0.557036 0.580202 -0.395323
C43   C     C_3   0.933894 0.950197 0.518442 -0.413011
C44   C     C_3   0.934603 0.053608 0.516943 -0.436456
C45   C     C_3   0.433898 0.450202 0.518443 -0.413010
C46   C     C_3   0.434609 0.553612 0.516929 -0.436442
C47   C     C_3   0.050633 0.992097 0.454551 -0.416350
C48   C     C_R   0.808156 0.619599 0.913485 -0.158591
C49   C     C_3   0.550637 0.492096 0.454544 -0.416322
C50   C     C_3   0.082357 0.001172 0.572712 0.419647
C51   C     C_3   0.582362 0.501174 0.572704 0.419629
C52   C     C_3   0.901304 0.001479 0.443659 0.419957
C53   C     C_3   0.401308 0.501480 0.443653 0.419942
C54   C     C_R   0.403785 0.874364 0.093842 -0.140173
C55   C     C_R   0.404167 0.126103 0.093788 -0.121634
C56   C     C_R   0.903781 0.374363 0.093838 -0.140127
C57   C     C_R   0.904159 0.626102 0.093780 -0.121656
C58   C     C_3   0.945846 0.000952 0.378685 -0.392715
C59   C     C_R   0.807406 0.382041 0.914243 -0.116165
C60   C     C_3   0.445847 0.500947 0.378678 -0.392707
C61   C     C_R   0.168927 0.810593 0.907679 -0.199395
C62   C     C_R   0.169655 0.189969 0.907552 -0.221508
C63   C     C_R   0.668977 0.310554 0.907652 -0.199353
C64   C     C_R   0.669695 0.690004 0.907524 -0.221547
C65   C     C_R   0.621876 0.264788 0.907526 -0.178007
C66   C     C_R   0.623395 0.735831 0.907728 -0.177549
C67   C     C_R   0.121825 0.764824 0.907547 -0.177983
C68   C     C_R   0.123354 0.235800 0.907746 -0.177541
C69   C     C_R   0.642069 0.243659 0.005041 0.102014
C70   C     C_R   0.649320 0.151594 0.094007 -0.124946
C71   C     C_R   0.644799 0.757429 0.005505 0.133316
C72   C     C_R   0.142067 0.743666 0.005064 0.101999
C73   C     C_R   0.144792 0.257423 0.005522 0.133302
C74   C     C_R   0.696451 0.275071 0.099911 -0.218071
C75   C     C_R   0.698285 0.726068 0.100069 -0.274514
C76   C     C_R   0.196495 0.775056 0.099951 -0.218075
C77   C     C_R   0.198312 0.226081 0.100104 -0.274538
C78   C     C_R   0.243252 0.822805 0.100873 0.232604
C79   C     C_R   0.242710 0.177526 0.100306 0.222502
C80   C     C_R   0.743208 0.322820 0.100827 0.232520
C81   C     C_R   0.651531 0.849357 0.094447 -0.136947
C82   C     C_R   0.742671 0.677512 0.100253 0.222368
C83   C     C_R   0.237924 0.836226 0.005474 0.045777
C84   C     C_R   0.238672 0.164628 0.005285 0.110406
C85   C     C_R   0.737921 0.336218 0.005443 0.045771
C86   C     C_R   0.738667 0.664636 0.005248 0.110440
C87   C     C_R   0.465557 0.994885 0.528637 -0.197443
C88   C     C_R   0.635473 0.004439 0.641796 -0.211462
C89   C     C_R   0.965541 0.494963 0.528644 -0.197486
C90   C     C_R   0.135483 0.504358 0.641796 -0.211384
C91   C     C_R   0.465441 0.994354 0.437945 -0.182012
C92   C     C_R   0.149322 0.651593 0.094009 -0.124940
C93   C     C_R   0.635060 0.005063 0.549767 -0.188050
C94   C     C_R   0.965408 0.494445 0.437939 -0.181965
C95   C     C_R   0.135058 0.504977 0.549759 -0.188061
C96   C     C_R   0.549793 0.999800 0.449380 0.154849
C97   C     C_R   0.049767 0.499806 0.449369 0.154807
C98   C     C_R   0.538120 0.046104 0.297168 -0.129138
C99   C     C_R   0.537875 0.953956 0.296922 -0.147738
C100  C     C_R   0.038098 0.546105 0.297155 -0.129222
C101  C     C_R   0.037860 0.453957 0.296916 -0.147698
C102  C     C_R   0.550503 0.999032 0.629761 0.191810
C103  C     C_R   0.151531 0.349358 0.094447 -0.136945
C104  C     C_R   0.050505 0.499033 0.629768 0.191759
C105  C     C_R   0.239734 0.954332 0.699361 0.182499
C106  C     C_R   0.241883 0.047133 0.701390 0.165064
C107  C     C_R   0.739737 0.454333 0.699356 0.182496
C108  C     C_R   0.741888 0.547133 0.701385 0.165051
C109  C     C_R   0.312905 0.134924 0.005969 0.057889
C110  C     C_R   0.312243 0.866246 0.006367 0.044093
C111  C     C_R   0.812898 0.634919 0.005953 0.057980
C112  C     C_R   0.812239 0.366250 0.006358 0.044050
C113  C     C_R   0.545847 0.000021 0.353913 0.035940
C114  C     C_R   0.553273 0.844046 0.917494 -0.108623
C115  C     C_R   0.045813 0.500023 0.353895 0.035954
C116  C     C_R   0.186267 0.001183 0.645910 -0.104940
C117  C     C_R   0.686271 0.501184 0.645902 -0.104926
C118  C     C_R   0.517803 0.045450 0.747929 0.202160
C119  C     C_R   0.517241 0.953914 0.748242 0.198183
C120  C     C_R   0.017816 0.545449 0.747944 0.202117
C121  C     C_R   0.017247 0.453913 0.748249 0.198196
C122  C     C_R   0.753655 0.954277 0.302804 -0.145719
C123  C     C_R   0.753363 0.046832 0.301625 -0.139004
C124  C     C_R   0.253658 0.454277 0.302802 -0.145732
H1    H     H_    0.246296 0.118624 0.833267 0.090480
H2    H     H_    0.913015 0.050956 0.573565 0.164706
H3    H     H_    0.865608 0.371191 0.739630 0.266082
H4    H     H_    0.794560 0.338166 0.609537 0.247804
H5    H     H_    0.704681 0.365236 0.681729 0.175751
H6    H     H_    0.668560 0.398575 0.560562 0.190387
H7    H     H_    0.759518 0.571568 0.540606 0.269807
H8    H     H_    0.646085 0.602879 0.482393 0.246047
H9    H     H_    0.744740 0.646105 0.536255 0.255352
H10   H     H_    0.683768 0.630958 0.657263 0.161520
H11   H     H_    0.803805 0.626287 0.717848 0.184923
H12   H     H_    0.399246 0.109039 0.564115 0.272401
H13   H     H_    0.396327 0.447295 0.558118 0.152354
H14   H     H_    0.403008 0.140064 0.676019 0.271171
H15   H     H_    0.457667 0.174494 0.620613 0.247994
H16   H     H_    0.582691 0.127790 0.790863 0.182285
H17   H     H_    0.568914 0.100668 0.678967 0.193275
H18   H     H_    0.658680 0.899853 0.739478 0.257184
H19   H     H_    0.661636 0.881385 0.857096 0.266298
H20   H     H_    0.622532 0.831669 0.749321 0.241853
H21   H     H_    0.479697 0.865866 0.718422 0.186276
H22   H     H_    0.489440 0.896362 0.622964 0.191467
H23   H     H_    0.899277 0.609047 0.564127 0.272386
H24   H     H_    0.413021 0.550966 0.573551 0.164708
H25   H     H_    0.903026 0.640062 0.676029 0.271170
H26   H     H_    0.957702 0.674499 0.620649 0.247998
H27   H     H_    0.082715 0.627786 0.790891 0.182291
H28   H     H_    0.068945 0.600665 0.678997 0.193261
H29   H     H_    0.158655 0.399817 0.739433 0.257174
H30   H     H_    0.161624 0.381382 0.857071 0.266298
H31   H     H_    0.122484 0.331648 0.749315 0.241866
H32   H     H_    0.979672 0.365871 0.718394 0.186283
H33   H     H_    0.989426 0.396376 0.622946 0.191470
H34   H     H_    0.919790 0.911480 0.471135 0.153036
H35   H     H_    0.905593 0.092702 0.470816 0.146519
H36   H     H_    0.419791 0.411483 0.471141 0.153033
H37   H     H_    0.405602 0.592705 0.470795 0.146521
H38   H     H_    0.064965 0.949495 0.441105 0.153042
H39   H     H_    0.087111 0.019977 0.431796 0.165744
H40   H     H_    0.564975 0.449494 0.441100 0.153035
H41   H     H_    0.244282 0.886262 0.836053 0.091502
H42   H     H_    0.587111 0.519978 0.431785 0.165732
H43   H     H_    0.915252 0.967556 0.316209 0.158667
H44   H     H_    0.932136 0.041097 0.335532 0.163343
H45   H     H_    0.415254 0.467546 0.316211 0.158662
H46   H     H_    0.432132 0.541088 0.335513 0.163340
H47   H     H_    0.157703 0.821053 0.831381 0.116878
H48   H     H_    0.157557 0.179330 0.830907 0.118133
H49   H     H_    0.657800 0.320985 0.831362 0.116877
H50   H     H_    0.657634 0.679389 0.830886 0.118144
H51   H     H_    0.577489 0.242920 0.831669 0.120454
H52   H     H_    0.746293 0.618613 0.833258 0.090488
H53   H     H_    0.578844 0.757406 0.831851 0.121607
H54   H     H_    0.077390 0.742978 0.831678 0.120449
H55   H     H_    0.078771 0.257357 0.831856 0.121578
H56   H     H_    0.704508 0.261679 0.173406 0.123786
H57   H     H_    0.707607 0.740133 0.174001 0.112326
H58   H     H_    0.204591 0.761647 0.173457 0.123790
H59   H     H_    0.207664 0.240163 0.174041 0.112316
H60   H     H_    0.399996 0.991357 0.520816 0.117516
H61   H     H_    0.700449 0.008332 0.721049 0.123753
H62   H     H_    0.899978 0.491492 0.520830 0.117547
H63   H     H_    0.744273 0.386290 0.836057 0.091507
H64   H     H_    0.200476 0.508183 0.721052 0.123752
H65   H     H_    0.434339 0.864703 0.177134 0.124517
H66   H     H_    0.435694 0.136439 0.176955 0.094448
H67   H     H_    0.934330 0.364692 0.177128 0.124460
H68   H     H_    0.935676 0.636445 0.176944 0.094396
H69   H     H_    0.400146 0.989846 0.359119 0.123991
H70   H     H_    0.699858 0.009336 0.556176 0.118036
H71   H     H_    0.900096 0.490004 0.359110 0.124029
H72   H     H_    0.199864 0.509176 0.556165 0.118043
H73   H     H_    0.550958 0.088621 0.325126 0.090881
H74   H     H_    0.052752 0.964465 0.684455 0.162149
H75   H     H_    0.550834 0.911503 0.324880 0.102306
H76   H     H_    0.050934 0.588623 0.325113 0.090898
H77   H     H_    0.050817 0.411504 0.324875 0.102299
H78   H     H_    0.769101 0.911291 0.326644 0.087921
H79   H     H_    0.767180 0.090150 0.323330 0.085875
H80   H     H_    0.269106 0.411291 0.326643 0.087920
H81   H     H_    0.267180 0.590150 0.323329 0.085874
H82   H     H_    0.691862 0.163410 0.178412 0.085198
H83   H     H_    0.693809 0.837749 0.178847 0.089630
H84   H     H_    0.191861 0.663406 0.178416 0.085191
H85   H     H_    0.070683 0.068510 0.665756 0.145006
H86   H     H_    0.193804 0.337751 0.178847 0.089623
H87   H     H_    0.497623 0.823484 0.845971 0.086583
H88   H     H_    0.497258 0.173954 0.840568 0.117561
H89   H     H_    0.997632 0.323487 0.845962 0.086584
H90   H     H_    0.997261 0.673956 0.840572 0.117551
H91   H     H_    0.068197 0.913086 0.611586 0.145113
H92   H     H_    0.055026 0.090549 0.541553 0.178010
H93   H     H_    0.568200 0.413089 0.611590 0.145109
H94   H     H_    0.555035 0.590550 0.541538 0.178009
H95   H     H_    0.342557 0.799696 0.330963 0.254213
H96   H     H_    0.552758 0.464474 0.684454 0.162143
H97   H     H_    0.416674 0.807902 0.284318 0.256561
H98   H     H_    0.413216 0.861079 0.366484 0.257900
H99   H     H_    0.317023 0.898677 0.187076 0.188919
H100  H     H_    0.238716 0.872672 0.215819 0.190716
H101  H     H_    0.180174 0.076993 0.116086 0.258749
H102  H     H_    0.288117 0.060888 0.130683 0.261715
H103  H     H_    0.281592 0.056463 0.245399 0.244222
H104  H     H_    0.364405 0.144401 0.250476 0.175462
H105  H     H_    0.266235 0.154401 0.252952 0.191574
H106  H     H_    0.842429 0.299753 0.330935 0.254152
H107  H     H_    0.570689 0.568516 0.665742 0.145009
H108  H     H_    0.916636 0.307972 0.284403 0.256500
H109  H     H_    0.913039 0.361156 0.366475 0.257866
H110  H     H_    0.816954 0.398709 0.186985 0.188897
H111  H     H_    0.738587 0.372738 0.215679 0.190656
H112  H     H_    0.679969 0.576993 0.115572 0.258724
H113  H     H_    0.788117 0.560828 0.130674 0.261678
H114  H     H_    0.781127 0.556400 0.245074 0.244120
H115  H     H_    0.864292 0.644303 0.250408 0.175461
H116  H     H_    0.766084 0.654332 0.252819 0.191561
H117  H     H_    0.330085 0.909437 0.616707 0.262841
H118  H     H_    0.896321 0.947285 0.558115 0.152364
H119  H     H_    0.365609 0.871192 0.739641 0.266089
H120  H     H_    0.294572 0.838168 0.609547 0.247805
H121  H     H_    0.204670 0.865238 0.681706 0.175761
H122  H     H_    0.168574 0.898583 0.560556 0.190399
H123  H     H_    0.259493 0.071571 0.540598 0.269818
H124  H     H_    0.146063 0.102883 0.482398 0.246045
H125  H     H_    0.244718 0.146108 0.536253 0.255354
H126  H     H_    0.183758 0.130957 0.657272 0.161523
H127  H     H_    0.303794 0.126289 0.717848 0.184925
H128  H     H_    0.830069 0.409436 0.616689 0.262846
N1    N     N_R   0.392140 0.102630 0.941800 -0.042755
N2    N     N_R   0.525160 0.972040 0.206160 -0.035845
N3    N     N_R   0.025160 0.527960 0.206160 -0.036502
N4    N     N_R   0.025160 0.472040 0.206160 -0.035849
N5    N     N_R   0.317870 0.971120 0.792790 -0.061396
N6    N     N_R   0.317870 0.028880 0.792790 -0.079154
N7    N     N_R   0.817870 0.471120 0.792790 -0.061402
N8    N     N_R   0.817870 0.528880 0.792790 -0.079155
N9    N     N_R   0.473480 0.027920 0.793480 -0.067775
N10   N     N_R   0.473480 0.972080 0.793480 -0.080993
N11   N     N_R   0.973480 0.527920 0.793480 -0.067776
N12   N     N_R   0.392140 0.897370 0.941800 -0.040018
N13   N     N_R   0.973480 0.472080 0.793480 -0.080997
N14   N     N_R   0.681610 0.971120 0.207570 -0.033843
N15   N     N_R   0.681610 0.028880 0.207570 -0.034827
N16   N     N_R   0.181610 0.471120 0.207570 -0.033843
N17   N     N_R   0.181610 0.528880 0.207570 -0.034827
N18   N     N_R   0.605410 0.102620 0.056870 -0.040486
N19   N     N_R   0.605410 0.897380 0.056870 -0.040730
N20   N     N_R   0.105410 0.602620 0.056870 -0.040487
N21   N     N_R   0.105410 0.397380 0.056870 -0.040733
N22   N     N_R   0.549680 0.896430 0.944180 -0.041844
N23   N     N_R   0.892140 0.602630 0.941800 -0.042753
N24   N     N_R   0.549680 0.103570 0.944180 -0.040848
N25   N     N_R   0.049680 0.396430 0.944180 -0.041849
N26   N     N_R   0.049680 0.603570 0.944180 -0.040850
N27   N     N_R   0.892140 0.397370 0.941800 -0.040015
N28   N     N_R   0.450890 0.896450 0.057150 -0.041158
N29   N     N_R   0.450890 0.103550 0.057150 -0.039955
N30   N     N_R   0.950890 0.396450 0.057150 -0.041157
N31   N     N_R   0.950890 0.603550 0.057150 -0.039948
N32   N     N_R   0.525160 0.027960 0.206160 -0.036505
Ni1   Ni    Ni4+2 0.433410 0.064680 0.868830 0.199284
Ni2   Ni    Ni4+2 0.433410 0.935320 0.868830 0.198495
Ni3   Ni    Ni4+2 0.933410 0.564680 0.868830 0.199279
Ni4   Ni    Ni4+2 0.933410 0.435320 0.868830 0.198492
Ni5   Ni    Ni4+2 0.565650 0.934380 0.131170 0.202738
Ni6   Ni    Ni4+2 0.565650 0.065620 0.131170 0.201616
Ni7   Ni    Ni4+2 0.065650 0.434380 0.131170 0.202735
Ni8   Ni    Ni4+2 0.065650 0.565620 0.131170 0.201623

loop_
_geom_bond_atom_site_label_1
_geom_bond_atom_site_label_2
_ccdc_geom_bond_type
N19   N22   A    
C5    H97   S    
C123  H79   S    
C63   C65   A    
C122  N14   A    
C10   H116  S    
C95   H72   S    
C54   H65   S    
C59   N27   A    
C99   H75   S    
C89   H62   S    
C57   C111  A    
C105  C116  A    
C93   H70   S    
C72   C76   A    
C43   H34   S    
N23   Ni3   S    
C35   C81   A    
C13   N25   A    
C90   C95   A    
C45   H36   S    
C19   H10   S    
C23   H21   S    
C29   H29   S    
C44   H2    S    
C26   C27   S    
C80   C85   A    
C49   C60   S    
C24   N26   A    
C124  H80   S    
C9    H108  S    
C60   H45   S    
C15   C106  S    
C56   N30   A    
C28   C29   S    
C76   C78   A    
N5    N6    A    
C99   N2    A    
C87   C91   A    
C17   C107  S    
C23   C119  S    
C12   C105  S    
C91   H69   S    
C98   N32   A    
C43   C52   S    
C70   N18   A    
C119  N10   A    
C30   C119  A    
C3    C33   A    
C19   H11   S    
C12   H121  S    
C87   C102  A    
C81   N19   A    
C54   C110  A    
C35   C114  A    
C107  N7    A    
C67   C72   A    
C42   C46   S    
N27   N30   A    
C13   H89   S    
C89   C94   A    
C32   C52   S    
C49   H40   S    
N13   Ni4   S    
C18   H4    S    
C91   C96   A    
C47   H38   S    
C24   H90   S    
C78   C83   A    
C92   N20   A    
C46   H24   S    
C36   C72   S    
C25   H18   S    
C18   H128  S    
C8    C9    S    
C49   C51   S    
C46   H37   S    
C6    H104  S    
C33   C124  A    
N20   N26   A    
C59   H63   S    
N22   Ni2   S    
C20   H9    S    
C97   C115  S    
N2    Ni5   S    
N23   N31   A    
C34   C70   A    
C50   C116  S    
C98   H73   S    
C42   C51   S    
C81   H83   S    
C47   H39   S    
C42   H107  S    
C36   C92   A    
C77   C79   A    
C5    H98   S    
C56   H67   S    
N32   Ni6   S    
C10   H115  S    
C27   H25   S    
C74   C80   A    
C21   C22   S    
C63   C85   A    
C38   C73   S    
C107  C117  A    
C8    H110  S    
C32   C123  A    
C40   H92   S    
C25   H19   S    
C100  C115  A    
C51   C117  S    
C20   H8    S    
C76   H58   S    
C29   H31   S    
C6    C79   S    
C103  H86   S    
C64   C86   A    
C66   H53   S    
C53   C60   S    
N1    N29   A    
C63   H49   S    
C47   C50   S    
N9    Ni1   S    
N24   Ni1   S    
C16   H124  S    
C43   H118  S    
C33   C53   S    
C59   C112  A    
C31   C120  A    
C23   H22   S    
C12   H122  S    
C21   H17   S    
N11   Ni3   S    
N26   Ni3   S    
C9    H109  S    
C94   H71   S    
C3    H81   S    
C55   H66   S    
N18   N24   A    
C101  N4    A    
C103  N21   A    
C21   C118  S    
C61   C83   A    
C54   N28   A    
C121  N13   A    
C87   H60   S    
N9    N10   A    
C28   C121  S    
C98   C113  A    
C39   C43   S    
C7    H101  S    
C94   C97   A    
C68   C73   A    
C82   C86   A    
C17   H5    S    
C40   H85   S    
C10   C82   S    
C15   C16   S    
N21   N25   A    
C106  C116  A    
C9    H106  S    
C11   H114  S    
C55   C109  A    
C64   C66   A    
C114  H87   S    
C48   N23   A    
C4    C78   S    
C38   C103  A    
C92   H84   S    
C32   C122  A    
C18   H3    S    
C1    N1    A    
C14   H117  S    
C61   C67   A    
C41   H93   S    
C66   C71   A    
C85   C112  S    
C7    H103  S    
C40   C44   S    
C120  N11   A    
C28   H32   S    
C30   C102  S    
C45   H13   S    
C17   C18   S    
C13   C38   A    
C83   C110  S    
C41   C51   S    
C69   C74   A    
C40   C50   S    
C37   H41   S    
C61   H47   S    
N16   Ni7   S    
C58   H43   S    
C34   C69   S    
C90   C104  A    
C37   C110  A    
C62   H48   S    
C31   C121  A    
C52   C58   S    
C57   H68   S    
C14   H120  S    
C100  H76   S    
C88   H61   S    
C90   H64   S    
C39   H74   S    
C12   C14   S    
C93   C96   A    
C10   C11   S    
N6    Ni1   S    
C89   C104  A    
C101  C115  A    
C96   C113  S    
C108  N8    A    
C25   H20   S    
C11   H113  S    
N17   Ni8   S    
C5    H95   S    
C20   H7    S    
C64   H50   S    
N7    N8    A    
C100  N3    A    
C41   H96   S    
C58   H44   S    
C114  N22   A    
C106  N6    A    
C16   H123  S    
C11   H112  S    
N11   N13   A    
C62   C84   A    
C88   C93   A    
C26   H27   S    
C105  N5    A    
N3    Ni8   S    
N10   Ni2   S    
C17   H6    S    
C108  C117  A    
N15   Ni6   S    
N25   Ni4   S    
N28   Ni5   S    
C26   C120  S    
C4    C5    S    
C42   H94   S    
C67   H54   S    
C99   C113  A    
C88   C102  A    
C16   H125  S    
C95   C97   A    
C75   C82   A    
C6    C7    S    
C15   H126  S    
C62   C68   A    
N31   Ni8   S    
C27   H26   S    
C4    H99   S    
C30   C118  A    
N29   Ni6   S    
C68   H55   S    
C2    H88   S    
C84   C109  S    
C3    N17   A    
C41   C45   S    
C39   H91   S    
C24   C36   A    
C1    H1    S    
N12   Ni2   S    
N27   Ni4   S    
C122  H78   S    
C7    H102  S    
C26   H28   S    
C86   C111  S    
C37   N12   A    
C60   H46   S    
C49   H42   S    
C35   C71   S    
C4    H100  S    
C19   C108  S    
C47   C58   S    
C71   C75   A    
C55   N29   A    
C57   N31   A    
C44   C52   S    
C22   H14   S    
C79   C84   A    
C118  N9    A    
C15   H127  S    
C1    C109  A    
C65   C69   A    
C45   C53   S    
C22   H15   S    
C46   C53   S    
C56   C112  A    
C28   H33   S    
N12   N28   A    
C124  N16   A    
C6    H105  S    
N14   Ni5   S    
N1    Ni1   S    
C23   C25   S    
N7    Ni4   S    
C2    C34   A    
C77   H59   S    
C70   H82   S    
N8    Ni3   S    
N14   N15   A    
N20   Ni8   S    
C2    N24   A    
C14   H119  S    
C8    H111  S    
C123  N15   A    
N30   Ni7   S    
C31   C104  S    
C48   C111  A    
N5    Ni2   S    
N16   N17   A    
C19   C20   S    
C27   H23   S    
N18   Ni6   S    
C22   H12   S    
C8    C80   S    
C44   H35   S    
C73   C77   A    
C39   C50   S    
C101  H77   S    
N21   Ni7   S    
C21   H16   S    
N19   Ni5   S    
N4    Ni7   S    
C65   H51   S    
N3    N4    A    
N2    N32   A    
C29   H30   S    
C48   H52   S    
C74   H56   S    
C75   H57   S    
