data_mof_unit_31927.cif
_audit_creation_date              2012-12-10T20:31:54-0500
_audit_creation_method            fapswitch 2.2
_symmetry_space_group_name_H-M    P1
_symmetry_Int_Tables_number       1
_space_group_crystal_system       triclinic
_cell_length_a                    9.931734
_cell_length_b                    10.680612
_cell_length_c                    15.527603
_cell_angle_alpha                 91.177839
_cell_angle_beta                  68.445262
_cell_angle_gamma                 91.310168
_cell_volume                      1531.40198796

loop_
_atom_site_label
_atom_site_type_symbol
_atom_type_description
_atom_site_fract_x
_atom_site_fract_y
_atom_site_fract_z
_atom_type_partial_charge
C1    C     C_R   0.500524 0.739761 0.499829 0.900179
C2    C     C_R   0.729668 0.499885 0.031994 0.143827
C3    C     C_R   0.589257 0.453559 0.085449 0.107572
C4    C     C_R   0.410493 0.483374 0.674036 0.933008
C5    C     C_R   0.830024 0.529680 0.073938 -0.198400
C6    C     C_R   0.788532 0.523305 0.169723 -0.161380
C7    C     C_R   0.547058 0.459789 0.181411 -0.237436
C8    C     C_R   0.402095 0.933314 0.470921 0.043203
C9    C     C_R   0.494497 0.872095 0.504801 -0.101439
C10   C     C_R   0.567036 0.939834 0.552565 -0.140194
C11   C     C_R   0.566644 0.068850 0.552713 -0.155826
C12   C     C_R   0.426152 0.420450 0.904828 0.052241
C13   C     C_R   0.489957 0.129242 0.506637 -0.072922
C14   C     C_R   0.399452 0.061164 0.471955 0.110321
C15   C     C_3   0.378302 0.066716 0.381193 -0.133020
C16   C     C_R   0.498416 0.260595 0.500064 0.884933
C17   C     C_3   0.382213 0.923248 0.379605 -0.108438
C18   C     C_R   0.895474 0.568906 0.564230 0.126105
C19   C     C_R   0.961112 0.423388 0.441680 0.211830
C20   C     C_R   0.104288 0.424297 0.441679 -0.138205
C21   C     C_R   0.035998 0.565325 0.566149 0.150627
C22   C     C_3   0.042717 0.700891 0.586132 -0.065620
C23   C     C_R   0.281966 0.387523 0.958713 0.077096
C24   C     C_3   0.893152 0.708516 0.579733 0.161462
C25   C     C_R   0.590276 0.499319 0.324496 0.847558
C26   C     C_R   0.360100 0.442018 0.770874 -0.177239
C27   C     C_R   0.644802 0.493093 0.223707 -0.066779
C28   C     C_R   0.177671 0.379230 0.917593 -0.228115
C29   C     C_R   0.214756 0.409179 0.824234 0.162825
C30   C     C_R   0.466088 0.422032 0.808949 0.078915
C31   C     C_R   0.527765 0.444864 0.947426 0.037775
C32   C     C_R   0.490229 0.416889 0.042184 0.061709
C33   C     C_R   0.354888 0.354563 0.089070 0.083823
C34   C     C_R   0.248449 0.350798 0.049843 -0.226080
C35   C     C_R   0.662609 0.503416 0.898455 -0.125514
C36   C     C_R   0.764089 0.525387 0.939021 -0.180961
H1    H     H_    0.142454 0.311026 0.088735 0.171343
H2    H     H_    0.865758 0.549032 0.201626 0.176883
H3    H     H_    0.866974 0.569072 0.898834 0.193757
H4    H     H_    0.068272 0.347768 0.957473 0.172714
H5    H     H_    0.690575 0.534240 0.828200 0.205053
H6    H     H_    0.488500 0.108000 0.245531 0.227995
H7    H     H_    0.491718 0.222933 0.319065 0.191416
H8    H     H_    0.603751 0.899719 0.311242 0.231799
H9    H     H_    0.500491 0.772592 0.311469 0.186489
H10   H     H_    0.309237 0.190752 0.157845 0.213418
H11   H     H_    0.236003 0.318273 0.222834 0.196670
H12   H     H_    0.938584 0.562143 0.033056 0.155584
H13   H     H_    0.628097 0.894042 0.586318 0.212595
H14   H     H_    0.630248 0.120594 0.585402 0.205596
H15   H     H_    0.271588 0.105077 0.387877 0.162096
H16   H     H_    0.277524 0.878029 0.384945 0.175606
H17   H     H_    0.185282 0.364980 0.393476 0.149641
H18   H     H_    0.434967 0.447974 0.224690 0.184457
H19   H     H_    0.129291 0.749128 0.528967 0.161875
I1    I     I_    0.919986 0.300663 0.345204 -0.370941
I2    I     I_    0.067913 0.736002 0.716395 -0.270803
I3    I     I_    0.716234 0.758375 0.704970 -0.300795
I4    I     I_    0.914812 0.815166 0.458576 -0.380648
I5    I     I_    0.055128 0.367965 0.766271 -0.289885
I6    I     I_    0.654233 0.314144 0.730551 -0.297531
N1    N     N_R   0.856900 0.500860 0.500610 -0.112009
N2    N     N_R   0.142540 0.500820 0.500610 -0.119979
N3    N     N_3   0.500964 0.126039 0.308617 -0.409331
N4    N     N_3   0.506789 0.869927 0.304665 -0.413748
N5    N     N_3   0.329300 0.284237 0.171336 -0.488445
O1    O     O_R   0.385310 0.683210 0.499990 -0.623301
O2    O     O_R   0.614650 0.683240 0.500000 -0.583508
O3    O     O_R   0.319830 0.499970 0.632240 -0.567609
O4    O     O_R   0.549170 0.500000 0.632250 -0.582444
O5    O     O_R   0.385350 0.316760 0.500000 -0.619968
O6    O     O_R   0.614690 0.316790 0.500010 -0.585156
O7    O     O_R   0.450830 0.500000 0.367750 -0.639872
O8    O     O_R   0.680170 0.500030 0.367760 -0.582695
Zn1   Zn    Zn3+2 0.346870 0.499980 0.499990 0.980805
Zn2   Zn    Zn3+2 0.653130 0.500020 0.500010 1.025432

loop_
_geom_bond_atom_site_label_1
_geom_bond_atom_site_label_2
_ccdc_geom_bond_type
C19   I1    S    
O5    Zn1   S    
C34   H1    S    
C35   C36   A    
C16   O6    A    
O6    Zn2   S    
C22   I2    S    
C4    O4    A    
C12   C23   A    
O8    Zn2   S    
C18   C24   S    
C28   C29   A    
H10   N5    S    
C3    C7    A    
C5    C6    A    
C28   H4    S    
C19   N1    A    
C18   C21   A    
C1    O2    A    
C7    C27   A    
C25   O8    A    
C31   C32   A    
C8    C9    A    
C33   N5    S    
C15   N3    S    
C6    H2    S    
C15   H15   S    
C9    C10   A    
H11   N5    S    
C13   C14   A    
O7    Zn1   S    
N1    Zn2   S    
H8    N4    S    
C16   O5    A    
C17   H16   S    
C4    O3    A    
H7    N3    S    
C5    H12   S    
C1    C9    S    
C18   N1    A    
C6    C27   A    
C29   I5    S    
C23   C34   A    
C33   C34   A    
C23   C28   A    
C26   C30   A    
C12   C31   A    
O4    Zn2   S    
C22   C24   S    
C30   I6    S    
C2    C5    A    
O2    Zn2   S    
H6    N3    S    
C2    C36   A    
C15   C17   S    
C8    C14   A    
C12   C30   A    
C36   H3    S    
C20   H17   S    
C4    C26   S    
C22   H19   S    
C25   C27   S    
C19   C20   A    
C17   N4    S    
C8    C17   S    
C32   C33   A    
C20   N2    A    
C2    C3    A    
C11   H14   S    
H9    N4    S    
C11   C13   A    
N2    Zn1   S    
C24   I4    S    
C31   C35   A    
C1    O1    A    
O3    Zn1   S    
C25   O7    A    
C3    C32   A    
C35   H5    S    
C21   N2    A    
C10   C11   A    
O1    Zn1   S    
C26   C29   A    
C24   I3    S    
C13   C16   S    
C14   C15   S    
C7    H18   S    
C21   C22   S    
C10   H13   S    
