data_mof_unit_60530.cif
_audit_creation_date              2012-10-26T19:52:05-0400
_audit_creation_method            fapswitch 2.2
_symmetry_space_group_name_H-M    P1
_symmetry_Int_Tables_number       1
_space_group_crystal_system       triclinic
_cell_length_a                    16.991723
_cell_length_b                    18.162797
_cell_length_c                    19.416613
_cell_angle_alpha                 90.530089
_cell_angle_beta                  89.537262
_cell_angle_gamma                 93.273218
_cell_volume                      5982.09826619

loop_
_atom_site_label
_atom_site_type_symbol
_atom_type_description
_atom_site_fract_x
_atom_site_fract_y
_atom_site_fract_z
_atom_type_partial_charge
Br1   Br    Br    0.392273 0.623081 0.705603 -0.521093
Br2   Br    Br    0.608208 0.374341 0.296902 -0.534129
Br3   Br    Br    0.589588 0.646816 0.921806 -0.494750
Br4   Br    Br    0.420560 0.353293 0.077387 -0.483319
C1    C     C_R   0.502729 0.499779 0.367538 0.558181
C2    C     C_R   0.545645 0.445668 0.254313 0.164377
C3    C     C_R   0.498837 0.501102 0.707994 0.019391
C4    C     C_R   0.505361 0.499151 0.291874 0.024636
C5    C     C_R   0.539307 0.561994 0.965520 0.170067
C6    C     C_R   0.471779 0.437846 0.033942 0.169371
C7    C     C_R   0.537057 0.560476 0.037277 -0.109345
C8    C     C_R   0.474167 0.439336 0.962195 -0.109086
C9    C     C_R   0.503648 0.498779 0.071870 -0.002600
C10   C     C_R   0.507343 0.501116 0.927644 -0.001996
C11   C     C_R   0.557297 0.723725 0.464985 0.039699
C12   C     C_R   0.498545 0.500288 0.632441 0.560620
C13   C     C_R   0.442339 0.276238 0.534569 0.054109
C14   C     C_R   0.558490 0.801083 0.464443 -0.144354
C15   C     C_R   0.441201 0.198868 0.535210 -0.138040
C16   C     C_R   0.650908 0.508682 0.501691 0.546872
C17   C     C_R   0.349105 0.491379 0.498011 0.553776
C18   C     C_R   0.499927 0.838441 0.499905 0.017347
C19   C     C_R   0.500100 0.161490 0.500205 0.016846
C20   C     C_R   0.441232 0.795517 0.535180 -0.132930
C21   C     C_R   0.559161 0.204445 0.465398 -0.126609
C22   C     C_R   0.442380 0.718292 0.534558 0.062076
C23   C     C_R   0.544209 0.448666 0.814083 -0.118765
C24   C     C_R   0.558075 0.281686 0.466064 0.076450
C25   C     C_R   0.428886 0.957488 0.498135 -0.104847
C26   C     C_R   0.571140 0.042394 0.502024 -0.104134
C27   C     C_R   0.428932 0.034848 0.498215 -0.100842
C28   C     C_R   0.571091 0.965034 0.501911 -0.101916
C29   C     C_R   0.500059 0.078651 0.500162 0.035527
C30   C     C_R   0.499966 0.921252 0.499974 0.035496
C31   C     C_R   0.736716 0.511872 0.508718 0.003833
C32   C     C_R   0.263882 0.488005 0.486624 0.012705
C33   C     C_R   0.776509 0.552482 0.562307 -0.008014
C34   C     C_R   0.466200 0.553253 0.184440 -0.118797
C35   C     C_R   0.230737 0.523453 0.429409 -0.000219
C36   C     C_R   0.860319 0.551017 0.566227 0.041167
C37   C     C_R   0.147151 0.523479 0.424158 0.046361
C38   C     C_R   0.900760 0.505950 0.519458 0.211403
C39   C     C_R   0.099797 0.487224 0.475027 0.218241
C40   C     C_R   0.858791 0.464681 0.468800 -0.108385
C41   C     C_R   0.134246 0.450408 0.529221 -0.103504
C42   C     C_R   0.778208 0.468327 0.463242 -0.172024
C43   C     C_R   0.215486 0.450791 0.534839 -0.166858
C44   C     C_R   0.540959 0.448444 0.742436 -0.161623
C45   C     C_R   0.505558 0.501687 0.852177 0.023703
C46   C     C_R   0.467093 0.553502 0.256136 -0.163521
C47   C     C_3   0.284567 0.558184 0.373906 -0.259889
C48   C     C_3   0.294043 0.642050 0.381826 -0.411634
C49   C     C_3   0.729034 0.592209 0.616750 -0.258245
C50   C     C_3   0.726893 0.674530 0.602077 -0.403882
C51   C     C_3   0.106213 0.562167 0.366106 -0.252947
C52   C     C_3   0.069273 0.632490 0.391503 -0.425129
C53   C     C_3   0.908693 0.596837 0.618740 -0.255720
C54   C     C_3   0.954937 0.661636 0.584688 -0.424133
C55   C     C_R   0.503895 0.498797 0.147423 0.023737
C56   C     C_R   0.462043 0.553325 0.818331 -0.033821
C57   C     C_R   0.544520 0.445985 0.182520 -0.031054
C58   C     C_R   0.458285 0.553494 0.746635 0.160156
Cu1   Cu    Cu3+1 0.500020 0.573360 0.500000 0.950720
Cu2   Cu    Cu3+1 0.499980 0.426640 0.500000 0.973486
H1    H     H_    0.562401 0.607151 0.066266 0.151980
H2    H     H_    0.603999 0.313881 0.439367 0.166990
H3    H     H_    0.372928 0.926022 0.495401 0.104681
H4    H     H_    0.627110 0.073828 0.504795 0.106871
H5    H     H_    0.373002 0.060332 0.495521 0.110109
H6    H     H_    0.627010 0.939519 0.504573 0.106847
H7    H     H_    0.888464 0.428948 0.433348 0.152009
H8    H     H_    0.097745 0.421447 0.567391 0.143564
H9    H     H_    0.747637 0.436071 0.423367 0.157175
H10   H     H_    0.240845 0.423201 0.577922 0.126745
H11   H     H_    0.572284 0.407649 0.713812 0.132792
H12   H     H_    0.448632 0.392769 0.933170 0.152703
H13   H     H_    0.436991 0.595766 0.283685 0.122683
H14   H     H_    0.577276 0.407898 0.839871 0.132692
H15   H     H_    0.435589 0.595118 0.157772 0.130092
H16   H     H_    0.430031 0.592894 0.847915 0.172734
H17   H     H_    0.576190 0.405444 0.153860 0.173944
H18   H     H_    0.238509 0.668011 0.369701 0.144811
H19   H     H_    0.311789 0.657721 0.435103 0.175100
H20   H     H_    0.340239 0.664343 0.345753 0.134949
H21   H     H_    0.343764 0.536000 0.375301 0.159525
H22   H     H_    0.263704 0.542362 0.321602 0.132963
H23   H     H_    0.602229 0.695762 0.436962 0.127612
H24   H     H_    0.786341 0.702384 0.606789 0.144155
H25   H     H_    0.704463 0.683367 0.549429 0.167493
H26   H     H_    0.687057 0.700234 0.639751 0.164826
H27   H     H_    0.667523 0.568652 0.620030 0.165159
H28   H     H_    0.751665 0.583052 0.669171 0.137558
H29   H     H_    0.050971 0.664741 0.346645 0.138708
H30   H     H_    0.016119 0.619263 0.423499 0.180755
H31   H     H_    0.112064 0.667272 0.422276 0.147414
H32   H     H_    0.145908 0.577369 0.322629 0.137776
H33   H     H_    0.059593 0.524063 0.343566 0.163143
H34   H     H_    0.397115 0.304172 0.562244 0.127243
H35   H     H_    0.002158 0.642165 0.550502 0.177585
H36   H     H_    0.915111 0.694688 0.554007 0.145439
H37   H     H_    0.983081 0.697796 0.624991 0.145135
H38   H     H_    0.872733 0.619719 0.660479 0.141591
H39   H     H_    0.950328 0.561394 0.644822 0.165426
H40   H     H_    0.604279 0.831247 0.435490 0.097255
H41   H     H_    0.395161 0.168721 0.563882 0.097711
H42   H     H_    0.395262 0.821323 0.563934 0.110081
H43   H     H_    0.605436 0.178673 0.437012 0.110617
H44   H     H_    0.396883 0.686074 0.561785 0.170417
N1    N     N_2   0.983796 0.502288 0.525124 -0.258007
N2    N     N_2   0.016871 0.486986 0.469713 -0.263807
N3    N     N_R   0.500010 0.683620 0.500020 -0.225380
N4    N     N_R   0.499990 0.316380 0.499980 -0.223164
O1    O     O_R   0.500030 0.561980 0.400180 -0.520015
O2    O     O_R   0.499970 0.438020 0.599820 -0.514157
O3    O     O_R   0.500000 0.438070 0.400190 -0.449827
O4    O     O_R   0.500000 0.561930 0.599810 -0.458262
O5    O     O_R   0.613940 0.568730 0.499360 -0.512042
O6    O     O_R   0.386060 0.431270 0.500640 -0.507210
O7    O     O_R   0.613910 0.444830 0.499370 -0.503681
O8    O     O_R   0.386090 0.555170 0.500630 -0.501707

loop_
_geom_bond_atom_site_label_1
_geom_bond_atom_site_label_2
_ccdc_geom_bond_type
C23   C44   A    
C11   C14   A    
C35   C47   S    
C51   C52   S    
C13   N4    A    
C52   H31   S    
C24   H2    S    
C23   H14   S    
Br1   C58   S    
C47   H21   S    
C35   C37   A    
C17   C32   S    
C49   C50   S    
C24   N4    A    
C21   C24   A    
C52   H30   S    
C53   H38   S    
C45   C56   A    
C32   C43   A    
C2    C57   A    
C31   C33   A    
C38   N1    S    
C20   C22   A    
C50   H26   S    
C17   O8    A    
Cu1   O5    S    
Cu2   N4    S    
C10   C45   S    
C34   H15   S    
Cu2   O6    S    
C40   H7    S    
C56   C58   A    
C48   H20   S    
C37   C51   S    
C25   H3    S    
C16   C31   S    
C19   C29   S    
C49   H27   S    
C27   C29   A    
C39   N2    S    
C13   H34   S    
C33   C49   S    
C36   C38   A    
Cu2   O3    S    
C1    O3    A    
C41   H8    S    
C37   C39   A    
C44   H11   S    
Br2   C2    S    
C38   C40   A    
C18   C30   S    
C12   O4    A    
C47   H22   S    
C16   O5    A    
C40   C42   A    
C41   C43   A    
C52   H29   S    
C53   H39   S    
C55   C57   A    
Cu2   O2    S    
C47   C48   S    
C11   N3    A    
C54   H36   S    
C50   H25   S    
C22   H44   S    
C2    C4    A    
C25   C30   A    
C34   C55   A    
C28   C30   A    
C48   H19   S    
C15   C19   A    
C5    C10   A    
C3    C58   A    
C17   O6    A    
Br3   C5    S    
C39   C41   A    
C51   H33   S    
C49   H28   S    
C54   H37   S    
C14   H40   S    
C48   H18   S    
C5    C7    A    
C6    C8    A    
C9    C55   S    
Cu1   O4    S    
C15   H41   S    
C3    C12   S    
C8    C10   A    
C8    H12   S    
C18   C20   A    
C20   H42   S    
Cu2   O7    S    
C46   H13   S    
C4    C46   A    
C21   H43   S    
C11   H23   S    
C56   H16   S    
C36   C53   S    
C26   C29   A    
C1    O1    A    
C14   C18   A    
C32   C35   A    
C54   H35   S    
C43   H10   S    
C51   H32   S    
C6    C9    A    
C12   O2    A    
C1    C4    S    
C28   H6    S    
C34   C46   A    
C33   C36   A    
C3    C44   A    
C50   H24   S    
C25   C27   A    
C57   H17   S    
N1    N2    D    
C26   C28   A    
Cu1   O8    S    
C7    C9    A    
C16   O7    A    
C53   C54   S    
C13   C15   A    
C19   C21   A    
Cu1   N3    S    
Cu1   Cu2   S    
Cu1   O1    S    
C7    H1    S    
C27   H5    S    
C31   C42   A    
Br4   C6    S    
C22   N3    A    
C42   H9    S    
C26   H4    S    
C23   C45   A    
