data_mof_unit_53493.cif
_audit_creation_date              2012-12-11T16:08:38-0500
_audit_creation_method            fapswitch 2.2
_symmetry_space_group_name_H-M    P1
_symmetry_Int_Tables_number       1
_space_group_crystal_system       triclinic
_cell_length_a                    12.932139
_cell_length_b                    13.302799
_cell_length_c                    27.719919
_cell_angle_alpha                 93.874959
_cell_angle_beta                  90.633737
_cell_angle_gamma                 118.712515
_cell_volume                      4167.67106919

loop_
_atom_site_label
_atom_site_type_symbol
_atom_type_description
_atom_site_fract_x
_atom_site_fract_y
_atom_site_fract_z
_atom_type_partial_charge
C1    C     C_R   0.628235 0.897185 0.427192 0.539215
C2    C     C_R   0.572175 0.325300 0.225789 0.135189
C3    C     C_R   0.565511 0.317446 0.275899 -0.091076
C4    C     C_R   0.652088 0.306646 0.302211 -0.027215
C5    C     C_R   0.666416 0.322858 0.201669 0.051585
C6    C     C_1   0.683735 0.350706 0.151703 0.076382
C7    C     C_1   0.641816 0.290547 0.352931 -0.016178
C8    C     C_1   0.698538 0.384837 0.111646 0.078468
C9    C     C_R   0.147618 0.747749 0.356874 0.125670
C10   C     C_R   0.148643 0.739918 0.306579 -0.011588
C11   C     C_R   0.147252 0.721295 0.205331 0.010300
C12   C     C_R   0.600553 0.222432 0.440662 0.546280
C13   C     C_R   0.149704 0.635440 0.232435 0.113978
C14   C     C_R   0.140524 0.641582 0.281976 -0.078617
C15   C     C_R   0.109624 0.701052 0.156310 0.080440
C16   C     C_R   0.117309 0.793750 0.130018 -0.011124
C17   C     C_R   0.204264 0.950902 0.357310 0.119878
C18   C     C_R   0.196649 0.941583 0.306368 0.018871
C19   C     C_R   0.172781 0.836562 0.281006 -0.001904
C20   C     C_R   0.219580 0.036230 0.280077 -0.075936
C21   C     C_R   0.215741 0.026220 0.229755 -0.074714
C22   C     C_R   0.186121 0.920750 0.203924 0.014746
C23   C     C_R   0.265583 0.876609 0.426809 0.573287
C24   C     C_R   0.169248 0.826495 0.229968 -0.004118
C25   C     C_R   0.168362 0.905942 0.153107 0.061972
C26   C     C_R   0.195051 0.856676 0.381734 0.025130
C27   C     C_R   0.753322 0.945078 0.356515 -0.091445
C28   C     C_R   0.763765 0.932008 0.306635 -0.017112
C29   C     C_R   0.761595 0.914530 0.204892 -0.017102
C30   C     C_R   0.857594 0.007216 0.231916 0.230183
C31   C     C_R   0.856909 0.017631 0.282683 0.165224
C32   C     C_R   0.749074 0.908395 0.154222 0.172273
C33   C     C_R   0.678058 0.802083 0.128134 -0.003086
C34   C     C_R   0.626929 0.899097 0.565190 0.561545
C35   C     C_R   0.575977 0.760083 0.353830 -0.121666
C36   C     C_R   0.586698 0.743549 0.304257 0.023053
C37   C     C_R   0.677001 0.831944 0.280044 0.029440
C38   C     C_R   0.504997 0.642154 0.278150 -0.113199
C39   C     C_R   0.508450 0.630167 0.228127 -0.069794
C40   C     C_R   0.590295 0.720668 0.202704 0.013953
C41   C     C_R   0.677346 0.821864 0.229176 -0.033319
C42   C     C_R   0.589860 0.710826 0.151739 0.052547
C43   C     C_R   0.655571 0.863494 0.379510 -0.008734
C44   C     C_R   0.748110 0.353126 0.645809 -0.107423
C45   C     C_R   0.603961 0.227665 0.577892 0.566256
C46   C     C_R   0.770428 0.383461 0.696104 0.033239
C47   C     C_R   0.804521 0.442792 0.796918 0.019909
C48   C     C_R   0.902927 0.468787 0.768260 0.139703
C49   C     C_R   0.886054 0.446349 0.717397 0.200353
C50   C     C_R   0.816800 0.472077 0.847092 -0.106615
C51   C     C_R   0.718544 0.457250 0.873066 0.004164
C52   C     C_R   0.546691 0.217816 0.660582 0.208789
C53   C     C_R   0.557836 0.268395 0.706866 0.034784
C54   C     C_R   0.672612 0.345836 0.726032 -0.008759
C55   C     C_R   0.459069 0.235134 0.735429 0.204227
C56   C     C_R   0.268236 0.877334 0.562295 0.574504
C57   C     C_R   0.475552 0.274367 0.784267 0.145917
C58   C     C_R   0.589621 0.355544 0.803024 0.000017
C59   C     C_R   0.689192 0.382350 0.775196 0.000117
C60   C     C_R   0.607429 0.413201 0.848567 0.108535
C61   C     C_R   0.633950 0.272708 0.628220 0.023425
C62   C     C_1   0.212409 0.854961 0.607911 0.077352
C63   C     C_R   0.259806 0.854135 0.731795 -0.026387
C64   C     C_R   0.247839 0.852255 0.781831 0.177556
C65   C     C_R   0.042146 0.803815 0.769320 0.160900
C66   C     C_R   0.055739 0.808015 0.719262 -0.044246
C67   C     C_1   0.628395 0.267024 0.394328 0.036890
C68   C     C_R   0.164563 0.833210 0.700393 0.019457
C69   C     C_R   0.138690 0.827211 0.800997 0.074310
C70   C     C_1   0.122085 0.815539 0.852236 0.078326
C71   C     C_1   0.182533 0.841679 0.649185 0.043273
C72   C     C_1   0.099261 0.798135 0.893973 0.066940
C73   C     C_1   0.640203 0.868531 0.612467 0.070453
C74   C     C_R   0.687171 0.940530 0.738410 0.187765
C75   C     C_R   0.686083 0.930190 0.788725 0.165868
C76   C     C_R   0.605149 0.723445 0.773138 -0.062115
C77   C     C_R   0.606569 0.733047 0.723364 0.091088
C78   C     C_R   0.742142 0.298399 0.278199 -0.078273
C79   C     C_R   0.648117 0.841670 0.705746 0.026573
C80   C     C_R   0.645372 0.820927 0.805861 0.025361
C81   C     C_1   0.659274 0.808268 0.856329 0.053991
C82   C     C_1   0.645693 0.852353 0.654414 0.054585
C83   C     C_1   0.679666 0.795442 0.897294 0.069267
C84   C     C_R   0.060358 0.767602 0.080717 0.564404
C85   C     C_R   0.716363 0.439435 0.066995 0.567855
C86   C     C_R   0.719022 0.781908 0.080782 0.565635
C87   C     C_R   0.056105 0.766298 0.941110 0.544396
C88   C     C_R   0.731498 0.488628 0.925307 0.552245
C89   C     C_R   0.749288 0.305664 0.228271 0.159753
C90   C     C_R   0.715935 0.777122 0.943385 0.551387
Cr1   Cr    Cr6+3 0.416430 0.829200 0.492370 1.102566
Cr2   Cr    Cr6+3 0.674630 0.087020 0.504170 1.101150
Cr3   Cr    Cr6+3 0.408920 0.083740 0.503490 1.137283
Cr4   Cr    Cr6+3 0.914010 0.832750 0.013970 1.130996
Cr5   Cr    Cr6+3 0.922310 0.578600 0.003000 1.109799
Cr6   Cr    Cr6+3 0.656280 0.574630 0.003870 1.120125
H1    H     H_    0.806153 0.284633 0.298214 0.184213
H2    H     H_    0.232680 0.101553 0.211670 0.217523
H3    H     H_    0.241897 0.119495 0.297798 0.198919
H4    H     H_    0.816002 0.023323 0.377142 0.199243
H5    H     H_    0.445476 0.549288 0.209811 0.213710
H6    H     H_    0.437329 0.572323 0.296347 0.149189
H7    H     H_    0.501816 0.695705 0.371667 0.144073
H8    H     H_    0.902446 0.512296 0.865968 0.164425
H9    H     H_    0.817924 0.385798 0.620628 0.171731
H10   H     H_    0.343888 0.871817 0.717475 0.189161
H11   H     H_    0.981453 0.790876 0.695224 0.163171
H12   H     H_    0.576636 0.639772 0.786232 0.177162
H13   H     H_    0.492387 0.318670 0.294145 0.158823
H14   H     H_    0.138581 0.573020 0.301487 0.196338
O1    O     O_R   0.296680 0.802170 0.437540 -0.470579
O2    O     O_R   0.662610 0.183990 0.557860 -0.479757
O3    O     O_R   0.500730 0.201280 0.562180 -0.467559
O4    O     O_R   0.312500 0.978850 0.548170 -0.461201
O5    O     O_3   0.499990 0.999990 0.500010 -0.279943
O6    O     O_R   0.820790 0.857990 0.068830 -0.454104
O7    O     O_R   0.016700 0.827330 0.062850 -0.468999
O8    O     O_R   0.041970 0.673520 0.060040 -0.479252
O9    O     O_R   0.817980 0.483660 0.048840 -0.472703
O10   O     O_R   0.637200 0.461990 0.052510 -0.468088
O11   O     O_R   0.664790 0.681920 0.057970 -0.482938
O12   O     O_R   0.525380 0.838530 0.443500 -0.501040
O13   O     O_R   0.815840 0.852920 0.961840 -0.479077
O14   O     O_R   0.012100 0.822630 0.963670 -0.483081
O15   O     O_R   0.037010 0.668460 0.953040 -0.504032
O16   O     O_R   0.813390 0.478970 0.949660 -0.485895
O17   O     O_R   0.632250 0.456930 0.945520 -0.458799
O18   O     O_R   0.660200 0.677230 0.958780 -0.499166
O19   O     O_3   0.830870 0.661990 0.006950 -0.318272
O20   O     O_R   0.702130 0.995190 0.446810 -0.509993
O21   O     O_R   0.661770 0.181390 0.458760 -0.495844
O22   O     O_R   0.499820 0.198480 0.455280 -0.475999
O23   O     O_R   0.311660 0.976250 0.449080 -0.469312
O24   O     O_R   0.297580 0.804960 0.544440 -0.484332
O25   O     O_R   0.526220 0.841130 0.542590 -0.486528
O26   O     O_R   0.703030 0.997990 0.553710 -0.475046
Br1   Br    Br    0.221783 0.089388 0.392815 -0.422168
Br2   Br    Br    0.797043 0.044295 0.119589 -0.301905
Br3   Br    Br    0.002539 0.105092 0.201918 -0.297570
Br4   Br    Br    0.984785 0.149678 0.318613 -0.398473
I1    I     I_    0.446242 0.567741 0.110461 -0.152447
Br5   Br    Br    0.870747 0.285762 0.198778 -0.328358
I2    I     I_    0.076159 0.532930 0.801091 -0.187807
Br6   Br    Br    0.021189 0.495609 0.677727 -0.424465
I3    I     I_    0.488076 0.478277 0.867852 -0.214495
I4    I     I_    0.335346 0.180262 0.830899 -0.119785
Br7   Br    Br    0.300057 0.152475 0.706684 -0.365257
Br8   Br    Br    0.463606 0.053164 0.652098 -0.466960
Br9   Br    Br    0.448898 0.335616 0.191381 -0.485308
Br10  Br    Br    0.381778 0.881143 0.822529 -0.438245
Br11  Br    Br    0.889234 0.761950 0.792934 -0.561496
Br12  Br    Br    0.744630 0.089837 0.714094 -0.394073
I5    I     I_    0.748070 0.078801 0.838941 -0.136812
I6    I     I_    0.549069 0.580532 0.676859 -0.280251
I7    I     I_    0.003178 0.522310 0.130526 -0.148350
Br13  Br    Br    0.082113 0.610688 0.392034 -0.453682
I8    I     I_    0.202377 0.511829 0.208226 -0.166590
I9    I     I_    0.217492 0.051011 0.111214 -0.140994

loop_
_geom_bond_atom_site_label_1
_geom_bond_atom_site_label_2
_ccdc_geom_bond_type
C66   C68   A    
C50   H8    S    
C12   O21   A    
C90   O13   A    
C35   C36   A    
Cr5   O16   S    
C66   H11   S    
C45   O2    A    
C53   C54   A    
C32   Br2   S    
Cr1   O24   S    
C46   C49   A    
Cr6   O11   S    
C5    C6    S    
C33   C42   A    
C34   O25   A    
C36   C37   A    
C8    C85   S    
C29   C32   A    
Cr3   O23   S    
C52   C61   A    
C38   C39   A    
Cr4   O7    S    
C58   C60   A    
C15   C16   A    
C49   Br6   S    
C11   C24   A    
C16   C84   S    
Cr6   O18   S    
C18   C20   A    
C86   O6    A    
C18   C19   A    
Cr3   O5    S    
C23   C26   S    
Cr1   O1    S    
C85   O9    A    
C75   I5    S    
C1    O12   A    
C88   O16   A    
C11   C15   A    
C1    C43   S    
C9    Br13  S    
C84   O7    A    
Cr1   O12   S    
C76   H12   S    
Cr3   O22   S    
C35   C43   A    
C75   C80   A    
C15   I7    S    
Cr4   O13   S    
C2    Br9   S    
C40   C42   A    
C42   I1    S    
C52   Br8   S    
C21   C22   A    
C74   Br12  S    
Cr2   O26   S    
C86   O11   A    
C4    C7    S    
C13   I8    S    
C81   C83   T    
C44   C46   A    
C9    C26   A    
C39   H5    S    
C47   C50   A    
C54   C59   A    
C53   C55   A    
C78   C89   A    
C12   C67   S    
C27   H4    S    
Cr4   O19   S    
C70   C72   T    
C74   C75   A    
C23   O23   A    
Cr2   O21   S    
C76   C77   A    
C1    O20   A    
C10   C14   A    
C39   C40   A    
Cr4   O6    S    
Cr2   O2    S    
C6    C8    T    
Cr5   O9    S    
C58   C59   A    
C44   H9    S    
C7    C67   T    
C22   C25   A    
C48   I2    S    
C64   Br10  S    
C65   Br11  S    
C85   O10   A    
Cr2   O20   S    
C33   C86   S    
C4    C78   A    
C29   C30   A    
C27   C43   A    
C77   I6    S    
Cr5   O15   S    
C55   Br7   S    
C47   C48   A    
C34   O26   A    
C10   C19   A    
C46   C54   A    
C78   H1    S    
C17   C18   A    
C77   C79   A    
C50   C51   A    
Cr3   O3    S    
C64   C69   A    
C63   H10   S    
C48   C49   A    
C74   C79   A    
C55   C57   A    
C22   C24   A    
C2    C5    A    
C60   I3    S    
C17   C26   A    
C3    C4    A    
C73   C82   T    
C87   O15   A    
C72   C87   S    
C52   C53   A    
C9    C10   A    
C16   C25   A    
C14   H14   S    
C83   C90   S    
C63   C68   A    
C40   C41   A    
C90   O18   A    
C30   Br3   S    
C12   O22   A    
C29   C41   A    
Cr5   O8    S    
Cr6   O10   S    
C28   C31   A    
C76   C80   A    
C80   C81   S    
C51   C88   S    
C79   C82   S    
C56   O24   A    
C44   C61   A    
C88   O17   A    
C23   O1    A    
C35   H7    S    
C57   I4    S    
C32   C33   A    
C36   C38   A    
C19   C24   A    
C38   H6    S    
C21   H2    S    
C11   C13   A    
C30   C31   A    
C57   C58   A    
C87   O14   A    
C20   H3    S    
C28   C37   A    
C3    H13   S    
C68   C71   S    
C65   C69   A    
C45   C61   S    
Cr1   O5    S    
C62   C71   T    
C2    C3    A    
C56   C62   S    
Cr3   O4    S    
C37   C41   A    
C69   C70   S    
Cr2   O5    S    
C34   C73   S    
C47   C59   A    
C63   C64   A    
C45   O3    A    
Cr1   O25   S    
C20   C21   A    
Cr6   O17   S    
C84   O8    A    
C65   C66   A    
C25   I9    S    
Cr5   O19   S    
C56   O4    A    
C17   Br1   S    
C51   C60   A    
C31   Br4   S    
C13   C14   A    
C5    C89   A    
C89   Br5   S    
Cr6   O19   S    
C27   C28   A    
Cr4   O14   S    
