data_mof_unit_20408.cif
_audit_creation_date              2012-12-11T14:46:06-0500
_audit_creation_method            fapswitch 2.2
_symmetry_space_group_name_H-M    P1
_symmetry_Int_Tables_number       1
_space_group_crystal_system       triclinic
_cell_length_a                    10.936494
_cell_length_b                    10.913114
_cell_length_c                    18.771152
_cell_angle_alpha                 89.585858
_cell_angle_beta                  90.631225
_cell_angle_gamma                 120.285966
_cell_volume                      1934.47230467

loop_
_atom_site_label
_atom_site_type_symbol
_atom_type_description
_atom_site_fract_x
_atom_site_fract_y
_atom_site_fract_z
_atom_type_partial_charge
C1    C     C_R   0.903003 0.612509 0.611740 0.569862
C2    C     C_R   0.514203 0.726824 0.762579 -0.112479
C3    C     C_R   0.470126 0.704008 0.691437 0.364432
C4    C     C_R   0.331460 0.669640 0.674162 0.039121
C5    C     C_R   0.822127 0.141211 0.816834 -0.010365
C6    C     C_R   0.081187 0.238502 0.823863 0.417603
C7    C     C_R   0.205069 0.261302 0.791801 -0.050201
C8    C     C_R   0.204361 0.227425 0.720504 -0.173656
C9    C     C_R   0.081665 0.180273 0.679575 -0.079899
C10   C     C_R   0.956847 0.164917 0.709837 -0.038284
C11   C     C_R   0.952645 0.179877 0.784392 0.000003
C12   C     C_R   0.275875 0.634686 0.602332 0.579575
C13   C     C_R   0.705619 0.086108 0.699140 0.023342
C14   C     C_R   0.699112 0.105548 0.772666 -0.020247
C15   C     C_R   0.580884 0.026933 0.656725 -0.045082
C16   C     C_R   0.454395 0.005980 0.684053 -0.135320
C17   C     C_R   0.449678 0.041469 0.754060 -0.145107
C18   C     C_R   0.569380 0.091212 0.797628 -0.080673
C19   C     C_R   0.837851 0.138367 0.667360 -0.003815
C20   C     C_R   0.752839 0.512736 0.719860 -0.153863
C21   C     C_R   0.729561 0.521484 0.792375 -0.052201
C22   C     C_R   0.831446 0.640628 0.831564 0.041800
C23   C     C_R   0.860214 0.219564 0.600521 0.528908
C24   C     C_R   0.962314 0.735931 0.798926 0.339212
C25   C     C_R   0.979883 0.729135 0.727132 -0.113999
C26   C     C_R   0.875286 0.619596 0.686779 -0.030121
C27   C     C_R   0.405247 0.629236 0.295557 -0.128084
C28   C     C_R   0.425084 0.637795 0.223268 -0.101680
C29   C     C_R   0.361328 0.694011 0.178629 -0.015250
C30   C     C_R   0.279226 0.747175 0.207332 -0.007807
C31   C     C_R   0.257360 0.735254 0.280842 -0.043260
C32   C     C_R   0.319208 0.675075 0.324425 -0.002827
C33   C     C_R   0.712441 0.092411 0.293444 -0.011555
C34   C     C_R   0.863837 0.640439 0.398191 0.587550
C35   C     C_R   0.705222 0.077168 0.220380 -0.112957
C36   C     C_R   0.828523 0.136044 0.178737 -0.051442
C37   C     C_R   0.963057 0.204774 0.210998 -0.032710
C38   C     C_R   0.970243 0.218127 0.284917 -0.054733
C39   C     C_R   0.846263 0.168365 0.325747 0.001252
C40   C     C_R   0.872355 0.803385 0.303445 0.386966
C41   C     C_R   0.856918 0.824210 0.231817 -0.059952
C42   C     C_R   0.782746 0.707931 0.186706 -0.040263
C43   C     C_R   0.717074 0.569547 0.214135 -0.156630
C44   C     C_R   0.732406 0.548076 0.285728 -0.199861
C45   C     C_R   0.270182 0.634806 0.396350 0.539126
C46   C     C_R   0.815073 0.664669 0.330078 0.015203
C47   C     C_R   0.801546 0.098078 0.892906 0.604899
C48   C     C_R   0.460685 0.725271 0.889655 0.537786
C49   C     C_R   0.799937 0.687340 0.898953 0.581069
C50   C     C_R   0.806035 0.103524 0.103531 0.520209
C51   C     C_R   0.397143 0.704668 0.104129 0.513458
C52   C     C_R   0.774370 0.734134 0.111513 0.540931
C53   C     C_R   0.861498 0.227057 0.396549 0.537663
C54   C     C_R   0.235399 0.648095 0.727942 -0.186066
C55   C     C_R   0.279043 0.672059 0.798430 -0.087167
C56   C     C_R   0.418816 0.712759 0.815706 -0.020241
Cr1   Cr    Cr6+3 0.791660 0.390250 0.499930 1.041335
Cr2   Cr    Cr6+3 0.098520 0.708290 0.500540 1.057726
Cr3   Cr    Cr6+3 0.109770 0.401430 0.499480 1.053802
Cr4   Cr    Cr6+3 0.874790 0.925890 0.000070 1.114913
Cr5   Cr    Cr6+3 0.574120 0.948670 0.999300 1.054520
Cr6   Cr    Cr6+3 0.551420 0.625320 0.000920 1.100347
H1    H     H_    0.124975 0.605567 0.715221 0.108260
H2    H     H_    0.360947 0.965217 0.650457 0.129137
H3    H     H_    0.582419 0.000135 0.601385 0.152721
H4    H     H_    0.352989 0.031390 0.774789 0.172096
H5    H     H_    0.675323 0.422268 0.689293 0.149932
H6    H     H_    0.078699 0.808373 0.703422 0.150852
H7    H     H_    0.451989 0.581252 0.328452 0.151626
H8    H     H_    0.489904 0.598499 0.201859 0.162244
H9    H     H_    0.203048 0.653928 0.839638 0.190964
H10   H     H_    0.187247 0.767302 0.303746 0.200994
H11   H     H_    0.601254 0.016099 0.195898 0.186104
H12   H     H_    0.073666 0.277655 0.309990 0.200934
H13   H     H_    0.906887 0.930935 0.210890 0.163988
H14   H     H_    0.657910 0.478126 0.180020 0.181533
H15   H     H_    0.687915 0.440206 0.305055 0.177969
H16   H     H_    0.621467 0.753978 0.776345 0.110747
H17   H     H_    0.301575 0.305427 0.822901 0.156005
H18   H     H_    0.299966 0.241179 0.696379 0.118517
H19   H     H_    0.084652 0.153861 0.624428 0.159343
H20   H     H_    0.556908 0.126323 0.848819 0.206170
O1    O     O_R   0.766500 0.250040 0.579790 -0.532572
O2    O     O_R   0.218690 0.701900 0.425960 -0.503375
O3    O     O_R   0.249490 0.516440 0.419420 -0.504744
O4    O     O_R   0.982880 0.281910 0.424890 -0.490975
O5    O     O_3   0.999980 0.499990 0.499980 -0.286967
O6    O     O_R   0.895110 0.806860 0.920430 -0.437674
O7    O     O_R   0.872260 0.046970 0.925000 -0.435051
O8    O     O_R   0.691430 0.085060 0.918550 -0.533233
O9    O     O_R   0.451490 0.822460 0.925250 -0.486336
O10   O     O_R   0.413330 0.603360 0.920440 -0.458471
O11   O     O_R   0.676110 0.626250 0.926750 -0.477724
O12   O     O_R   0.798570 0.516780 0.574780 -0.476602
O13   O     O_R   0.895350 0.809870 0.080950 -0.469927
O14   O     O_R   0.872490 0.049760 0.073800 -0.518790
O15   O     O_R   0.691680 0.088070 0.079070 -0.495277
O16   O     O_R   0.451720 0.825250 0.074050 -0.515113
O17   O     O_R   0.413580 0.606370 0.080960 -0.490593
O18   O     O_R   0.676340 0.629040 0.075550 -0.494480
O19   O     O_3   0.666780 0.833290 0.000090 -0.334064
O20   O     O_R   0.984000 0.732950 0.581090 -0.504189
O21   O     O_R   0.218600 0.700890 0.574760 -0.544160
O22   O     O_R   0.249390 0.515350 0.579940 -0.482538
O23   O     O_R   0.982790 0.280900 0.573700 -0.508398
O24   O     O_R   0.766600 0.251130 0.419260 -0.521040
O25   O     O_R   0.798660 0.517790 0.425980 -0.508660
O26   O     O_R   0.984100 0.734040 0.420570 -0.438011
C57   C     C_2   0.600807 0.402093 0.823751 0.223217
H21   H     H_    0.513202 0.333473 0.789030 0.078481
O27   O     O_2   0.594672 0.372005 0.886851 -0.482377
F1    F     F_    0.073240 0.841712 0.835219 -0.628184
C58   C     C_2   0.211315 0.808098 0.161697 0.264060
H22   H     H_    0.210342 0.799143 0.104182 0.133575
O28   O     O_2   0.155499 0.869615 0.187925 -0.459960
C59   C     C_2   0.579507 0.032207 0.334552 0.248268
H23   H     H_    0.575513 0.994509 0.388624 0.121469
O29   O     O_2   0.474666 0.028797 0.309100 -0.480559
C60   C     C_2   0.095210 0.267503 0.168705 0.259157
H24   H     H_    0.092117 0.279345 0.111425 0.149095
O30   O     O_2   0.209811 0.307210 0.197482 -0.482208
F2    F     F_    0.949567 0.918308 0.345625 -0.607735
F3    F     F_    0.561659 0.715914 0.639925 -0.634038
F4    F     F_    0.090817 0.284204 0.891893 -0.618247

loop_
_geom_bond_atom_site_label_1
_geom_bond_atom_site_label_2
_ccdc_geom_bond_type
C55   C56   A    
C40   C41   A    
C41   C42   A    
C14   C18   A    
C20   H5    S    
C19   C23   S    
C35   C36   A    
C24   F1    S    
C6    F4    S    
Cr2   O5    S    
Cr4   O6    S    
C7    C8    A    
C39   C53   S    
Cr4   O7    S    
C40   C46   A    
C5    C47   S    
C17   H4    S    
C29   C30   A    
C23   O1    A    
C34   O25   A    
C28   C29   A    
C5    C11   A    
C57   O27   D    
C29   C51   S    
C38   C39   A    
C54   H1    S    
C15   C16   A    
C15   H3    S    
C59   H23   S    
C52   O13   A    
C32   C45   S    
C33   C35   A    
C53   O24   A    
C33   C39   A    
C35   H11   S    
Cr5   O16   S    
C3    F3    S    
C8    C9    A    
C50   O15   A    
C48   O9    A    
Cr6   O10   S    
Cr1   O1    S    
C53   O4    A    
C34   C46   S    
C4    C12   S    
C9    C10   A    
C27   H7    S    
Cr6   O19   S    
C51   O16   A    
Cr1   O24   S    
C21   C22   A    
C47   O7    A    
C49   O6    A    
C25   H6    S    
C44   C46   A    
C60   O30   D    
C51   O17   A    
Cr5   O15   S    
C13   C19   A    
C24   C25   A    
C12   O21   A    
C6    C11   A    
C16   C17   A    
C25   C26   A    
C52   O18   A    
Cr1   O5    S    
Cr5   O19   S    
C43   C44   A    
Cr3   O3    S    
C37   C38   A    
C2    H16   S    
Cr2   O2    S    
C41   H13   S    
C31   C32   A    
C37   C60   S    
C10   C19   A    
C17   C18   A    
Cr3   O23   S    
C5    C14   A    
C22   C49   S    
Cr6   O18   S    
Cr4   O14   S    
C31   H10   S    
Cr1   O25   S    
Cr1   O12   S    
C13   C15   A    
C1    C26   S    
C47   O8    A    
C22   C24   A    
C45   O2    A    
C42   C43   A    
Cr3   O22   S    
Cr4   O19   S    
C36   C50   S    
Cr5   O8    S    
C7    H17   S    
C58   H22   S    
C38   H12   S    
C43   H14   S    
C48   C56   S    
C54   C55   A    
C36   C37   A    
C33   C59   S    
C4    C54   A    
C27   C32   A    
C28   H8    S    
C1    O12   A    
C21   C57   S    
C60   H24   S    
C12   O22   A    
C6    C7    A    
C40   F2    S    
C45   O3    A    
C34   O26   A    
C2    C3    A    
Cr3   O4    S    
C2    C56   A    
C57   H21   S    
C50   O14   A    
C44   H15   S    
C30   C31   A    
C20   C26   A    
Cr2   O20   S    
C18   H20   S    
C59   O29   D    
Cr2   O26   S    
Cr3   O5    S    
C10   C11   A    
Cr6   O17   S    
Cr4   O13   S    
Cr5   O9    S    
C20   C21   A    
C48   O10   A    
Cr6   O11   S    
C9    H19   S    
C27   C28   A    
C8    H18   S    
Cr2   O21   S    
C16   H2    S    
C49   O11   A    
C13   C14   A    
C1    O20   A    
C55   H9    S    
C3    C4    A    
C42   C52   S    
C58   O28   D    
C30   C58   S    
C23   O23   A    
