data_mof_unit_43275.cif
_audit_creation_date              2012-12-11T19:09:25-0500
_audit_creation_method            fapswitch 2.2
_symmetry_space_group_name_H-M    P1
_symmetry_Int_Tables_number       1
_space_group_crystal_system       triclinic
_cell_length_a                    8.221012
_cell_length_b                    15.214822
_cell_length_c                    26.982457
_cell_angle_alpha                 99.328089
_cell_angle_beta                  92.771159
_cell_angle_gamma                 80.78075
_cell_volume                      3286.48148479

loop_
_atom_site_label
_atom_site_type_symbol
_atom_type_description
_atom_site_fract_x
_atom_site_fract_y
_atom_site_fract_z
_atom_type_partial_charge
Ba1   Ba    Ba6+2 0.860050 0.456430 0.522540 1.646999
Ba2   Ba    Ba6+2 0.329780 0.543490 0.477450 1.627954
C1    C     C_3   0.705606 0.139486 0.650567 -0.370958
C2    C     C_R   0.900138 0.591093 0.179960 0.574427
C3    C     C_2   0.756843 0.557683 0.273385 -0.089971
C4    C     C_3   0.207477 0.261461 0.654476 0.288846
C5    C     C_3   0.731083 0.587215 0.328915 -0.039623
C6    C     C_1   0.985308 0.485601 0.343266 0.024086
C7    C     C_2   0.032168 0.485667 0.296381 -0.121326
C8    C     C_2   0.910360 0.520311 0.257316 0.175863
C9    C     C_R   0.032121 0.512418 0.102459 -0.086709
C10   C     C_R   0.091549 0.439375 0.127715 -0.089674
C11   C     C_R   0.179304 0.361458 0.100463 -0.096328
C12   C     C_3   0.699029 0.229142 0.631973 0.344587
C13   C     C_R   0.936534 0.588857 0.129034 -0.008012
C14   C     C_2   0.841773 0.528858 0.360717 -0.278638
C15   C     C_2   0.356430 0.481668 0.640254 -0.285099
C16   C     C_3   0.194135 0.242854 0.707625 -0.349074
C17   C     C_R   0.217852 0.434556 0.974429 0.023342
C18   C     C_R   0.034157 0.578992 0.973537 0.021427
C19   C     C_R   0.145247 0.505992 0.948545 0.048646
C20   C     C_R   0.343512 0.370001 0.949883 -0.102340
C21   C     C_R   0.382601 0.369652 0.900100 -0.087354
C22   C     C_R   0.302673 0.435827 0.872873 -0.024005
C23   C     C_3   0.479063 0.686501 0.631955 0.302373
C24   C     C_R   0.185775 0.505059 0.897328 -0.078846
C25   C     C_R   0.110767 0.573941 0.870787 -0.033162
C26   C     C_R   0.152939 0.572689 0.820342 0.589746
C27   C     C_R   0.340151 0.435093 0.822051 0.577917
C28   C     C_3   0.217540 0.266113 0.411399 0.313250
C29   C     C_2   0.464555 0.489080 0.728787 -0.073897
C30   C     C_3   0.505411 0.491018 0.674621 -0.050672
C31   C     C_1   0.210016 0.519314 0.656939 0.039965
C32   C     C_2   0.171502 0.518605 0.704202 -0.107684
C33   C     C_2   0.305306 0.502344 0.743473 0.195354
C34   C     C_3   0.442292 0.723008 0.686838 -0.371820
C35   C     C_R   0.167703 0.432222 0.024407 -0.051868
C36   C     C_R   0.068655 0.509376 0.050714 0.000677
C37   C     C_R   0.003876 0.583302 0.025645 0.038901
C38   C     C_R   0.208126 0.355000 0.049178 0.388542
C39   C     C_R   0.878653 0.662332 0.104265 -0.063283
C40   C     C_3   0.248018 0.164664 0.394577 -0.393973
C41   C     C_R   0.957663 0.645733 0.945343 -0.105156
C42   C     C_R   0.995341 0.643188 0.895291 -0.062092
C43   C     C_R   0.911512 0.659820 0.053933 -0.101836
C44   C     C_R   0.353521 0.174801 0.532267 -0.007860
C45   C     C_3   0.021698 0.735296 0.347249 0.333133
C46   C     C_R   0.581121 0.207694 0.488560 0.044431
C47   C     C_R   0.757952 0.769767 0.486028 -0.289912
C48   C     C_R   0.856615 0.827751 0.473182 -0.001022
C49   C     C_R   0.809874 0.920245 0.484474 -0.150457
C50   C     C_R   0.651437 0.958299 0.503045 0.022656
C51   C     C_R   0.558454 0.898076 0.520535 -0.020259
C52   C     C_3   0.975466 0.734979 0.589042 0.306645
C53   C     C_R   0.582244 0.052460 0.505322 -0.034947
C54   C     C_R   0.426268 0.083391 0.528741 -0.068494
C55   C     C_R   0.345911 0.022916 0.548802 -0.082023
C56   C     C_3   0.023560 0.758680 0.294648 -0.331450
C57   C     C_R   0.410538 0.932700 0.544941 -0.053756
C58   C     C_R   0.656284 0.116128 0.483284 0.341984
C59   C     C_R   0.434127 0.235711 0.513634 -0.352797
C60   C     C_R   0.616928 0.803972 0.513336 0.025985
C61   C     C_3   0.948590 0.836318 0.606765 -0.385649
C62   C     C_3   0.743426 0.298064 0.362898 0.703439
C63   C     C_3   0.625120 0.367035 0.337775 -0.282551
C64   C     C_3   0.895872 0.246627 0.287133 0.254277
C65   C     C_3   0.792931 0.220794 0.239600 -0.216217
C66   C     C_3   0.853181 0.251565 0.193760 -0.445626
C67   C     C_3   0.474309 0.786228 0.368660 0.349308
C68   C     C_3   0.138744 0.232235 0.996178 0.258630
C69   C     C_3   0.047855 0.182821 0.028744 -0.207331
C70   C     C_3   0.918759 0.134420 0.997884 -0.478227
C71   C     C_3   0.833333 0.073343 0.413413 0.246648
C72   C     C_3   0.704205 0.022333 0.383380 -0.243141
C73   C     C_3   0.739367 0.005977 0.327307 -0.448684
C74   C     C_3   0.398592 0.877480 0.355075 -0.360461
C75   C     C_R   0.055737 0.443744 0.179149 0.597385
H1    H     H_    0.817281 0.228750 0.613763 0.111535
H2    H     H_    0.725308 0.083476 0.618426 0.079887
H3    H     H_    0.518808 0.336420 0.319683 0.127966
H4    H     H_    0.682284 0.396407 0.309434 0.010731
H5    H     H_    0.596376 0.235608 0.604014 -0.026373
H6    H     H_    0.587854 0.137263 0.668501 0.121670
H7    H     H_    0.364782 0.665879 0.613351 0.031419
H8    H     H_    0.578341 0.627304 0.629650 0.032951
H9    H     H_    0.350013 0.785401 0.689594 0.137088
H10   H     H_    0.391166 0.672914 0.704584 0.075357
H11   H     H_    0.556977 0.738584 0.707484 0.124528
H12   H     H_    0.336779 0.147723 0.363476 0.127227
H13   H     H_    0.808797 0.130456 0.678311 0.134901
H14   H     H_    0.117449 0.675512 0.349600 0.100683
H15   H     H_    0.898459 0.719201 0.353549 -0.044167
H16   H     H_    0.130692 0.792490 0.290273 0.138433
H17   H     H_    0.034990 0.695859 0.267069 0.124796
H18   H     H_    0.908204 0.803658 0.286772 0.121577
H19   H     H_    0.610532 0.779806 0.366335 -0.055252
H20   H     H_    0.441173 0.784607 0.407880 0.080355
H21   H     H_    0.439877 0.884176 0.317535 0.109537
H22   H     H_    0.434892 0.931989 0.383768 0.062216
H23   H     H_    0.298051 0.129491 0.426219 0.051287
H24   H     H_    0.145172 0.331309 0.652873 0.075284
H25   H     H_    0.262618 0.885788 0.354187 0.160392
H26   H     H_    0.159812 0.462507 0.286573 0.153382
H27   H     H_    0.218300 0.302262 0.118184 0.132704
H28   H     H_    0.564955 0.482185 0.756211 0.109114
H29   H     H_    0.478377 0.317579 0.883166 0.122344
H30   H     H_    0.419243 0.320750 0.968986 0.138792
H31   H     H_    0.659537 0.579099 0.247338 0.122956
H32   H     H_    0.806730 0.722853 0.123827 0.119364
H33   H     H_    0.865027 0.700502 0.960611 0.068442
H34   H     H_    0.130963 0.140822 0.380809 0.122555
H35   H     H_    0.339893 0.255560 0.645918 -0.010062
H36   H     H_    0.933200 0.696422 0.875769 0.120647
H37   H     H_    0.043404 0.530145 0.714709 0.136467
H38   H     H_    0.865246 0.720299 0.038565 0.065618
H39   H     H_    0.815831 0.537327 0.400403 0.083130
H40   H     H_    0.369945 0.446216 0.601995 0.075176
H41   H     H_    0.378380 0.305766 0.516946 0.080127
H42   H     H_    0.229426 0.043899 0.567306 0.110993
H43   H     H_    0.904846 0.958067 0.479605 0.154837
H44   H     H_    0.062507 0.247509 0.716892 0.136456
H45   H     H_    0.856999 0.713101 0.576098 0.006765
H46   H     H_    0.339902 0.890248 0.560620 0.101386
H47   H     H_    0.259897 0.174409 0.711223 0.120108
H48   H     H_    0.335188 0.289216 0.424201 0.018509
H49   H     H_    0.129575 0.281737 0.442665 0.066120
H50   H     H_    0.901240 0.873009 0.575664 0.062303
H51   H     H_    0.917766 0.317540 0.291939 0.031970
H52   H     H_    0.019940 0.205093 0.282946 0.098593
H53   H     H_    0.798948 0.146314 0.232260 0.118783
H54   H     H_    0.661785 0.251165 0.245183 0.130021
H55   H     H_    0.830470 0.326274 0.198387 0.164920
H56   H     H_    0.063094 0.719063 0.557716 0.064551
H57   H     H_    0.783753 0.225133 0.159746 0.130943
H58   H     H_    0.986436 0.225926 0.188379 0.166696
H59   H     H_    0.579816 0.422992 0.367747 0.114832
H60   H     H_    0.250002 0.293361 0.734479 0.131704
H61   H     H_    0.195221 0.182519 0.964509 0.079878
H62   H     H_    0.049557 0.282560 0.978847 0.029410
H63   H     H_    0.138060 0.132740 0.045577 0.133539
H64   H     H_    0.984997 0.231783 0.059637 0.108585
H65   H     H_    0.825844 0.183601 0.981352 0.140854
H66   H     H_    0.854833 0.099688 0.022499 0.147541
H67   H     H_    0.857907 0.853895 0.637380 0.137802
H68   H     H_    0.978182 0.083354 0.967272 0.136399
H69   H     H_    0.955055 0.030035 0.406838 0.068981
H70   H     H_    0.845726 0.134286 0.398134 0.134659
H71   H     H_    0.708318 0.956008 0.395623 0.117433
H72   H     H_    0.579318 0.061595 0.389176 0.100305
H73   H     H_    0.720636 0.070748 0.312469 0.185449
H74   H     H_    0.654201 0.962744 0.306538 0.131442
H75   H     H_    0.867843 0.971656 0.320385 0.137349
H76   H     H_    0.798911 0.697720 0.478776 0.066886
H77   H     H_    0.067026 0.858445 0.620902 0.116252
H78   H     H_    0.837797 0.331853 0.385825 -0.040284
N1    N     N_R   0.956154 0.518059 0.204814 -0.417721
N2    N     N_R   0.265253 0.503092 0.795990 -0.424264
O1    O     O_2   0.906490 0.548660 0.619040 -0.467244
O2    O     O_2   0.196515 0.821494 0.471030 -0.489936
O3    O     O_3   0.054844 0.808998 0.382459 -0.614517
O4    O     O_3   0.138490 0.548590 0.558860 -0.494797
O5    O     O_3   0.572560 0.389970 0.472910 -0.487707
O6    O     O_2   0.345680 0.723560 0.528460 -0.468956
O7    O     O_3   0.531371 0.754315 0.610156 -0.644622
O8    O     O_2   0.405090 0.543974 0.323671 -0.497224
O9    O     O_3   0.412855 0.717368 0.335367 -0.593916
O10   O     O_2   0.112107 0.380520 0.200681 -0.629489
O11   O     O_2   0.438763 0.373252 0.800963 -0.598339
O12   O     O_3   0.643167 0.261017 0.391892 -0.658320
O13   O     O_2   0.819593 0.659253 0.202261 -0.622546
O14   O     O_2   0.091469 0.634700 0.798449 -0.600486
O15   O     O_3   0.686290 0.382320 0.585720 -0.489442
O16   O     O_2   0.848990 0.426820 0.670686 -0.496902
O17   O     O_3   0.037680 0.692950 0.629726 -0.626590
O18   O     O_3   0.672693 0.299922 0.672602 -0.590986
O19   O     O_2   0.844020 0.276410 0.471510 -0.461567
O20   O     O_3   0.101490 0.335510 0.560360 -0.488097
O21   O     O_2   0.012049 0.176620 0.529589 -0.432681
O22   O     O_3   0.821619 0.224138 0.328558 -0.682591
O23   O     O_3   0.130996 0.198995 0.621074 -0.614085
O24   O     O_3   0.268232 0.270201 0.024005 -0.668558
O25   O     O_3   0.816112 0.094247 0.466370 -0.639211
O26   O     O_2   0.283210 0.451320 0.380930 -0.459602
O27   O     O_3   0.051220 0.451340 0.441130 -0.499268
O28   O     O_3   0.503420 0.617610 0.414270 -0.477866
O29   O     O_3   0.154196 0.307003 0.370373 -0.637584
O30   O     O_3   0.617160 0.609950 0.527080 -0.475148
O31   O     O_3   0.088220 0.664410 0.439630 -0.491978
P1    P     P_3+3 0.071960 0.575810 0.612130 0.995300
P2    P     P_3+3 0.664360 0.290070 0.457280 0.987331
P3    P     P_3+3 0.150160 0.220147 0.559999 0.944781
P4    P     P_3+3 0.117760 0.424110 0.387870 0.974766
P5    P     P_3+3 0.051274 0.781093 0.442669 0.941889
P6    P     P_3+3 0.679427 0.402227 0.651228 0.974770
P7    P     P_3+3 0.530894 0.723708 0.544839 0.939470
P8    P     P_3+3 0.512691 0.613606 0.349477 0.943018

loop_
_geom_bond_atom_site_label_1
_geom_bond_atom_site_label_2
_ccdc_geom_bond_type
C70   H66   S    
C53   C54   A    
C28   H49   S    
Ba1   O19   S    
O20   P3    S    
C9    C36   A    
C45   H15   S    
O15   P6    S    
C44   P3    S    
C41   C42   A    
C67   H19   S    
C1    H2    S    
O26   P4    D    
Ba2   O5    S    
C51   C57   A    
O7    P7    S    
C34   H11   S    
C74   H22   S    
C70   H65   S    
C62   H78   S    
C24   C25   A    
C35   C36   A    
C2    O13   D    
C71   H70   S    
C1    H13   S    
C28   O29   S    
C27   O11   D    
C47   H76   S    
Ba1   O1    S    
C17   C19   A    
C56   H16   S    
Ba2   P4    S    
C32   C33   S    
C35   C38   A    
C75   N1    Am   
C36   C37   A    
C48   P5    S    
C55   C57   A    
C52   C61   S    
C23   O7    S    
C74   H21   S    
C20   H30   S    
C54   C55   A    
C12   H5    S    
C67   C74   S    
C31   P1    S    
Ba1   Ba2   S    
C71   C72   S    
C4    H24   S    
C62   O12   S    
C66   H55   S    
C67   O9    S    
C11   C38   A    
C17   C35   A    
C22   C27   A    
O19   P2    D    
C25   C42   A    
C73   H74   S    
C6    C7    D    
C23   H7    S    
C21   C22   A    
O27   P4    S    
C72   H72   S    
C67   H20   S    
C68   C69   S    
C41   H33   S    
C7    C8    S    
O18   P6    S    
C46   P2    S    
C50   C53   A    
C15   H40   S    
C37   C43   A    
C64   H52   S    
O30   P7    S    
Ba1   P2    S    
C64   C65   S    
C52   H45   S    
C28   H48   S    
Ba1   O4    S    
C68   H62   S    
C6    C14   D    
C63   H3    S    
C39   H32   S    
C53   C58   A    
C57   H46   S    
C29   H28   S    
O17   P1    S    
C15   C31   D    
C60   P7    S    
C14   H39   S    
Ba2   O4    S    
Ba1   O27   S    
C46   C58   A    
C45   O3    S    
Ba1   O30   S    
C34   H10   S    
C58   O25   S    
C69   H64   S    
C4    C16   S    
C72   C73   S    
C44   C59   A    
C49   C50   A    
O29   P4    S    
C17   C20   A    
C13   C39   A    
O4    P1    S    
O1    P1    D    
C8    N1    S    
C3    C5    S    
C62   O22   S    
C27   N2    Am   
C23   C34   S    
C48   C49   A    
C52   H56   S    
C65   C66   S    
C16   H60   S    
C56   H18   S    
C33   N2    S    
C12   O18   S    
O12   P2    S    
C40   H23   S    
C51   C60   A    
C43   H38   S    
C68   O24   S    
C63   H4    S    
C29   C30   S    
O6    P7    D    
C73   H75   S    
C7    H26   S    
C71   O25   S    
C10   C75   A    
C23   H8    S    
C49   H43   S    
Ba2   O27   S    
C10   C11   A    
C11   H27   S    
C1    C12   S    
C30   P6    S    
C5    C14   S    
C2    N1    Am   
C42   H36   S    
C68   H61   S    
C9    C13   A    
C1    H6    S    
C29   C33   D    
C65   H53   S    
C75   O10   D    
C61   H67   S    
O28   P8    S    
O8    P8    D    
O5    P2    S    
C18   C41   A    
C50   C51   A    
C26   O14   D    
C38   O24   S    
C72   H71   S    
O2    P5    D    
C47   C60   A    
C4    O23   S    
C59   H41   S    
C45   H14   S    
C64   H51   S    
C66   H58   S    
C65   H54   S    
C22   C24   A    
C61   H77   S    
O9    P8    S    
O23   P3    S    
Ba2   O6    S    
O31   P5    S    
C9    C10   A    
C69   H63   S    
C32   H37   S    
C64   O22   S    
Ba1   O15   S    
C55   H42   S    
C71   H69   S    
C40   H12   S    
C34   H9    S    
C62   C63   S    
C52   O17   S    
C2    C13   A    
C66   H57   S    
C18   C37   A    
Ba2   O28   S    
C3    C8    D    
C45   C56   S    
O21   P3    D    
C21   H29   S    
C46   C59   A    
C6    P4    S    
C19   C24   A    
C26   N2    Am   
C31   C32   D    
Ba2   O26   S    
C12   H1    S    
C40   H34   S    
C56   H17   S    
Ba2   O30   S    
Ba2   O31   S    
C63   H59   S    
Ba1   O5    S    
C16   H44   S    
C69   C70   S    
C18   C19   A    
C47   C48   A    
C44   C54   A    
O16   P6    D    
C15   C30   S    
C39   C43   A    
C20   C21   A    
C28   C40   S    
C4    H35   S    
C73   H73   S    
C74   H25   S    
C5    P8    S    
Ba1   O20   S    
C61   H50   S    
C70   H68   S    
C16   H47   S    
O3    P5    S    
C25   C26   A    
C3    H31   S    
Ba1   P1    S    
