data_mof_unit_40032.cif
_audit_creation_date              2012-12-11T16:22:23-0500
_audit_creation_method            fapswitch 2.2
_symmetry_space_group_name_H-M    P1
_symmetry_Int_Tables_number       1
_space_group_crystal_system       triclinic
_cell_length_a                    19.659969
_cell_length_b                    6.927934
_cell_length_c                    17.746994
_cell_angle_alpha                 90.052152
_cell_angle_beta                  108.023782
_cell_angle_gamma                 89.977153
_cell_volume                      2298.57618274

loop_
_atom_site_label
_atom_site_type_symbol
_atom_type_description
_atom_site_fract_x
_atom_site_fract_y
_atom_site_fract_z
_atom_type_partial_charge
O1    O     O_R   0.561700 0.369960 0.440190 -0.540911
O2    O     O_R   0.061700 0.630040 0.940190 -0.541381
O3    O     O_R   0.413790 0.033680 0.407460 -0.508596
O4    O     O_R   0.913790 0.966320 0.907460 -0.542926
O5    O     O_R   0.438300 0.869760 0.559810 -0.541770
O6    O     O_R   0.938300 0.130240 0.059810 -0.538254
C1    C     C_R   0.386280 0.203063 0.385450 0.754220
C2    C     C_R   0.887480 0.796407 0.883547 0.727937
O7    O     O_R   0.559630 0.039830 0.430710 -0.542259
O8    O     O_R   0.059630 0.960170 0.930710 -0.543751
O9    O     O_R   0.585190 0.875950 0.583220 -0.549138
O10   O     O_R   0.085190 0.124050 0.083220 -0.551250
C3    C     C_R   0.580846 0.209143 0.415183 0.686829
C4    C     C_R   0.081504 0.790811 0.916151 0.679059
O11   O     O_R   0.414810 0.363770 0.416780 -0.546945
O12   O     O_R   0.914810 0.636230 0.916780 -0.539724
O13   O     O_3   0.508210 0.205480 0.550010 -0.377533
O14   O     O_3   0.008210 0.794520 0.050010 -0.365565
V1    V     V_3+5 0.498480 0.928140 0.490720 1.426088
V2    V     V_3+5 0.998480 0.071860 0.990720 1.385196
O15   O     O_R   0.586210 0.546600 0.592540 -0.546792
O16   O     O_R   0.086210 0.453400 0.092540 -0.529957
C5    C     C_R   0.612742 0.715995 0.616420 0.649621
C6    C     C_R   0.114546 0.284817 0.113652 0.654903
O17   O     O_R   0.440370 0.540460 0.569290 -0.544637
O18   O     O_R   0.940370 0.459540 0.069290 -0.539336
C7    C     C_R   0.419612 0.709819 0.585514 0.709897
C8    C     C_R   0.917737 0.290783 0.083087 0.710605
V3    V     V_3+5 0.501520 0.428910 0.509280 1.397771
V4    V     V_3+5 0.001520 0.571090 0.009280 1.415968
O19   O     O_3   0.491790 0.701440 0.449990 -0.359032
O20   O     O_3   0.991790 0.298560 0.949990 -0.371157
C9    C     C_R   0.320764 0.886681 0.727901 -0.133233
C10   C     C_R   0.765137 0.139975 0.161368 -0.140518
H1    H     H_    0.319833 0.012309 0.764034 0.139405
H2    H     H_    0.721477 0.037035 0.147123 0.142267
C11   C     C_R   0.367703 0.884735 0.682474 0.197093
C12   C     C_R   0.810777 0.144740 0.114356 0.199607
C13   C     C_R   0.370838 0.720714 0.635430 -0.169497
C14   C     C_R   0.867777 0.279885 0.131214 -0.159471
C15   C     C_R   0.325275 0.564121 0.635332 -0.153104
C16   C     C_R   0.877054 0.406577 0.195480 -0.162528
H3    H     H_    0.325436 0.438967 0.598725 0.144712
H4    H     H_    0.920843 0.509094 0.209965 0.147645
C17   C     C_R   0.277409 0.567808 0.679829 0.230731
C18   C     C_R   0.831978 0.399668 0.243245 0.225325
C19   C     C_R   0.275296 0.730471 0.727571 -0.035278
C20   C     C_R   0.774565 0.266040 0.225780 -0.033405
C21   C     C_R   0.224931 0.604145 0.832458 -0.139122
C22   C     C_R   0.685052 0.412280 0.284712 -0.141704
H5    H     H_    0.262083 0.484483 0.843438 0.106435
H6    H     H_    0.688997 0.548491 0.256543 0.106360
C23   C     C_R   0.177769 0.618810 0.877270 -0.164845
C24   C     C_R   0.638576 0.398050 0.330400 -0.164753
H7    H     H_    0.178558 0.507020 0.920142 0.109999
H8    H     H_    0.609258 0.525448 0.337654 0.125489
C25   C     C_R   0.131360 0.777830 0.868264 -0.047352
C26   C     C_R   0.629266 0.221459 0.365260 -0.051068
C27   C     C_R   0.133325 0.922128 0.813384 -0.169687
C28   C     C_R   0.667374 0.059052 0.352639 -0.166190
H9    H     H_    0.098412 0.046522 0.805228 0.122904
H10   H     H_    0.661442 0.920802 0.378355 0.117084
C29   C     C_R   0.179343 0.904862 0.767110 -0.149140
C30   C     C_R   0.714710 0.074260 0.307804 -0.139889
H11   H     H_    0.178893 0.016218 0.724200 0.124305
H12   H     H_    0.743965 0.947539 0.299741 0.106294
C31   C     C_R   0.225167 0.744694 0.775572 0.101159
C32   C     C_R   0.724825 0.251692 0.274270 0.102412
C33   C     C_2   0.726127 0.867190 0.691936 -0.184680
C34   C     C_2   0.214205 0.109329 0.208922 -0.272026
C35   C     C_2   0.675791 0.731341 0.689194 0.199675
C36   C     C_2   0.186640 0.278434 0.174055 0.244973
H13   H     H_    0.721253 0.953736 0.639458 0.101974
H14   H     H_    0.184009 0.977325 0.189624 0.125623
C37   C     C_2   0.787458 0.915101 0.763596 0.254891
C38   C     C_2   0.286542 0.083754 0.268487 0.219595
C39   C     C_2   0.823352 0.774075 0.812878 -0.311208
C40   C     C_2   0.316191 0.220047 0.323176 -0.262791
H15   H     H_    0.806928 0.626036 0.797814 0.135901
H16   H     H_    0.287223 0.352529 0.324413 0.153345
O21   O     O_3   0.672485 0.651592 0.759768 -0.570315
C41   C     C_3   0.673261 0.447574 0.757914 0.092288
H17   H     H_    0.720842 0.399659 0.806444 0.137371
H18   H     H_    0.678227 0.383170 0.702204 0.128775
C42   C     C_3   0.606981 0.369447 0.775320 -0.307972
H19   H     H_    0.603358 0.435184 0.831126 0.205786
H20   H     H_    0.558109 0.409391 0.726521 0.203313
C43   C     C_3   0.610520 0.150429 0.784741 -0.764748
H21   H     H_    0.605876 0.080967 0.727011 0.241007
H22   H     H_    0.565897 0.100323 0.805682 0.227880
H23   H     H_    0.661607 0.105867 0.829099 0.241070
O22   O     O_3   0.225865 0.447904 0.192967 -0.579333
C44   C     C_3   0.248268 0.509921 0.128289 0.101227
H24   H     H_    0.241378 0.668996 0.123328 0.127298
H25   H     H_    0.216527 0.449283 0.069662 0.081219
C45   C     C_3   0.327295 0.460831 0.143896 -0.322171
H26   H     H_    0.359295 0.521626 0.202039 0.208629
H27   H     H_    0.334140 0.301496 0.146181 0.195120
C46   C     C_3   0.355095 0.541830 0.079040 -0.833662
H28   H     H_    0.324624 0.480048 0.020521 0.230451
H29   H     H_    0.412420 0.503589 0.091930 0.237929
H30   H     H_    0.349938 0.701589 0.076562 0.229417
N1    N     N_3   0.810605 0.112485 0.773433 -0.691050
H31   H     H_    0.862944 0.120380 0.770852 0.235397
H32   H     H_    0.809662 0.160551 0.828923 0.228261
N2    N     N_3   0.323481 0.905289 0.268403 -0.645935
H33   H     H_    0.330582 0.889911 0.212733 0.216794
H34   H     H_    0.290707 0.792742 0.275737 0.249272
N3    N     N_3   0.412253 0.050580 0.686963 -0.663435
H35   H     H_    0.396728 0.120283 0.632100 0.247126
H36   H     H_    0.465268 0.004953 0.700142 0.233339
N4    N     N_3   0.796287 0.014350 0.048510 -0.663903
H37   H     H_    0.792697 0.093008 0.997156 0.219262
H38   H     H_    0.838316 0.915524 0.058739 0.246457
N5    N     N_3   0.229324 0.408341 0.672014 -0.675892
H39   H     H_    0.177116 0.461202 0.658606 0.237086
H40   H     H_    0.242290 0.334114 0.725693 0.218129
N6    N     N_3   0.848210 0.523365 0.311256 -0.670378
H41   H     H_    0.851114 0.439811 0.361186 0.237874
H42   H     H_    0.807313 0.624577 0.303328 0.220120

loop_
_geom_bond_atom_site_label_1
_geom_bond_atom_site_label_2
_ccdc_geom_bond_type
V4    O20   S    
C29   H11   S    
C44   H24   S    
O13   V3    S    
O4    C2    A    
V1    O19   S    
N4    H38   S    
O21   C41   S    
C13   C15   A    
C42   H19   S    
O9    V1    S    
C22   C24   A    
C30   C32   A    
C38   C40   D    
O3    C1    A    
N3    H36   S    
C24   C26   A    
C36   O22   S    
C40   H16   S    
C25   C27   A    
N2    H33   S    
C8    C14   S    
C26   C28   A    
N5    H39   S    
C45   C46   S    
C18   N6    S    
C28   H10   S    
C16   C18   A    
C17   C19   A    
C33   C35   D    
O7    C3    A    
N6    H41   S    
C22   C32   A    
C1    O11   A    
O5    C7    A    
O7    V1    S    
O6    C8    A    
C7    C13   S    
N5    H40   S    
C45   H27   S    
C34   H14   S    
C22   H6    S    
O3    V1    S    
O14   V4    S    
C21   C31   A    
C11   N3    S    
C39   H15   S    
C2    O12   A    
C37   N1    S    
C15   H3    S    
C16   H4    S    
C19   C31   S    
N4    H37   S    
O11   V3    S    
C18   C20   A    
C23   H7    S    
O17   V3    S    
C11   C13   A    
C29   C31   A    
C27   H9    S    
C42   H20   S    
C5    C35   S    
O8    C4    A    
O8    V2    S    
C23   C25   A    
O13   V1    S    
C3    C26   S    
C21   H5    S    
O15   V3    S    
C9    C11   A    
C30   H12   S    
C17   N5    S    
C46   H28   S    
C43   H23   S    
C45   H26   S    
O10   V2    S    
O1    V3    S    
N1    H32   S    
C20   C32   S    
C33   H13   S    
C37   C39   D    
C1    C40   S    
C46   H29   S    
C43   H22   S    
O18   V4    S    
C44   C45   S    
C41   H18   S    
O15   C5    A    
C34   C38   S    
C2    C39   S    
C9    C19   A    
O16   C6    A    
O1    C3    A    
C12   N4    S    
C6    C36   S    
V2    O20   S    
C42   C43   S    
C4    C25   S    
C38   N2    S    
O16   V4    S    
C10   C12   A    
C27   C29   A    
C14   C16   A    
C24   H8    S    
O5    V1    S    
O17   C7    A    
C41   C42   S    
O6    V2    S    
O10   C6    A    
O18   C8    A    
C28   C30   A    
O2    V4    S    
V3    O19   S    
N3    H35   S    
C12   C14   A    
N2    H34   S    
C21   C23   A    
O9    C5    A    
O22   C44   S    
C9    H1    S    
C10   H2    S    
C33   C37   S    
O14   V2    S    
O2    C4    A    
N6    H42   S    
O4    V2    S    
C46   H30   S    
C10   C20   A    
C43   H21   S    
C44   H25   S    
C41   H17   S    
N1    H31   S    
C15   C17   A    
C34   C36   D    
O12   V4    S    
C35   O21   S    
