data_mof_unit_38632.cif
_audit_creation_date              2013-03-05T15:52:30-0500
_audit_creation_method            fapswitch 2.2
_symmetry_space_group_name_H-M    P1
_symmetry_Int_Tables_number       1
_space_group_crystal_system       triclinic
_cell_length_a                    27.807864
_cell_length_b                    10.853043
_cell_length_c                    9.566545
_cell_angle_alpha                 90.216247
_cell_angle_beta                  89.998777
_cell_angle_gamma                 92.567547
_cell_volume                      2884.26373606

loop_
_atom_site_label
_atom_site_type_symbol
_atom_site_description
_atom_site_fract_x
_atom_site_fract_y
_atom_site_fract_z
_atom_type_partial_charge
O1    O     O_R   0.500000 0.319640 0.618810 -0.593751
O2    O     O_R   0.500000 0.319660 0.381240 -0.583815
C1    C     C_R   0.503740 0.262968 0.500594 0.806027
O3    O     O_R   0.430260 0.500010 0.618770 -0.525625
O4    O     O_R   0.430270 0.500030 0.381200 -0.581723
C2    C     C_R   0.407474 0.501531 0.500119 0.855265
Cu1   Cu    Cu3+1 0.500000 0.499990 0.640660 0.955045
Cu2   Cu    Cu3+1 0.500000 0.500010 0.359340 0.942218
O5    O     O_R   0.500000 0.680340 0.618760 -0.609592
O6    O     O_R   0.500000 0.680360 0.381190 -0.598896
O7    O     O_R   0.569730 0.499970 0.618800 -0.609759
O8    O     O_R   0.569740 0.499990 0.381230 -0.599551
C3    C     C_R   0.497061 0.737487 0.501326 0.790589
C4    C     C_R   0.592515 0.500745 0.500027 0.783216
C5    C     C_R   0.175757 0.390759 0.472489 0.559252
O9    O     O_2   0.198786 0.283900 0.470295 -0.527353
N1    N     N_R   0.201684 0.500770 0.480337 -0.459234
C6    C     C_R   0.179312 0.610543 0.482536 0.546340
C7    C     C_R   0.277491 0.544815 0.606518 -0.127671
C8    C     C_R   0.327699 0.546567 0.613668 0.347964
C9    C     C_R   0.329590 0.459489 0.379023 -0.253961
C10   C     C_R   0.279541 0.458724 0.372989 -0.083866
C11   C     C_R   0.253284 0.501104 0.486718 0.276147
C12   C     C_R   0.101465 0.499985 0.473741 -0.049251
C13   C     C_R   0.125232 0.388427 0.468394 -0.051885
C14   C     C_R   0.098304 0.277331 0.454939 -0.195566
C15   C     C_R   0.128873 0.612229 0.479254 -0.013786
C16   C     C_R   0.354384 0.502670 0.499028 -0.131806
H1    H     H_    0.348925 0.425345 0.289594 0.181228
H2    H     H_    0.261097 0.425410 0.279605 0.163378
H3    H     H_    0.116178 0.191375 0.441256 0.190076
C17   C     C_R   0.645485 0.502146 0.500004 -0.091367
C18   C     C_R   0.972553 0.387399 0.496862 0.030971
C19   C     C_R   0.976070 0.612195 0.462581 0.054769
C20   C     C_R   0.948980 0.499631 0.482048 0.054552
C21   C     C_R   0.944969 0.282398 0.540342 -0.220446
C22   C     C_R   0.894834 0.281818 0.549364 0.159980
C23   C     C_R   0.870553 0.390033 0.519115 -0.021851
C24   C     C_R   0.897914 0.499691 0.488600 -0.092519
C25   C     C_R   0.874228 0.609996 0.465303 -0.005156
C26   C     C_R   0.823857 0.608938 0.469799 0.524903
N2    N     N_R   0.797934 0.502068 0.497349 -0.479123
C27   C     C_R   0.819813 0.393838 0.521414 0.549390
C28   C     C_R   0.720873 0.490362 0.373984 -0.127037
C29   C     C_R   0.670778 0.490104 0.373933 -0.217087
C30   C     C_R   0.671222 0.515809 0.626004 -0.186865
C31   C     C_R   0.721469 0.516715 0.626528 0.195043
C32   C     C_R   0.746409 0.503174 0.499587 0.316922
O10   O     O_2   0.792291 0.290780 0.546545 -0.494815
C33   C     C_R   0.023214 0.385356 0.475808 0.049806
C34   C     C_R   0.050412 0.499414 0.473557 0.023384
C35   C     C_R   0.027038 0.613106 0.470600 0.054109
C36   C     C_R   0.048001 0.274656 0.453919 0.136106
H4    H     H_    0.651892 0.479720 0.275270 0.172517
H5    H     H_    0.739985 0.480210 0.276268 0.150262
H6    H     H_    0.961762 0.200375 0.575380 0.174161
O11   O     O_2   0.205826 0.717755 0.486901 -0.519497
C37   C     C_R   0.105484 0.723483 0.481949 -0.139761
H7    H     H_    0.257059 0.578277 0.694150 0.178644
H8    H     H_    0.125701 0.811045 0.487856 0.188718
C38   C     C_R   0.951115 0.720387 0.436785 -0.210576
C39   C     C_R   0.901177 0.718962 0.437626 -0.143535
O12   O     O_2   0.800831 0.713911 0.447058 -0.535062
C40   C     C_R   0.055570 0.724182 0.477331 -0.205213
H9    H     H_    0.969247 0.807424 0.411885 0.140160
H10   H     H_    0.652436 0.526288 0.724276 0.173003
H11   H     H_    0.883747 0.804390 0.417215 0.183753
H12   H     H_    0.040277 0.813560 0.483747 0.133898
H13   H     H_    0.499844 0.110153 0.279037 0.161364
C41   C     C_R   0.528156 0.120521 0.758242 -0.153606
H14   H     H_    0.547977 0.208420 0.759544 0.164502
C42   C     C_R   0.521112 0.061690 0.886265 -0.161487
H15   H     H_    0.533103 0.106751 0.982068 0.136974
C43   C     C_R   0.497095 0.946921 0.890998 -0.128691
H16   H     H_    0.489080 0.903841 0.990728 0.145367
C44   C     C_R   0.484594 0.885778 0.766977 -0.128296
H17   H     H_    0.464225 0.799332 0.777197 0.199572
C45   C     C_R   0.496531 0.938652 0.635200 0.087040
C46   C     C_R   0.511208 0.064442 0.632277 0.098113
C47   C     C_R   0.507729 0.129000 0.503902 -0.113913
C48   C     C_R   0.501415 0.063287 0.378630 -0.201544
H18   H     H_    0.495078 0.887862 0.280220 0.166548
C49   C     C_R   0.497154 0.936041 0.379593 -0.199677
C50   C     C_R   0.494757 0.872027 0.506401 -0.102886
H19   H     H_    0.445921 0.359396 0.128875 0.138989
C51   C     C_R   0.563827 0.664787 0.144970 -0.161420
H20   H     H_    0.567170 0.672223 0.255103 0.202770
C52   C     C_R   0.594809 0.745646 0.072838 -0.210150
H21   H     H_    0.619083 0.808718 0.129415 0.164835
C53   C     C_R   0.594847 0.745481 0.928861 -0.188643
H22   H     H_    0.619079 0.808563 0.872690 0.164763
C54   C     C_R   0.563852 0.664583 0.856206 -0.158257
H23   H     H_    0.566988 0.672260 0.746114 0.200935
C55   C     C_R   0.531354 0.581062 0.925401 0.195409
C56   C     C_R   0.531342 0.581077 0.075192 0.207638
N3    N     N_R   0.500460 0.501210 0.147910 -0.201068
C57   C     C_R   0.470261 0.422699 0.073657 -0.055629
H24   H     H_    0.445967 0.359409 0.869711 0.155216
C58   C     C_R   0.470279 0.422727 0.925543 -0.014613
N4    N     N_R   0.500480 0.501290 0.852040 -0.203692
N5    N     N_3   0.746567 0.532200 0.756522 -0.590897
H25   H     H_    0.770098 0.609735 0.748589 0.234775
H26   H     H_    0.767106 0.455135 0.772348 0.240742
N6    N     N_3   0.869208 0.170711 0.592163 -0.501535
H27   H     H_    0.877383 0.100455 0.522093 0.226871
H28   H     H_    0.881751 0.146475 0.690935 0.214531
N7    N     N_3   0.022997 0.161048 0.415879 -0.612892
H29   H     H_    0.034560 0.135293 0.316364 0.231417
H30   H     H_    0.032801 0.092949 0.486182 0.206591
Cl1   Cl    Cl    0.354857 0.610126 0.765838 -0.610862

loop_
_geom_bond_atom_site_label_1
_geom_bond_atom_site_label_2
_geom_bond_distance
_ccdc_geom_bond_type
N5    H25   1.045549 S    
C31   N5    1.431721 S    
C56   N3    1.382242 A    
C17   C29   1.404763 A    
C20   C24   1.421460 A    
C7    C8    1.397139 A    
Cu2   N3    2.022782 S    
C12   C15   1.408553 A    
N6    H28   1.045848 S    
Cu1   Cu2   2.691261 S    
Cu1   O7    1.950292 S    
C3    C50   1.465049 S    
N1    C11   1.436032 S    
C43   C44   1.393654 A    
C39   H11   1.083651 S    
C40   H12   1.077994 S    
C21   C22   1.396540 A    
C44   C45   1.420249 A    
C30   H10   1.083594 S    
C23   C24   1.414912 A    
O7    C4    1.300826 A    
C51   C52   1.387572 A    
C5    C13   1.404611 A    
C37   H8    1.083553 S    
C5    O9    1.349791 S    
C18   C21   1.409005 A    
C25   C39   1.397577 A    
Cu1   O5    1.969313 S    
C19   C20   1.419103 A    
C26   N2    1.364471 A    
O5    C3    1.289679 A    
C48   C49   1.380852 A    
C2    C16   1.476957 S    
C58   N4    1.366418 A    
N7    H29   1.045894 S    
C41   H14   1.080200 S    
C42   H15   1.082755 S    
C12   C34   1.419415 A    
C14   H3    1.084011 S    
N5    H26   1.045183 S    
O1    Cu1   1.967691 S    
C9    C10   1.392608 A    
N7    H30   1.046285 S    
C38   C39   1.388061 A    
O3    Cu1   1.950611 S    
C1    C47   1.463589 S    
N6    H27   1.045983 S    
C57   C58   1.416941 A    
C33   C34   1.421667 A    
C37   C40   1.389050 A    
C33   C36   1.426421 A    
Cu1   N4    2.022213 S    
C34   C35   1.420520 A    
C31   C32   1.408918 A    
H19   C57   1.081780 S    
C44   H17   1.078755 S    
C42   C43   1.387614 A    
C43   H16   1.082843 S    
C24   C25   1.410426 A    
C45   C46   1.407656 A    
C27   O10   1.349044 S    
C8    C16   1.417070 A    
C7    H7    1.083368 S    
C18   C33   1.424228 A    
C9    H1    1.083398 S    
O6    C3    1.308093 A    
C19   C38   1.412954 A    
O1    C1    1.291733 A    
C7    C11   1.399634 A    
C22   C23   1.411605 A    
C21   H6    1.078144 S    
C45   C50   1.426041 A    
C22   N6    1.433972 S    
C36   N7    1.433856 S    
C6    O11   1.349835 S    
C53   C54   1.387250 A    
C49   C50   1.400350 A    
C55   N4    1.381321 A    
Cu2   O8    1.950606 S    
N3    C57   1.366454 A    
C54   C55   1.416911 A    
N1    C6    1.368591 A    
N2    C32   1.433555 S    
C12   C13   1.405902 A    
C8    Cl1   1.763830 S    
O3    C2    1.300491 A    
C25   C26   1.400915 A    
C9    C16   1.407138 A    
C52   C53   1.377353 A    
C29   H4    1.083191 S    
H24   C58   1.081755 S    
C35   C40   1.414436 A    
N2    C27   1.367110 A    
C26   O12   1.350007 S    
C14   C36   1.397847 A    
C28   C29   1.392915 A    
C5    N1    1.368631 A    
C30   C31   1.396848 A    
C10   H2    1.082973 S    
C41   C46   1.418970 A    
C51   H20   1.060140 S    
C17   C30   1.405838 A    
O2    Cu2   1.969313 S    
C6    C15   1.403891 A    
C4    C17   1.472374 S    
C47   C48   1.399289 A    
C15   C37   1.397046 A    
O4    Cu2   1.950295 S    
C19   C35   1.419000 A    
O2    C1    1.305429 A    
C13   C14   1.396075 A    
C23   C27   1.413586 A    
C28   H5    1.083007 S    
C53   H22   1.083049 S    
O4    C2    1.302717 A    
C54   H23   1.060084 S    
C18   C20   1.416446 A    
C55   C56   1.432980 A    
H13   C48   1.083525 S    
C51   C56   1.417371 A    
C46   C47   1.421651 A    
C38   H9    1.078099 S    
O8    C4    1.300859 A    
C52   H21   1.083035 S    
Cu2   O6    1.967691 S    
H18   C49   1.083526 S    
C10   C11   1.398095 A    
C41   C42   1.393086 A    
C28   C32   1.399042 A    
