data_mof_unit_33711.cif
_audit_creation_date              2012-12-11T17:39:21-0500
_audit_creation_method            fapswitch 2.2
_symmetry_space_group_name_H-M    P1
_symmetry_Int_Tables_number       1
_space_group_crystal_system       triclinic
_cell_length_a                    24.793179
_cell_length_b                    7.194537
_cell_length_c                    22.66029
_cell_angle_alpha                 90.001806
_cell_angle_beta                  96.342294
_cell_angle_gamma                 89.994819
_cell_volume                      4017.30069968

loop_
_atom_site_label
_atom_site_type_symbol
_atom_type_description
_atom_site_fract_x
_atom_site_fract_y
_atom_site_fract_z
_atom_type_partial_charge
O1    O     O_R   0.801910 0.607900 0.699140 -0.537587
O2    O     O_R   0.198090 0.392100 0.300860 -0.536961
O3    O     O_R   0.698090 0.107900 0.800860 -0.536989
O4    O     O_R   0.301910 0.892100 0.199140 -0.537689
O5    O     O_R   0.692320 0.276320 0.686350 -0.534384
O6    O     O_R   0.307680 0.723680 0.313650 -0.535779
O7    O     O_R   0.807680 0.776320 0.813650 -0.534285
O8    O     O_R   0.192320 0.223680 0.186350 -0.536006
C1    C     C_R   0.673802 0.446643 0.671329 0.713895
C2    C     C_R   0.326110 0.553336 0.328777 0.713176
C3    C     C_R   0.826203 0.946635 0.828665 0.712959
C4    C     C_R   0.173891 0.053343 0.171222 0.712157
O9    O     O_R   0.801140 0.278070 0.692060 -0.539029
O10   O     O_R   0.198860 0.721930 0.307940 -0.539012
O11   O     O_R   0.698860 0.778070 0.807940 -0.539485
O12   O     O_R   0.301140 0.221930 0.192060 -0.539552
O13   O     O_R   0.807690 0.109570 0.806600 -0.531130
O14   O     O_R   0.192310 0.890430 0.193400 -0.529483
O15   O     O_R   0.692310 0.609570 0.693400 -0.531130
O16   O     O_R   0.307690 0.390430 0.306600 -0.529289
C5    C     C_R   0.818529 0.446769 0.678839 0.699434
C6    C     C_R   0.181878 0.553124 0.321624 0.699709
C7    C     C_R   0.681581 0.946888 0.821299 0.703260
C8    C     C_R   0.318103 0.053094 0.178303 0.700501
O17   O     O_3   0.752020 0.441970 0.787570 -0.372974
O18   O     O_3   0.247980 0.558030 0.212430 -0.373629
O19   O     O_3   0.747980 0.941970 0.712430 -0.373398
O20   O     O_3   0.252020 0.058030 0.287570 -0.372631
V1    V     V_3+5 0.749620 0.166420 0.743030 1.397134
V2    V     V_3+5 0.250380 0.833580 0.256970 1.396440
V3    V     V_3+5 0.750380 0.666420 0.756970 1.397506
V4    V     V_3+5 0.249620 0.333580 0.243030 1.395760
C9    C     C_R   0.404349 0.186539 0.054012 0.450804
C10   C     C_R   0.564287 0.812127 0.908696 0.442974
C11   C     C_R   0.099022 0.678250 0.449621 0.451418
C12   C     C_R   0.940706 0.314988 0.597158 0.451763
C13   C     C_R   0.366652 0.194936 0.097156 -0.290616
C14   C     C_R   0.607117 0.800520 0.872784 -0.253951
C15   C     C_R   0.137613 0.685458 0.407270 -0.291063
C16   C     C_R   0.897288 0.305612 0.633532 -0.286707
H1    H     H_    0.342844 0.318476 0.102104 0.115148
H2    H     H_    0.614426 0.669246 0.851629 0.138426
H3    H     H_    0.166147 0.798761 0.406904 0.110913
H4    H     H_    0.891062 0.183499 0.659652 0.109811
C17   C     C_R   0.358785 0.043125 0.134404 -0.080866
C18   C     C_R   0.638837 0.957070 0.862724 -0.106348
C19   C     C_R   0.141001 0.543336 0.365227 -0.077414
C20   C     C_R   0.861684 0.455991 0.637872 -0.078640
C21   C     C_R   0.389917 0.881991 0.129238 -0.182162
C22   C     C_R   0.628148 0.124796 0.891302 -0.174181
C23   C     C_R   0.105407 0.391713 0.365400 -0.181133
C24   C     C_R   0.868611 0.616187 0.604159 -0.185554
H5    H     H_    0.385147 0.762553 0.157281 0.134792
H6    H     H_    0.651791 0.248263 0.884884 0.144309
H7    H     H_    0.106884 0.280013 0.333576 0.130937
H8    H     H_    0.841839 0.734361 0.606337 0.135606
C25   C     C_R   0.428468 0.873835 0.088667 -0.221378
C26   C     C_R   0.587107 0.135153 0.929055 -0.208242
C27   C     C_R   0.066848 0.383460 0.405968 -0.227419
C28   C     C_R   0.909647 0.625111 0.566516 -0.223557
H9    H     H_    0.452549 0.748811 0.086456 0.156829
H10   H     H_    0.580232 0.265583 0.950947 0.178877
H11   H     H_    0.039567 0.265489 0.404643 0.143248
H12   H     H_    0.913470 0.749479 0.540321 0.150479
C29   C     C_R   0.436067 0.024271 0.051193 0.048686
C30   C     C_R   0.554762 0.980000 0.937945 0.019167
C31   C     C_R   0.063491 0.524251 0.448165 0.050725
C32   C     C_R   0.945821 0.476865 0.562876 0.051404
C33   C     C_1   0.477193 0.009693 0.010254 0.014682
C34   C     C_1   0.512164 0.995463 0.976996 0.004475
C35   C     C_1   0.022728 0.508532 0.489596 0.010196
C36   C     C_1   0.988111 0.493382 0.523311 0.008922
C37   C     C_3   0.969707 0.861584 0.016264 0.051123
C38   C     C_3   0.031142 0.138004 0.982737 0.050501
C39   C     C_3   0.530317 0.361565 0.483719 0.050897
C40   C     C_3   0.468870 0.638003 0.517240 0.050350
C41   C     C_3   0.984215 0.039753 0.052779 -0.165428
C42   C     C_3   0.016613 0.959840 0.946204 -0.167131
C43   C     C_3   0.515801 0.539721 0.447200 -0.165385
C44   C     C_3   0.483405 0.459850 0.553776 -0.166624
H13   H     H_    0.970602 0.072088 0.096678 0.119863
H14   H     H_    0.030214 0.927478 0.902299 0.118507
H15   H     H_    0.529414 0.572038 0.403300 0.120371
H16   H     H_    0.469805 0.427497 0.597680 0.118541
H17   H     H_    0.947751 0.289031 0.991572 0.145460
H18   H     H_    0.053129 0.710616 0.007378 0.145805
H19   H     H_    0.552255 0.789016 0.508403 0.145536
H20   H     H_    0.446903 0.210607 0.492605 0.145836
C45   C     C_1   0.128505 0.043757 0.124959 -0.191935
C46   C     C_1   0.871870 0.956150 0.874592 -0.192557
C47   C     C_1   0.371501 0.543734 0.375034 -0.190707
C48   C     C_1   0.628141 0.456168 0.625396 -0.192241
C49   C     C_3   0.029471 0.841661 0.003613 -0.172883
C50   C     C_3   0.971378 0.157946 0.995382 -0.172705
C51   C     C_3   0.470554 0.341653 0.496369 -0.172635
C52   C     C_3   0.528633 0.657933 0.504595 -0.173047
C53   C     C_3   0.043736 0.020733 0.039550 0.110141
C54   C     C_3   0.957094 0.978861 0.959457 0.110738
C55   C     C_3   0.456281 0.520715 0.460429 0.109954
C56   C     C_3   0.542923 0.478861 0.540523 0.110736
C57   C     C_1   0.090404 0.034179 0.086393 -0.069170
C58   C     C_1   0.910219 0.965604 0.912861 -0.070093
C59   C     C_1   0.409607 0.534152 0.413592 -0.068670
C60   C     C_1   0.589796 0.465619 0.587123 -0.069914
O21   O     O_3   0.413721 0.333064 0.015841 -0.557903
C61   C     C_3   0.370036 0.460164 0.006990 0.081587
H21   H     H_    0.368585 0.547989 0.047096 0.130708
H22   H     H_    0.330640 0.386812 0.995792 0.113305
C62   C     C_3   0.378517 0.589420 0.955822 -0.710899
H23   H     H_    0.376581 0.509526 0.913751 0.215863
H24   H     H_    0.346249 0.697172 0.951342 0.174163
H25   H     H_    0.418552 0.659107 0.964379 0.245737
O22   O     O_3   0.533822 0.655599 0.917374 -0.555262
C63   C     C_3   0.495621 0.628051 0.866973 0.078060
H26   H     H_    0.511568 0.663292 0.824159 0.102281
H27   H     H_    0.459236 0.715352 0.871111 0.127764
C64   C     C_3   0.478839 0.424535 0.863604 -0.714047
H28   H     H_    0.467917 0.375963 0.907241 0.266375
H29   H     H_    0.443381 0.406361 0.829637 0.169705
H30   H     H_    0.512826 0.338603 0.850753 0.215216
O23   O     O_3   0.094584 0.811858 0.493799 -0.560855
C65   C     C_3   0.126337 0.972647 0.488119 0.069186
H31   H     H_    0.116412 0.036928 0.443593 0.129135
H32   H     H_    0.170318 0.938429 0.496092 0.120532
C66   C     C_3   0.114335 0.114922 0.534458 -0.671606
H33   H     H_    0.128437 0.062000 0.579503 0.211565
H34   H     H_    0.136097 0.246525 0.527291 0.177950
H35   H     H_    0.070105 0.143380 0.531030 0.262194
O24   O     O_3   0.977993 0.171481 0.591757 -0.561971
C67   C     C_3   0.978863 0.035545 0.636914 0.060883
H36   H     H_    0.941155 0.951163 0.630939 0.131609
H37   H     H_    0.983922 0.100575 0.681814 0.116838
C68   C     C_3   0.026362 0.904361 0.632874 -0.669784
H38   H     H_    0.065078 0.979224 0.645110 0.211847
H39   H     H_    0.023876 0.786493 0.664108 0.171421
H40   H     H_    0.025501 0.848635 0.587093 0.261076
C69   C     C_R   0.939393 0.702913 0.040897 0.086672
C70   C     C_R   0.962897 0.611285 0.092186 -0.134034
C71   C     C_R   0.935780 0.464497 0.116513 -0.122512
C72   C     C_R   0.884953 0.407787 0.089895 -0.099904
C73   C     C_R   0.861161 0.498182 0.038984 -0.126739
C74   C     C_R   0.888159 0.645240 0.014522 -0.139974
H41   H     H_    0.002299 0.653609 0.113337 0.112325
H42   H     H_    0.954260 0.394367 0.155917 0.108793
H43   H     H_    0.864084 0.293591 0.108616 0.111144
H44   H     H_    0.821763 0.454151 0.018391 0.116617
H45   H     H_    0.868573 0.712894 0.975471 0.122102
C75   C     C_R   0.061579 0.296408 0.958114 0.088356
C76   C     C_R   0.038099 0.388591 0.906920 -0.135745
C77   C     C_R   0.065386 0.534922 0.882559 -0.123109
C78   C     C_R   0.116364 0.590594 0.909048 -0.099920
C79   C     C_R   0.140147 0.499582 0.959848 -0.131098
C80   C     C_R   0.112977 0.352984 0.984341 -0.140931
H46   H     H_    0.998594 0.347014 0.885855 0.110437
H47   H     H_    0.046931 0.605458 0.843219 0.105917
H48   H     H_    0.137373 0.704388 0.890289 0.107382
H49   H     H_    0.179687 0.542683 0.980304 0.109067
H50   H     H_    0.132574 0.284688 0.023272 0.119631
C81   C     C_R   0.560642 0.202877 0.459096 0.086687
C82   C     C_R   0.537146 0.111208 0.407813 -0.133753
C83   C     C_R   0.564272 0.964397 0.383498 -0.121375
C84   C     C_R   0.615101 0.907704 0.410123 -0.100018
C85   C     C_R   0.638887 0.998141 0.461028 -0.127932
C86   C     C_R   0.611879 0.145223 0.485477 -0.139950
H51   H     H_    0.497742 0.153515 0.386657 0.112788
H52   H     H_    0.545798 0.894235 0.344098 0.110112
H53   H     H_    0.635977 0.793491 0.391410 0.110983
H54   H     H_    0.678286 0.954125 0.481625 0.114986
H55   H     H_    0.631461 0.212910 0.524524 0.121622
C87   C     C_R   0.438433 0.796435 0.541861 0.088501
C88   C     C_R   0.461894 0.888516 0.593083 -0.136144
C89   C     C_R   0.434612 0.034887 0.617439 -0.126449
C90   C     C_R   0.383658 0.090707 0.590917 -0.100230
C91   C     C_R   0.359895 0.999804 0.540088 -0.128988
C92   C     C_R   0.387060 0.853163 0.515599 -0.140656
H56   H     H_    0.501382 0.846828 0.614173 0.110384
H57   H     H_    0.453052 0.105343 0.656801 0.104985
H58   H     H_    0.362653 0.204537 0.609671 0.107419
H59   H     H_    0.320375 0.043030 0.519601 0.109986
H60   H     H_    0.367480 0.784969 0.476642 0.119785

loop_
_geom_bond_atom_site_label_1
_geom_bond_atom_site_label_2
_ccdc_geom_bond_type
C89   H57   S    
C26   H10   S    
C55   C59   S    
C88   C89   A    
C21   H5    S    
O1    C5    A    
O19   V1    S    
O13   V1    S    
C38   C50   S    
O21   C61   S    
O3    C7    A    
C85   C86   A    
C56   C60   S    
C44   H16   S    
O15   V3    S    
C10   C30   A    
C83   C84   A    
C9    C29   A    
C30   C34   S    
C90   C91   A    
C10   O22   S    
O7    C3    A    
C22   H6    S    
C39   C43   S    
C37   C69   S    
C8    C17   S    
O9    V1    S    
O24   C67   S    
C20   C24   A    
C70   H41   S    
C64   H29   S    
C11   C15   A    
O4    C8    A    
C51   C55   S    
C61   H21   S    
C50   C54   S    
C42   C49   S    
C39   C81   S    
C41   C50   S    
O1    V3    S    
C21   C25   A    
O17   V3    S    
O2    V4    S    
H17   C50   S    
C80   H50   S    
O3    V1    S    
C91   C92   A    
C46   C58   T    
C24   C28   A    
C27   C31   A    
C76   C77   A    
C26   C30   A    
C2    O16   A    
C42   C54   S    
C68   H40   S    
C78   C79   A    
C41   C53   S    
O14   V2    S    
C11   C31   A    
C31   C35   S    
C83   H52   S    
C32   C36   S    
C5    C20   S    
O11   C7    A    
C6    C19   S    
H20   C51   S    
O12   C8    A    
C7    C18   S    
C44   C56   S    
C86   H55   S    
O10   V2    S    
C1    C48   S    
C1    O15   A    
C63   H26   S    
C38   C53   S    
O5    V1    S    
C87   C92   A    
C37   C54   S    
C69   C74   A    
O7    V3    S    
C39   C51   S    
O8    V4    S    
C4    C45   S    
C12   C16   A    
C9    O21   S    
C72   C73   A    
C64   H30   S    
C47   C59   T    
O18   V4    S    
C15   H3    S    
C54   C58   S    
C82   H51   S    
O11   V3    S    
C84   C85   A    
C9    C13   A    
C40   C55   S    
C22   C26   A    
C88   H56   S    
C67   H37   S    
C76   H46   S    
O5    C1    A    
H18   C49   S    
C66   H34   S    
C66   H35   S    
C71   H42   S    
C42   H14   S    
C63   H27   S    
C81   C82   A    
C81   C86   A    
C41   H13   S    
O8    C4    A    
H19   C52   S    
C17   C21   A    
O9    C5    A    
C78   H48   S    
C75   C76   A    
C44   C51   S    
C40   C87   S    
O23   C65   S    
C73   H44   S    
O6    V2    S    
C2    C47   S    
C77   H47   S    
C73   C74   A    
C38   C42   S    
C68   H38   S    
C62   H25   S    
C67   C68   S    
C23   C27   A    
C75   C80   A    
C13   C17   A    
C49   C53   S    
C89   C90   A    
C15   C19   A    
O22   C63   S    
O16   V4    S    
C43   C55   S    
C16   C20   A    
C79   H49   S    
C3    O13   A    
C11   O23   S    
C45   C57   T    
C10   C14   A    
C74   H45   S    
C40   C44   S    
C25   C29   A    
C72   H43   S    
O6    C2    A    
C19   C23   A    
C71   C72   A    
C12   C32   A    
C25   H9    S    
C92   H60   S    
C43   C52   S    
C38   C75   S    
O12   V4    S    
C69   C70   A    
C18   C22   A    
C27   H11   S    
C28   H12   S    
C82   C83   A    
O2    C6    A    
C65   C66   S    
C62   H24   S    
C67   H36   S    
C35   C36   T    
C64   H28   S    
C40   C52   S    
C43   H15   S    
C3    C46   S    
O10   C6    A    
C66   H33   S    
C61   H22   S    
C90   H58   S    
C29   C33   S    
C37   C49   S    
C52   C56   S    
O20   V2    S    
C39   C56   S    
C12   O24   S    
C85   H54   S    
C23   H7    S    
C13   H1    S    
C33   C34   T    
O4    V2    S    
C14   C18   A    
C63   C64   S    
C70   C71   A    
C48   C60   T    
C84   H53   S    
C14   H2    S    
C16   H4    S    
C79   C80   A    
C28   C32   A    
C87   C88   A    
C4    O14   A    
C68   H39   S    
C37   C41   S    
C77   C78   A    
C65   H31   S    
C62   H23   S    
C65   H32   S    
C91   H59   S    
C53   C57   S    
C24   H8    S    
C61   C62   S    
