data_mof_unit_46113.cif
_audit_creation_date              2012-12-11T15:19:50-0500
_audit_creation_method            fapswitch 2.2
_symmetry_space_group_name_H-M    P1
_symmetry_Int_Tables_number       1
_space_group_crystal_system       triclinic
_cell_length_a                    16.668112
_cell_length_b                    16.720339
_cell_length_c                    42.330858
_cell_angle_alpha                 90.294404
_cell_angle_beta                  90.251708
_cell_angle_gamma                 119.763227
_cell_volume                      10240.7273093

loop_
_atom_site_label
_atom_site_type_symbol
_atom_type_description
_atom_site_fract_x
_atom_site_fract_y
_atom_site_fract_z
_atom_type_partial_charge
C1    C     C_R   0.580736 0.428785 0.793383 0.579379
C2    C     C_R   0.847860 0.419426 0.706747 0.576432
C3    C     C_R   0.571765 0.152893 0.793714 0.571663
C4    C     C_R   0.584503 0.426131 0.704746 0.587259
C5    C     C_R   0.848098 0.419222 0.793572 0.583044
C6    C     C_R   0.569449 0.147971 0.707960 0.639778
C7    C     C_R   0.427780 0.583692 0.294322 0.599568
C8    C     C_R   0.417721 0.845986 0.205852 0.567774
C9    C     C_R   0.152563 0.572096 0.293730 0.626861
C10   C     C_R   0.429104 0.579739 0.207110 0.585460
C11   C     C_R   0.419895 0.848359 0.293355 0.585842
C12   C     C_R   0.152886 0.571471 0.206177 0.553847
C13   C     C_R   0.050157 0.441934 0.132217 0.257000
C14   C     C_R   0.424308 0.972248 0.368102 0.264798
C15   C     C_R   0.546125 0.570199 0.133099 0.263549
C16   C     C_R   0.034273 0.468325 0.371942 0.243911
C17   C     C_R   0.405367 0.985605 0.138329 0.270139
C18   C     C_R   0.546984 0.511403 0.355910 0.270052
C19   C     C_R   0.456129 0.027588 0.631877 0.283602
C20   C     C_R   0.005887 0.423078 0.858266 0.272713
C21   C     C_R   0.542439 0.557820 0.639095 0.249099
C22   C     C_R   0.429960 0.032171 0.863101 0.251756
C23   C     C_R   0.956019 0.433640 0.627993 0.255717
C24   C     C_R   0.576731 0.547088 0.868814 0.265780
C25   C     C_R   0.057416 0.456250 0.164997 0.079082
C26   C     C_R   0.414913 0.953000 0.335362 0.070367
C27   C     C_R   0.539258 0.584347 0.165582 0.095813
C28   C     C_R   0.056813 0.470239 0.339512 0.089823
C29   C     C_R   0.413395 0.963204 0.169978 0.074042
C30   C     C_R   0.513625 0.522103 0.326080 0.028419
C31   C     C_R   0.460500 0.048247 0.664419 0.089701
C32   C     C_R   0.974003 0.421553 0.827142 0.076768
C33   C     C_R   0.546790 0.525183 0.669711 0.033561
C34   C     C_R   0.451890 0.046286 0.830932 0.074606
C35   C     C_R   0.937746 0.411835 0.660204 0.071534
C36   C     C_R   0.587449 0.538597 0.836069 0.088444
C37   C     C_R   0.079704 0.610479 0.159102 0.134895
C38   C     C_R   0.540460 0.918673 0.337236 0.184005
C39   C     C_R   0.386339 0.449673 0.167363 0.188932
C40   C     C_R   0.078813 0.624681 0.335277 0.188764
C41   C     C_R   0.504369 0.893655 0.153327 0.188357
C42   C     C_R   0.423509 0.580044 0.352797 0.188483
C43   C     C_R   0.609588 0.057396 0.669071 0.190944
C44   C     C_R   0.916379 0.524274 0.842486 0.184814
C45   C     C_R   0.558006 0.397993 0.645693 0.165988
C46   C     C_R   0.609165 0.078913 0.841252 0.192324
C47   C     C_R   0.934937 0.553839 0.669847 0.125061
C48   C     C_R   0.460192 0.381032 0.836256 0.185841
C49   C     C_R   0.056654 0.590186 0.126572 0.122283
C50   C     C_R   0.549548 0.936169 0.370042 0.105602
C51   C     C_R   0.393605 0.431767 0.135148 0.111216
C52   C     C_R   0.063989 0.626306 0.367895 0.130672
C53   C     C_R   0.492891 0.911576 0.121456 0.103550
C54   C     C_R   0.472612 0.589329 0.380715 0.101896
C55   C     C_R   0.605744 0.034537 0.636763 0.119881
C56   C     C_R   0.946819 0.525036 0.873843 0.108897
C57   C     C_R   0.566380 0.437376 0.615725 0.099841
C58   C     C_R   0.581201 0.046817 0.872603 0.115653
C59   C     C_R   0.955582 0.577879 0.637823 0.098552
C60   C     C_R   0.450646 0.387301 0.869083 0.102826
C61   C     C_R   0.052946 0.511384 0.112696 0.141655
C62   C     C_R   0.487986 0.957451 0.385635 0.140511
C63   C     C_R   0.470297 0.495605 0.117623 0.139686
C64   C     C_R   0.044124 0.549346 0.386394 0.150181
C65   C     C_R   0.441950 0.955666 0.113891 0.144776
C66   C     C_R   0.527441 0.547690 0.383255 0.161964
C67   C     C_R   0.531898 0.025413 0.617812 0.153523
C68   C     C_R   0.987316 0.471188 0.881964 0.143704
C69   C     C_R   0.555545 0.514976 0.612251 0.153043
C70   C     C_R   0.497058 0.035661 0.884375 0.137272
C71   C     C_R   0.961251 0.515730 0.616665 0.151387
C72   C     C_R   0.511820 0.468567 0.885538 0.144079
C73   C     C_R   0.916238 0.459663 0.820549 -0.049548
C74   C     C_R   0.545178 0.081258 0.680948 -0.040923
C75   C     C_R   0.539933 0.450741 0.821319 -0.054349
C76   C     C_R   0.910888 0.463406 0.679442 -0.073251
C77   C     C_R   0.545512 0.089256 0.821463 -0.060558
C78   C     C_R   0.555609 0.445604 0.673279 -0.052541
C79   C     C_R   0.461628 0.910768 0.321382 -0.081654
C80   C     C_R   0.092339 0.546365 0.177346 -0.089106
C81   C     C_R   0.449539 0.554233 0.324656 -0.032982
C82   C     C_R   0.451721 0.906022 0.177003 -0.053712
C83   C     C_R   0.092368 0.553835 0.322398 -0.038442
C84   C     C_R   0.452473 0.535694 0.180494 -0.052704
C85   C     C_R   0.119474 0.542049 0.027554 0.054728
C86   C     C_R   0.455083 0.903126 0.471186 0.052823
C87   C     C_R   0.425906 0.503222 0.031864 0.056915
C88   C     C_R   0.942256 0.541922 0.465526 0.045747
C89   C     C_R   0.503109 0.075345 0.036319 0.047922
C90   C     C_R   0.476952 0.468435 0.464755 0.045771
C91   C     C_R   0.475284 0.920020 0.537330 0.046129
C92   C     C_R   0.102939 0.527370 0.961112 0.050353
C93   C     C_R   0.472304 0.485604 0.530671 0.042999
C94   C     C_R   0.520130 0.097077 0.970225 0.050240
C95   C     C_R   0.921132 0.538465 0.531546 0.064064
C96   C     C_R   0.438896 0.497226 0.965788 0.054792
C97   C     C_R   0.124455 0.552434 0.060616 0.487401
C98   C     C_R   0.444036 0.894581 0.438305 0.483066
C99   C     C_R   0.421371 0.509160 0.064752 0.484730
C100  C     C_R   0.951658 0.538820 0.432614 0.458858
C101  C     C_R   0.500498 0.059541 0.068958 0.492424
C102  C     C_R   0.476219 0.463692 0.431750 0.484522
C103  C     C_R   0.482849 0.928857 0.570348 0.484099
C104  C     C_R   0.090063 0.525621 0.928194 0.494181
C105  C     C_R   0.470461 0.490089 0.563657 0.491857
C106  C     C_R   0.531831 0.104254 0.937287 0.479190
C107  C     C_R   0.907975 0.528473 0.564266 0.487314
C108  C     C_R   0.445894 0.495360 0.932855 0.489874
C109  C     C_R   0.965569 0.434097 0.064878 0.505446
C110  C     C_R   0.555641 0.054892 0.432160 0.504938
C111  C     C_R   0.525488 0.450176 0.071302 0.501660
C112  C     C_R   0.109484 0.576653 0.439459 0.509732
C113  C     C_R   0.365258 0.910532 0.062045 0.494232
C114  C     C_R   0.628780 0.594897 0.429920 0.502765
C115  C     C_R   0.585897 0.091767 0.565941 0.509877
C116  C     C_R   0.936485 0.396437 0.932950 0.497540
C117  C     C_R   0.631643 0.603460 0.565103 0.462542
C118  C     C_R   0.413573 0.946165 0.930796 0.504481
C119  C     C_R   0.065939 0.567357 0.572052 0.506671
C120  C     C_R   0.559550 0.447517 0.937822 0.496200
C121  C     C_R   0.962327 0.412308 0.032428 0.025690
C122  C     C_R   0.566111 0.068194 0.465417 0.016935
C123  C     C_R   0.541792 0.454620 0.038278 0.025345
C124  C     C_R   0.099180 0.567509 0.472548 0.030099
C125  C     C_R   0.364277 0.925266 0.029075 0.014962
C126  C     C_R   0.636572 0.596525 0.463605 -0.002562
C127  C     C_R   0.585735 0.085094 0.532482 0.018720
C128  C     C_R   0.948791 0.392645 0.965939 0.023032
C129  C     C_R   0.635793 0.606167 0.531343 0.002679
C130  C     C_R   0.389134 0.942079 0.962920 0.019928
C131  C     C_R   0.079322 0.566336 0.539080 0.025855
C132  C     C_R   0.559358 0.454175 0.971311 0.026452
C133  C     C_R   0.037224 0.472515 0.013406 -0.050726
C134  C     C_R   0.516310 0.990174 0.484901 -0.054995
C135  C     C_R   0.487839 0.477791 0.018459 -0.049411
C136  C     C_R   0.016187 0.555109 0.485617 -0.049020
C137  C     C_R   0.438871 0.004897 0.016212 -0.055138
C138  C     C_R   0.556699 0.536268 0.480888 -0.056915
C139  C     C_R   0.525849 0.998725 0.518252 -0.052301
C140  C     C_R   0.029599 0.464018 0.980112 -0.052874
C141  C     C_R   0.555323 0.543046 0.514322 -0.054685
C142  C     C_R   0.449268 0.014710 0.983080 -0.054229
C143  C     C_R   0.005907 0.553785 0.518782 -0.045583
C144  C     C_R   0.495418 0.476083 0.985163 -0.049991
C145  C     C_R   0.194745 0.599191 0.008342 -0.123853
C146  C     C_R   0.405911 0.826165 0.490550 -0.098413
C147  C     C_R   0.371101 0.524237 0.012218 -0.097918
C148  C     C_R   0.859869 0.529650 0.478743 -0.089590
C149  C     C_R   0.569175 0.159326 0.023212 -0.092027
C150  C     C_R   0.397082 0.409917 0.481677 -0.077537
C151  C     C_R   0.416376 0.834409 0.523113 -0.101338
C152  C     C_R   0.186531 0.592048 0.975555 -0.118148
C153  C     C_R   0.394007 0.420019 0.514027 -0.083158
C154  C     C_R   0.576917 0.170326 0.990587 -0.095813
C155  C     C_R   0.849593 0.528412 0.511306 -0.085593
C156  C     C_R   0.377056 0.520789 0.979654 -0.096774
C157  C     C_R   0.889568 0.331037 0.018560 0.112103
C158  C     C_R   0.626019 0.155325 0.479794 0.115563
C159  C     C_R   0.611860 0.440642 0.024596 0.107634
C160  C     C_R   0.167382 0.567192 0.492679 0.094718
C161  C     C_R   0.291457 0.865140 0.008412 0.091358
C162  C     C_R   0.718604 0.658640 0.480554 0.088798
C163  C     C_R   0.640428 0.161887 0.512873 0.121267
C164  C     C_R   0.884152 0.320441 0.985309 0.109640
C165  C     C_R   0.717863 0.664648 0.514113 0.094668
C166  C     C_R   0.304942 0.871578 0.975315 0.101708
C167  C     C_R   0.159592 0.570179 0.525855 0.097036
C168  C     C_R   0.621536 0.441923 0.991291 0.100298
Cr1   Cr    Cr6+3 0.530290 0.262330 0.750000 1.181045
Cr2   Cr    Cr6+3 0.732040 0.469710 0.750000 1.185080
Cr3   Cr    Cr6+3 0.737670 0.267960 0.750000 1.164328
Cr4   Cr    Cr6+3 0.262330 0.530290 0.250000 1.174245
Cr5   Cr    Cr6+3 0.469710 0.732040 0.250000 1.174715
Cr6   Cr    Cr6+3 0.267960 0.737670 0.250000 1.202305
H1    H     H_    0.245210 0.639100 0.961546 0.181939
H2    H     H_    0.376782 0.773588 0.537218 0.193641
H3    H     H_    0.333252 0.537216 0.965320 0.173913
H4    H     H_    0.784367 0.517221 0.520599 0.175894
H5    H     H_    0.629987 0.235104 0.981347 0.194582
H6    H     H_    0.330298 0.374515 0.526096 0.190620
H7    H     H_    0.358836 0.759031 0.480549 0.192893
H8    H     H_    0.259343 0.651894 0.018592 0.174552
H9    H     H_    0.335147 0.358006 0.469778 0.197182
H10   H     H_    0.616085 0.216305 0.038158 0.197096
H11   H     H_    0.802435 0.519742 0.463913 0.183866
H12   H     H_    0.323002 0.543132 0.022064 0.170211
N1    N     N_R   0.047190 0.499964 0.078730 -0.368145
N2    N     N_R   0.495085 0.969568 0.419422 -0.362308
N3    N     N_R   0.471516 0.483494 0.083915 -0.365088
N4    N     N_R   0.034410 0.554466 0.420093 -0.367087
N5    N     N_R   0.434664 0.976165 0.081168 -0.362670
N6    N     N_R   0.548420 0.530757 0.414850 -0.343334
N7    N     N_R   0.534656 0.014520 0.584075 -0.363371
N8    N     N_R   0.005949 0.463459 0.914847 -0.366038
N9    N     N_R   0.550882 0.543223 0.580383 -0.352510
N10   N     N_R   0.480727 0.028123 0.918078 -0.365827
N11   N     N_R   0.979098 0.539498 0.583795 -0.362798
N12   N     N_R   0.505836 0.471031 0.919441 -0.363066
O1    O     O_R   0.509640 0.171340 0.784000 -0.473393
O2    O     O_R   0.661700 0.490360 0.716000 -0.478719
O3    O     O_R   0.828660 0.338300 0.784000 -0.474015
O4    O     O_R   0.509640 0.171340 0.716000 -0.441457
O5    O     O_R   0.661700 0.490360 0.784000 -0.464193
O6    O     O_R   0.828660 0.338300 0.716000 -0.463602
O7    O     O_R   0.171340 0.509640 0.284000 -0.453730
O8    O     O_R   0.490360 0.661700 0.216000 -0.467131
O9    O     O_R   0.338300 0.828660 0.284000 -0.456863
O10   O     O_R   0.171340 0.509640 0.216000 -0.470124
O11   O     O_R   0.490360 0.661700 0.284000 -0.471260
O12   O     O_R   0.338300 0.828660 0.216000 -0.465135
O13   O     O_R   0.539230 0.345420 0.781810 -0.446752
O14   O     O_R   0.806190 0.460770 0.718190 -0.439388
O15   O     O_R   0.654580 0.193810 0.781810 -0.437651
O16   O     O_R   0.539230 0.345420 0.718190 -0.424818
O17   O     O_R   0.806190 0.460770 0.781810 -0.425781
O18   O     O_R   0.654580 0.193810 0.718190 -0.423308
O19   O     O_R   0.345420 0.539230 0.281810 -0.437563
O20   O     O_R   0.460770 0.806190 0.218190 -0.430901
O21   O     O_R   0.193810 0.654580 0.281810 -0.419629
O22   O     O_R   0.345420 0.539230 0.218190 -0.447465
O23   O     O_R   0.460770 0.806190 0.281810 -0.424513
O24   O     O_R   0.193810 0.654580 0.218190 -0.428901
O25   O     O_3   0.666667 0.333333 0.750000 -0.302912
O26   O     O_3   0.333333 0.666667 0.250000 -0.305010
O27   O     O_2   0.196917 0.608748 0.073326 -0.437543
O28   O     O_2   0.388951 0.820507 0.426301 -0.448245
O29   O     O_2   0.372977 0.537294 0.076494 -0.452236
O30   O     O_2   0.886661 0.522238 0.415069 -0.461068
O31   O     O_2   0.557823 0.118906 0.086511 -0.425108
O32   O     O_2   0.408879 0.402974 0.417771 -0.448758
O33   O     O_2   0.441664 0.860951 0.586993 -0.425463
O34   O     O_2   0.152586 0.580354 0.911424 -0.423238
O35   O     O_2   0.398385 0.442560 0.577805 -0.439598
O36   O     O_2   0.588418 0.177517 0.925670 -0.438098
O37   O     O_2   0.833059 0.508805 0.575495 -0.470568
O38   O     O_2   0.398682 0.515156 0.915964 -0.444044
O39   O     O_2   0.895922 0.396117 0.080867 -0.411881
O40   O     O_2   0.601311 0.117999 0.414230 -0.406032
O41   O     O_2   0.558197 0.416396 0.089025 -0.415847
O42   O     O_2   0.185595 0.607190 0.427757 -0.392631
O43   O     O_2   0.307210 0.838158 0.073641 -0.421851
O44   O     O_2   0.690728 0.652898 0.413926 -0.404021
O45   O     O_2   0.628441 0.166453 0.579169 -0.403337
O46   O     O_2   0.862852 0.343032 0.920351 -0.413677
O47   O     O_2   0.700094 0.651079 0.581147 -0.437944
O48   O     O_2   0.376789 0.877038 0.914206 -0.414465
O49   O     O_2   0.130242 0.591500 0.590567 -0.400477
O50   O     O_2   0.605743 0.419214 0.924745 -0.427332
I1    I     I_    0.790789 0.188280 0.965352 -0.100444
I2    I     I_    0.756009 0.285529 0.531513 -0.085405
I3    I     I_    0.739982 0.438576 0.972469 -0.162409
I4    I     I_    0.265202 0.567050 0.554894 -0.058415
I5    I     I_    0.190158 0.790802 0.944067 -0.039986
I6    I     I_    0.843202 0.766672 0.537461 -0.103071
I7    I     I_    0.690030 0.282212 0.453316 -0.160208
I8    I     I_    0.799368 0.215915 0.047574 -0.055563
I9    I     I_    0.848643 0.739297 0.456501 -0.090257
I10   I     I_    0.154592 0.782851 0.025820 -0.116376
I11   I     I_    0.269393 0.537611 0.473686 -0.143326
I12   I     I_    0.713778 0.430917 0.053628 -0.068979
S1    S     S_3+6 0.884000 0.606613 0.830927 0.111501
O51   O     O_2   0.782751 0.566233 0.837209 -0.262786
O52   O     O_2   0.936937 0.694948 0.849353 -0.170385
O53   O     O_3   0.905766 0.633310 0.792506 -0.435131
H13   H     H_    0.870783 0.665028 0.787071 0.386597
S2    S     S_3+6 0.680402 0.038054 0.695836 0.096247
O54   O     O_2   0.638210 0.019520 0.728149 -0.252005
O55   O     O_2   0.688360 0.956076 0.685619 -0.174072
O56   O     O_3   0.786029 0.131497 0.697326 -0.464649
H14   H     H_    0.817175 0.121162 0.715548 0.367743
S3    S     S_3+6 0.367286 0.295378 0.813292 0.094543
O57   O     O_2   0.375481 0.210013 0.812143 -0.207932
O58   O     O_2   0.275820 0.272714 0.827340 -0.213145
O59   O     O_3   0.371118 0.333785 0.776344 -0.496627
H15   H     H_    0.326957 0.278751 0.763991 0.377263
S4    S     S_3+6 0.951788 0.639588 0.698539 0.109643
O60   O     O_2   0.971193 0.613004 0.730337 -0.199067
O61   O     O_2   0.032719 0.731481 0.690186 -0.176398
O62   O     O_3   0.856318 0.649412 0.700894 -0.454087
H16   H     H_    0.835711 0.647162 0.678771 0.346304
S5    S     S_3+6 0.720580 0.105282 0.827111 0.112294
O63   O     O_2   0.785802 0.206315 0.832427 -0.245125
O64   O     O_2   0.758871 0.051925 0.843472 -0.178482
O65   O     O_3   0.715357 0.080236 0.788403 -0.449379
H17   H     H_    0.780193 0.114382 0.781099 0.369966
S6    S     S_3+6 0.545609 0.287447 0.649254 0.056420
O66   O     O_2   0.461374 0.232361 0.668900 -0.211446
O67   O     O_2   0.531022 0.235859 0.618768 -0.191429
O68   O     O_3   0.641138 0.299668 0.667192 -0.548043
H18   H     H_    0.692016 0.336041 0.652329 0.344290
S7    S     S_3+6 0.633353 0.920128 0.315998 0.097967
O69   O     O_2   0.629840 0.941154 0.281687 -0.239217
O70   O     O_2   0.724356 0.993173 0.329368 -0.182459
O71   O     O_3   0.626622 0.816882 0.319484 -0.487753
H19   H     H_    0.677753 0.821034 0.306457 0.381909
S8    S     S_3+6 0.086637 0.710575 0.177145 0.108562
O72   O     O_2   0.183506 0.789497 0.173908 -0.196906
O73   O     O_2   0.021216 0.737302 0.162499 -0.186264
O74   O     O_3   0.059946 0.692214 0.215563 -0.443136
H20   H     H_    0.996110 0.639214 0.215808 0.361555
S9    S     S_3+6 0.318144 0.580749 0.354071 0.059946
O75   O     O_2   0.247363 0.495594 0.337211 -0.234631
O76   O     O_2   0.285319 0.576643 0.387191 -0.171658
O77   O     O_3   0.328705 0.674792 0.336163 -0.540845
H21   H     H_    0.364932 0.725974 0.351212 0.350278
S10   S     S_3+6 0.590665 0.865410 0.163328 0.107360
O78   O     O_2   0.549120 0.763235 0.159604 -0.255914
O79   O     O_2   0.672059 0.913245 0.141722 -0.179066
O80   O     O_3   0.629785 0.898157 0.200513 -0.457598
H22   H     H_    0.666531 0.867810 0.205234 0.382388
S11   S     S_3+6 0.060147 0.698456 0.310075 0.103701
O81   O     O_2   0.027911 0.653178 0.278283 -0.267055
O82   O     O_2   0.987023 0.716410 0.323351 -0.181232
O83   O     O_3   0.158870 0.798913 0.306327 -0.455451
H23   H     H_    0.147586 0.829819 0.288345 0.385004
S12   S     S_3+6 0.305324 0.361263 0.192320 0.095153
O84   O     O_2   0.215356 0.361366 0.191153 -0.205681
O85   O     O_2   0.289599 0.268378 0.182053 -0.211924
O86   O     O_3   0.345456 0.380017 0.229745 -0.501449
H24   H     H_    0.292054 0.337189 0.242696 0.376426
I13   I     I_    0.924186 0.598540 0.911187 0.012202
I14   I     I_    0.713237 0.019836 0.614938 0.009685
I15   I     I_    0.350369 0.272657 0.895512 -0.039554
I16   I     I_    0.974813 0.705660 0.619623 -0.028573
I17   I     I_    0.656323 0.006990 0.903718 -0.036083
I18   I     I_    0.602968 0.387851 0.574125 -0.114045
I19   I     I_    0.653380 0.927857 0.397613 -0.037049
I20   I     I_    0.020935 0.670731 0.097004 0.027446
I21   I     I_    0.473504 0.673330 0.419092 -0.145109
I22   I     I_    0.544407 0.865550 0.083208 -0.047985
I23   I     I_    0.080064 0.747942 0.390761 0.043226
I24   I     I_    0.289078 0.312336 0.110962 -0.039511
I25   I     I_    0.995817 0.340404 0.196253 -0.008806
I26   I     I_    0.350112 0.007849 0.305363 -0.008140
I27   I     I_    0.661608 0.660640 0.194011 -0.024127
I28   I     I_    0.024433 0.343876 0.315342 0.033196
I29   I     I_    0.380062 0.026004 0.208374 0.010525
I30   I     I_    0.555529 0.487997 0.282707 -0.039795
I31   I     I_    0.336024 0.009133 0.690367 0.037822
I32   I     I_    0.023174 0.373141 0.788649 -0.020461
I33   I     I_    0.536981 0.592713 0.711546 -0.014478
I34   I     I_    0.343622 0.986260 0.795914 0.011541
I35   I     I_    0.976619 0.320081 0.681731 -0.000459
I36   I     I_    0.660926 0.659644 0.807552 0.020425
S13   S     S_3+6 0.039222 0.338259 0.116121 0.106654
O87   O     O_2   0.938368 0.267610 0.113743 -0.194922
O88   O     O_2   0.081899 0.353833 0.083930 -0.257014
O89   O     O_3   0.091925 0.297496 0.139625 -0.431772
H25   H     H_    0.068347 0.233061 0.132509 0.396085
S14   S     S_3+6 0.358314 0.016659 0.386542 0.112575
O90   O     O_2   0.261326 0.968033 0.373583 -0.200611
O91   O     O_2   0.353974 0.005307 0.421782 -0.257192
O92   O     O_3   0.407837 0.129515 0.378263 -0.433472
H26   H     H_    0.366822 0.149925 0.387851 0.393284
S15   S     S_3+6 0.647848 0.646458 0.111841 0.118880
O93   O     O_2   0.713358 0.609165 0.112802 -0.202597
O94   O     O_2   0.625470 0.654700 0.078002 -0.256976
O95   O     O_3   0.700178 0.752695 0.127934 -0.412797
H27   H     H_    0.757403 0.788146 0.115575 0.394657
S16   S     S_3+6 0.997416 0.365399 0.394120 0.129940
O96   O     O_2   0.907403 0.291000 0.380514 -0.215102
O97   O     O_2   0.068412 0.335452 0.390922 -0.147128
O98   O     O_3   0.982820 0.376413 0.432881 -0.493737
H28   H     H_    0.915412 0.350095 0.435684 0.373888
S17   S     S_3+6 0.347326 0.048571 0.129805 0.131440
O99   O     O_2   0.328421 0.050365 0.095162 -0.240211
O100  O     O_2   0.256696 0.005569 0.146917 -0.176158
O101  O     O_3   0.413847 0.157483 0.142806 -0.446033
H29   H     H_    0.374602 0.186303 0.140758 0.396143
S18   S     S_3+6 0.615120 0.456819 0.358493 0.135081
O102  O     O_2   0.566514 0.365928 0.341260 -0.190785
O103  O     O_2   0.706503 0.517422 0.343008 -0.193010
O104  O     O_3   0.634301 0.437556 0.395987 -0.477072
H30   H     H_    0.680856 0.417337 0.394509 0.403620
S19   S     S_3+6 0.358348 0.009161 0.608860 0.128259
O105  O     O_2   0.286085 0.909056 0.610769 -0.214600
O106  O     O_2   0.319209 0.066682 0.621519 -0.171931
O107  O     O_3   0.385313 0.037307 0.570770 -0.505977
H31   H     H_    0.325220 0.010455 0.559467 0.377264
S20   S     S_3+6 0.065144 0.361523 0.867224 0.133479
O108  O     O_2   0.076582 0.353645 0.902091 -0.246441
O109  O     O_2   0.012096 0.266038 0.853349 -0.175347
O110  O     O_3   0.170442 0.416952 0.850746 -0.443783
H32   H     H_    0.199768 0.379801 0.856266 0.400846
S21   S     S_3+6 0.523327 0.653058 0.634801 0.142318
O111  O     O_2   0.436281 0.632626 0.651781 -0.154015
O112  O     O_2   0.602905 0.736888 0.649749 -0.210765
O113  O     O_3   0.512010 0.676251 0.596915 -0.460730
H33   H     H_    0.571680 0.730979 0.591426 0.369899
S22   S     S_3+6 0.319816 0.011892 0.876140 0.114784
O114  O     O_2   0.253009 0.910099 0.874785 -0.181415
O115  O     O_2   0.324965 0.046612 0.909323 -0.259813
O116  O     O_3   0.279824 0.065274 0.852686 -0.424338
H34   H     H_    0.217199 0.046520 0.860663 0.398447
S23   S     S_3+6 0.970735 0.356712 0.602444 0.101410
O117  O     O_2   0.903177 0.258876 0.611099 -0.204111
O118  O     O_2   0.955813 0.369831 0.568316 -0.267363
O119  O     O_3   0.078910 0.375364 0.607219 -0.439077
H35   H     H_    0.083547 0.331870 0.592378 0.387818
S24   S     S_3+6 0.645836 0.655265 0.888312 0.123133
O120  O     O_2   0.640429 0.648388 0.923681 -0.250082
O121  O     O_2   0.745041 0.693808 0.878875 -0.170454
O122  O     O_3   0.609252 0.727929 0.876708 -0.456192
H36   H     H_    0.655011 0.788657 0.885672 0.392387

loop_
_geom_bond_atom_site_label_1
_geom_bond_atom_site_label_2
_ccdc_geom_bond_type
C132  C144  A    
C50   I19   S    
S7    O69   D    
Cr6   O24   S    
C93   C141  A    
S9    O75   D    
S5    O65   S    
C21   S21   S    
O65   H17   S    
C47   C76   A    
C112  C124  A    
C33   C78   A    
C21   C33   A    
C60   C72   A    
S3    O57   D    
Cr1   O13   S    
C165  I6    S    
C86   C134  A    
C48   S3    S    
C58   I17   S    
C71   N11   S    
C45   C78   A    
S6    O68   S    
C96   C108  A    
C153  H6    S    
C19   C31   A    
C154  H5    S    
C28   C83   A    
C40   C83   A    
C24   S24   S    
C22   C34   A    
O101  H29   S    
C20   S20   S    
C4    O16   A    
C43   S2    S    
C44   S1    S    
C58   C70   A    
S22   O115  D    
Cr2   O17   S    
O83   H23   S    
C45   S6    S    
S12   O84   D    
C67   N7    S    
C4    C78   S    
C96   C144  A    
C162  C165  A    
C15   C27   A    
S15   O93   D    
C45   C57   A    
C18   S18   S    
S10   O78   D    
C88   C148  A    
Cr6   O26   S    
C14   C26   A    
S13   O89   S    
C11   C79   S    
C9    C83   S    
C25   I25   S    
Cr3   O18   S    
S8    O72   D    
C111  N3    Am   
C27   I27   S    
O110  H32   S    
C3    C77   S    
C131  C143  A    
C62   N2    S    
C34   I34   S    
S9    O77   S    
C97   N1    Am   
C168  I3    S    
C151  H2    S    
C146  H7    S    
C89   C101  A    
C20   C68   A    
C100  N4    Am   
C91   C103  A    
C101  N5    Am   
C138  C141  A    
C46   C77   A    
Cr3   O25   S    
S19   O105  D    
C118  O48   D    
C57   I18   S    
C3    O15   A    
O116  H34   S    
C99   N3    Am   
C93   C153  A    
C29   C82   A    
C63   N3    S    
S17   O99   D    
S6    O67   D    
C109  C121  A    
C96   C156  A    
C123  C159  A    
C41   C82   A    
C124  C160  A    
O89   H25   S    
S14   O90   D    
C32   I32   S    
C85   C97   A    
C92   C104  A    
C47   C59   A    
Cr2   O14   S    
C123  C135  A    
C102  O32   D    
O107  H31   S    
Cr5   O26   S    
C42   C54   A    
S20   O108  D    
S21   O112  D    
C39   C51   A    
C137  C142  A    
C116  O46   D    
C29   I29   S    
C59   I16   S    
C54   I21   S    
C90   C150  A    
C11   O23   A    
S18   O102  D    
C109  N1    Am   
C110  N2    Am   
C24   C36   A    
S12   O86   S    
C27   C84   A    
S7    O70   D    
C85   C145  A    
C39   C84   A    
O59   H15   S    
C136  C143  A    
C5    O3    A    
S1    O51   D    
C114  C126  A    
C5    O17   A    
C41   S10   S    
C128  C164  A    
C55   I14   S    
Cr3   O6    S    
C119  O49   D    
C122  C134  A    
Cr1   O4    S    
S8    O74   S    
C65   N5    S    
O113  H33   S    
C112  O42   D    
C66   N6    S    
C149  H10   S    
C119  C131  A    
Cr5   O8    S    
C148  C155  A    
C117  C129  A    
Cr4   O22   S    
C155  H4    S    
C116  N8    Am   
C131  C167  A    
C46   C58   A    
C42   C81   A    
C11   O9    A    
C8    O12   A    
S16   O96   D    
C90   C138  A    
C147  H12   S    
C103  O33   D    
C28   I28   S    
C37   C80   A    
C35   C76   A    
C94   C142  A    
S17   O101  S    
C134  C139  A    
C47   S4    S    
C31   C74   A    
C56   C68   A    
C14   S14   S    
C160  I11   S    
C167  I4    S    
O86   H24   S    
C21   C69   A    
C117  N9    Am   
C36   C75   A    
S10   O79   D    
C105  N9    Am   
O62   H16   S    
C52   I23   S    
C12   O24   A    
O68   H18   S    
Cr5   O20   S    
C157  C164  A    
C41   C53   A    
S2    O55   D    
C158  C163  A    
C22   S22   S    
S20   O110  S    
C23   S23   S    
C7    C81   S    
S11   O82   D    
C56   I13   S    
C31   I31   S    
C24   C72   A    
C20   C32   A    
S19   O107  S    
C43   C55   A    
C135  C144  A    
C106  O36   D    
S15   O94   D    
C16   S16   S    
C163  I2    S    
Cr5   O11   S    
S24   O120  D    
S2    O56   S    
S1    O53   S    
C110  O40   D    
C54   C66   A    
S5    O64   D    
C10   O8    A    
S8    O73   D    
C128  C140  A    
C5    C73   S    
C130  C142  A    
C145  C152  A    
C112  N4    Am   
C146  C151  A    
C4    O2    A    
C6    O18   A    
S4    O60   D    
C70   N10   S    
C104  N8    Am   
C68   N8    S    
C120  O50   D    
C22   C70   A    
S16   O98   S    
C99   O29   D    
C42   S9    S    
C161  I10   S    
S3    O59   S    
C97   O27   D    
C108  O38   D    
C95   C143  A    
C1    O13   A    
C25   C80   A    
C17   C29   A    
Cr5   O23   S    
O92   H26   S    
C87   C147  A    
C8    C82   S    
C34   C77   A    
O71   H19   S    
S23   O119  S    
C129  C141  A    
C38   C79   A    
C61   N1    S    
C166  I5    S    
S12   O85   D    
C100  O30   D    
C98   N2    Am   
C13   S13   S    
C152  H1    S    
C94   C106  A    
C15   S15   S    
C150  C153  A    
C17   S17   S    
C120  N12   Am   
O98   H28   S    
C19   C67   A    
S13   O88   D    
C118  N10   Am   
C16   C28   A    
Cr1   O1    S    
C9    O21   A    
C89   C149  A    
Cr6   O12   S    
O56   H14   S    
S24   O122  S    
C86   C146  A    
S16   O97   D    
C7    O11   A    
C6    C74   S    
S9    O76   D    
S18   O103  D    
S10   O80   S    
C49   C61   A    
C124  C136  A    
C111  C123  A    
C87   C135  A    
C51   C63   A    
C88   C136  A    
C52   C64   A    
C157  I8    S    
C107  N11   Am   
S14   O92   S    
C125  C137  A    
C148  H11   S    
C49   I20   S    
O74   H20   S    
Cr4   O26   S    
C23   C71   A    
C17   C65   A    
C37   C49   A    
C156  H3    S    
C44   C56   A    
C64   N4    S    
S4    O62   S    
C36   I36   S    
S14   O91   D    
C147  C156  A    
Cr2   O5    S    
C88   C100  A    
C95   C107  A    
C91   C139  A    
C89   C137  A    
Cr6   O9    S    
C18   C66   A    
C1    O5    A    
C2    C76   S    
S20   O109  D    
S21   O111  D    
C33   I33   S    
Cr4   O7    S    
C127  C163  A    
C119  N11   Am   
C35   I35   S    
C125  C161  A    
C60   I15   S    
C106  N10   Am   
S23   O117  D    
S22   O114  D    
C117  O47   D    
C2    O14   A    
C26   C79   A    
C129  C165  A    
C30   C81   A    
C164  I1    S    
C110  C122  A    
C108  N12   Am   
C44   C73   A    
C86   C98   A    
S18   O104  S    
C8    O20   A    
C72   N12   S    
Cr2   O25   S    
Cr3   O15   S    
C51   I24   S    
C133  C140  A    
C101  O31   D    
Cr6   O21   S    
C103  N7    Am   
Cr4   O19   S    
C85   C133  A    
C14   C62   A    
C30   I30   S    
S11   O81   D    
C159  I12   S    
O122  H36   S    
C69   N9    S    
C149  C154  A    
C40   S11   S    
S22   O116  S    
Cr2   O2    S    
C10   O22   A    
O80   H22   S    
Cr1   O16   S    
C118  C130  A    
C12   O10   A    
C6    O4    A    
S17   O100  D    
S6    O66   D    
C104  O34   D    
C113  C125  A    
C115  C127  A    
C159  C168  A    
C160  C167  A    
C130  C166  A    
C158  I7    S    
C93   C105  A    
C90   C102  A    
C162  I9    S    
C92   C152  A    
C3    O1    A    
C18   C30   A    
C161  C166  A    
S21   O113  S    
C43   C74   A    
C115  N7    Am   
C121  C157  A    
C48   C75   A    
C13   C25   A    
C127  C139  A    
C39   S12   S    
C48   C60   A    
C87   C99   A    
S19   O106  D    
C122  C158  A    
C113  N5    Am   
C114  N6    Am   
C1    C75   S    
Cr4   O10   S    
S7    O71   S    
C2    O6    A    
S24   O121  D    
C32   C73   A    
S1    O52   D    
O53   H13   S    
S5    O63   D    
C40   C52   A    
C145  H8    S    
C111  O41   D    
Cr3   O3    S    
C53   I22   S    
C94   C154  A    
C13   C61   A    
C26   I26   S    
C115  O45   D    
O77   H21   S    
S4    O61   D    
C37   S8    S    
C113  O43   D    
C50   C62   A    
C53   C65   A    
S3    O58   D    
C107  O37   D    
C126  C138  A    
C120  C132  A    
C105  O35   D    
C132  C168  A    
C55   C67   A    
C114  O44   D    
C150  H9    S    
C38   C50   A    
C109  O39   D    
C23   C35   A    
C57   C69   A    
C19   S19   S    
C9    O7    A    
O104  H30   S    
C91   C151  A    
S23   O118  D    
Cr1   O25   S    
C12   C80   S    
C10   C84   S    
C95   C155  A    
C102  N6    Am   
O95   H27   S    
S2    O54   D    
C7    O19   A    
S15   O95   S    
C38   S7    S    
C116  C128  A    
S11   O83   S    
C46   S5    S    
C15   C63   A    
O119  H35   S    
C16   C64   A    
C121  C133  A    
S13   O87   D    
C126  C162  A    
C59   C71   A    
C98   O28   D    
C92   C140  A    
