data_mof_unit_43110.cif
_audit_creation_date              2013-03-05T16:33:10-0500
_audit_creation_method            fapswitch 2.2
_symmetry_space_group_name_H-M    P1
_symmetry_Int_Tables_number       1
_space_group_crystal_system       triclinic
_cell_length_a                    27.7977
_cell_length_b                    10.801988
_cell_length_c                    9.536354
_cell_angle_alpha                 90.043215
_cell_angle_beta                  89.873566
_cell_angle_gamma                 90.766238
_cell_volume                      2863.22125568

loop_
_atom_site_label
_atom_site_type_symbol
_atom_site_description
_atom_site_fract_x
_atom_site_fract_y
_atom_site_fract_z
_atom_type_partial_charge
O1    O     O_R   0.500000 0.319640 0.618810 -0.576948
O2    O     O_R   0.500010 0.319680 0.381230 -0.591756
C1    C     C_R   0.500736 0.262448 0.500097 0.795189
O3    O     O_R   0.430260 0.500000 0.618780 -0.586748
O4    O     O_R   0.430270 0.500040 0.381190 -0.579137
C2    C     C_R   0.407447 0.499397 0.500188 0.808532
Cu1   Cu    Cu3+1 0.500000 0.499980 0.640670 0.936192
Cu2   Cu    Cu3+1 0.500000 0.500020 0.359330 0.934377
O5    O     O_R   0.499990 0.680320 0.618770 -0.588273
O6    O     O_R   0.500000 0.680360 0.381190 -0.579347
O7    O     O_R   0.569730 0.499960 0.618810 -0.582876
O8    O     O_R   0.569740 0.500000 0.381220 -0.589132
C3    C     C_R   0.500665 0.737738 0.500155 0.803793
C4    C     C_R   0.592343 0.492723 0.499564 0.786804
C5    C     C_R   0.177974 0.391017 0.449433 0.523872
O9    O     O_2   0.202891 0.291089 0.407716 -0.539840
N1    N     N_R   0.201967 0.493499 0.498596 -0.471037
C6    C     C_R   0.177872 0.596201 0.542299 0.518030
C7    C     C_R   0.278924 0.516328 0.377742 -0.125448
C8    C     C_R   0.328931 0.517696 0.376770 -0.220941
C9    C     C_R   0.329135 0.474369 0.626267 -0.204031
C10   C     C_R   0.278447 0.471285 0.628689 0.188981
C11   C     C_R   0.253565 0.493899 0.502285 0.311621
C12   C     C_R   0.102001 0.494321 0.486341 -0.045940
C13   C     C_R   0.127526 0.389296 0.442810 -0.019953
C14   C     C_R   0.102217 0.285235 0.394036 -0.146515
C15   C     C_R   0.127438 0.597930 0.538656 -0.012835
C16   C     C_R   0.354455 0.497454 0.501011 -0.088661
H1    H     H_    0.349347 0.457855 0.720905 0.165569
H2    H     H_    0.120987 0.203939 0.357811 0.187319
C17   C     C_R   0.645161 0.482354 0.498209 -0.068604
C18   C     C_R   0.974764 0.383720 0.450297 0.059010
C19   C     C_R   0.975283 0.609744 0.492644 -0.014867
C20   C     C_R   0.949750 0.495799 0.474108 0.039431
C21   C     C_R   0.948006 0.271926 0.441050 -0.215003
C22   C     C_R   0.898288 0.270105 0.454609 -0.149518
C23   C     C_R   0.873206 0.380222 0.472361 -0.005041
C24   C     C_R   0.898743 0.493530 0.478729 -0.048964
C25   C     C_R   0.873143 0.604256 0.489397 -0.066807
C26   C     C_R   0.822559 0.600046 0.492426 0.547854
N2    N     N_R   0.798362 0.488601 0.491065 -0.457239
C27   C     C_R   0.822871 0.379511 0.483355 0.531862
C28   C     C_R   0.720658 0.421850 0.390452 -0.115566
C29   C     C_R   0.670256 0.413330 0.394611 0.122647
C30   C     C_R   0.671424 0.544809 0.602879 -0.261854
C31   C     C_R   0.721489 0.545110 0.602141 -0.100489
C32   C     C_R   0.746495 0.485957 0.494245 0.300736
O10   O     O_2   0.798661 0.270386 0.487319 -0.549255
C33   C     C_R   0.025620 0.386536 0.439145 0.042150
C34   C     C_R   0.051020 0.495352 0.479044 0.074870
C35   C     C_R   0.025904 0.604393 0.515045 0.039082
C36   C     C_R   0.052177 0.283345 0.392972 -0.217712
H3    H     H_    0.740164 0.375584 0.307511 0.155755
H4    H     H_    0.879524 0.181666 0.449147 0.184127
H5    H     H_    0.964691 0.183373 0.427960 0.143575
H6    H     H_    0.035210 0.200517 0.352256 0.141167
O11   O     O_2   0.202695 0.696294 0.588694 -0.542599
C37   C     C_R   0.101935 0.698966 0.590043 -0.154965
H7    H     H_    0.347583 0.535500 0.278855 0.163660
H8    H     H_    0.259616 0.532876 0.281167 0.144781
H9    H     H_    0.120389 0.776860 0.638507 0.188592
C38   C     C_R   0.948632 0.722439 0.486505 0.145295
C39   C     C_R   0.898225 0.717124 0.489416 -0.162397
O12   O     O_2   0.797798 0.706668 0.494795 -0.546791
C40   C     C_R   0.052017 0.700397 0.581779 -0.228951
H10   H     H_    0.653193 0.594916 0.685036 0.149775
H11   H     H_    0.878445 0.802902 0.486667 0.196839
H12   H     H_    0.034278 0.776168 0.632265 0.177366
C41   C     C_R   0.490498 0.063808 0.621173 0.126563
C42   C     C_R   0.504580 0.129570 0.501925 -0.085211
C43   C     C_R   0.524465 0.065640 0.387933 -0.214938
H13   H     H_    0.538493 0.114941 0.297458 0.160570
C44   C     C_R   0.524547 0.936459 0.388377 -0.215369
H14   H     H_    0.539129 0.888338 0.298905 0.153559
C45   C     C_R   0.504285 0.871172 0.501948 -0.087317
C46   C     C_R   0.490089 0.936387 0.620963 0.106040
C47   C     C_3   0.443622 0.929642 0.700033 -0.458898
C48   C     C_3   0.444362 0.070078 0.701136 -0.469575
H15   H     H_    0.413757 0.889079 0.636769 0.204410
H16   H     H_    0.447661 0.889332 0.806322 0.190995
H17   H     H_    0.414768 0.111454 0.639236 0.198242
H18   H     H_    0.449576 0.110092 0.807553 0.193943
C49   C     C_R   0.533121 0.569166 0.073633 0.222392
N3    N     N_R   0.500300 0.500930 0.147930 -0.183209
C50   C     C_R   0.470210 0.423371 0.074566 -0.075397
H19   H     H_    0.445416 0.363211 0.130625 0.141805
C51   C     C_R   0.470187 0.423407 0.925610 -0.073617
H20   H     H_    0.445361 0.363331 0.869744 0.133577
N4    N     N_R   0.500310 0.500890 0.852020 -0.193816
C52   C     C_R   0.533273 0.569165 0.925963 0.198627
C53   C     C_3   0.539441 0.707002 0.921358 -0.093454
C54   C     C_3   0.539425 0.706042 0.080776 -0.508004
H21   H     H_    0.507616 0.753575 0.876718 0.182366
H22   H     H_    0.507366 0.752546 0.124944 0.199293
C55   C     C_3   0.970547 0.848825 0.453536 -0.419222
C56   C     C_3   0.964534 0.939669 0.575664 -0.847679
H23   H     H_    0.927977 0.979883 0.573857 0.252885
H24   H     H_    0.969522 0.893592 0.678518 0.256976
H25   H     H_    0.991487 0.015937 0.566337 0.241812
H26   H     H_    0.008673 0.843969 0.420572 0.211677
H27   H     H_    0.952129 0.887568 0.360222 0.202608
H28   H     H_    0.740874 0.592901 0.684843 0.159820
C57   C     C_3   0.249769 0.443177 0.761492 -0.379685
C58   C     C_3   0.279310 0.412658 0.891889 -0.854866
H29   H     H_    0.301772 0.330015 0.872831 0.254438
H30   H     H_    0.302399 0.492962 0.922285 0.249631
H31   H     H_    0.254610 0.391705 0.980703 0.258683
H32   H     H_    0.227137 0.524087 0.787034 0.229160
H33   H     H_    0.225305 0.363098 0.740449 0.215486
C59   C     C_3   0.587358 0.748731 0.854938 -0.348898
C60   C     C_3   0.595634 0.887961 0.871782 -0.825690
H34   H     H_    0.565452 0.939790 0.824909 0.253561
H35   H     H_    0.598830 0.913019 0.984355 0.250904
H36   H     H_    0.629470 0.915766 0.817554 0.248243
H37   H     H_    0.617965 0.698626 0.902597 0.197531
H38   H     H_    0.586455 0.727042 0.741193 0.220794
H39   H     H_    0.574262 0.732625 0.130128 0.195449
C61   C     C_3   0.645942 0.324891 0.291744 -0.433560
C62   C     C_3   0.659864 0.190754 0.320192 -0.797165
H40   H     H_    0.699046 0.177511 0.304546 0.272519
H41   H     H_    0.649968 0.164526 0.429283 0.260662
H42   H     H_    0.640254 0.128242 0.246799 0.232261
H43   H     H_    0.606321 0.326468 0.296466 0.231260
H44   H     H_    0.656576 0.350564 0.183043 0.204016

loop_
_geom_bond_atom_site_label_1
_geom_bond_atom_site_label_2
_geom_bond_distance
_ccdc_geom_bond_type
C51   H20   1.081804 S    
N2    C27   1.370868 A    
C55   C56   1.532678 S    
C12   C15   1.407477 A    
C4    C17   1.474003 S    
C45   C46   1.394413 A    
C58   H30   1.110848 S    
Cu1   Cu2   2.682957 S    
C50   H19   1.081672 S    
Cu1   O7    1.949057 S    
C49   C54   1.488076 S    
C31   H28   1.082909 S    
N1    C11   1.434760 S    
C53   C59   1.535962 S    
C22   C23   1.396780 A    
C23   C24   1.408012 A    
C35   C40   1.410052 A    
C24   C25   1.403411 A    
O7    C4    1.300933 A    
C62   H42   1.110905 S    
C5    O9    1.349558 S    
Cu1   N4    2.015563 S    
C56   H25   1.109633 S    
C41   C46   1.376296 A    
C5    N1    1.367827 A    
C44   H14   1.079786 S    
C23   C27   1.402822 A    
O5    C3    1.290426 A    
C61   C62   1.529338 S    
C6    O11   1.349640 S    
O1    Cu1   1.958997 S    
C59   C60   1.526817 S    
N3    C50   1.368924 A    
C28   H3    1.083587 S    
C2    C16   1.472912 S    
C21   C22   1.387668 A    
C19   C38   1.434777 A    
C56   H24   1.110050 S    
C42   C43   1.403773 A    
C57   C58   1.530261 S    
C33   C36   1.414632 A    
C37   H9    1.083342 S    
C50   C51   1.420497 A    
C20   C24   1.418352 A    
C38   C55   1.520305 S    
C44   C45   1.405488 A    
C41   C48   1.492920 S    
O3    Cu1   1.950282 S    
C58   H29   1.110846 S    
C19   C20   1.423661 A    
C62   H41   1.111456 S    
C12   C34   1.419203 A    
C39   H11   1.084092 S    
C17   C29   1.424191 A    
C21   H5    1.075697 S    
C18   C21   1.412604 A    
C3    C45   1.443610 S    
C1    C42   1.440873 S    
C12   C13   1.407960 A    
O3    C2    1.297785 A    
C53   C54   1.520314 S    
C43   C44   1.395455 A    
C55   H26   1.106680 S    
C27   O10   1.350028 S    
C8    C16   1.401165 A    
C34   C35   1.418793 A    
C13   C14   1.397978 A    
C47   C48   1.516886 S    
C9    H1    1.080359 S    
O6    C3    1.292401 A    
C10   C57   1.523567 S    
O1    C1    1.289527 A    
C18   C20   1.422035 A    
C7    C11   1.399415 A    
C54   H39   1.111820 S    
C38   C39   1.401830 A    
C14   C36   1.390927 A    
C53   H21   1.109431 S    
C48   H18   1.111766 S    
C37   C40   1.390311 A    
C49   N3    1.362947 A    
C29   C61   1.521832 S    
Cu2   O8    1.950276 S    
C40   H12   1.074255 S    
C56   H23   1.110640 S    
C54   H22   1.110805 S    
N1    C6    1.367845 A    
N2    C32   1.441928 S    
C47   H15   1.112322 S    
C60   H35   1.110392 S    
C61   H44   1.111637 S    
C46   C47   1.495189 S    
C8    H7    1.083130 S    
C57   H32   1.110266 S    
C26   N2    1.371178 A    
C9    C16   1.405856 A    
O8    C4    1.295850 A    
C14   H2    1.083393 S    
C51   N4    1.368841 A    
C28   C29   1.403329 A    
C59   H38   1.109818 S    
C25   C26   1.406482 A    
C47   H16   1.109991 S    
Cu1   O5    1.959353 S    
C49   C52   1.408229 A    
C31   C32   1.399251 A    
C60   H34   1.109842 S    
Cu2   N3    2.016016 S    
O2    Cu2   1.959355 S    
C6    C15   1.402847 A    
C15   C37   1.397197 A    
O4    Cu2   1.949060 S    
C62   H40   1.110146 S    
C7    H8    1.083138 S    
C19   C35   1.425685 A    
C25   C39   1.396360 A    
C26   O12   1.349760 S    
C57   H33   1.111562 S    
C7    C8    1.389968 A    
O2    C1    1.291913 A    
C43   H13   1.083397 S    
C48   H17   1.112356 S    
C52   C53   1.497138 S    
O4    C2    1.298865 A    
C36   H6    1.078292 S    
C60   H36   1.110321 S    
C61   H43   1.102536 S    
C41   C42   1.393865 A    
C18   C33   1.417373 A    
C22   H4    1.083568 S    
C30   C31   1.391649 A    
C5    C13   1.403754 A    
Cu2   O6    1.958995 S    
C33   C34   1.415357 A    
C17   C30   1.404808 A    
C30   H10   1.081010 S    
C10   C11   1.414139 A    
N4    C52   1.365555 A    
C9    C10   1.409091 A    
C28   C32   1.401393 A    
C59   H37   1.112536 S    
C58   H31   1.110658 S    
C55   H27   1.112412 S    
