data_mof_unit_5579.cif
_audit_creation_date              2012-10-26T18:43:30-0400
_audit_creation_method            fapswitch 2.2
_symmetry_space_group_name_H-M    P1
_symmetry_Int_Tables_number       1
_space_group_crystal_system       triclinic
_cell_length_a                    10.861617
_cell_length_b                    10.930898
_cell_length_c                    9.69945
_cell_angle_alpha                 88.91533
_cell_angle_beta                  93.050792
_cell_angle_gamma                 93.299699
_cell_volume                      1147.90481196

loop_
_atom_site_label
_atom_site_type_symbol
_atom_type_description
_atom_site_fract_x
_atom_site_fract_y
_atom_site_fract_z
_atom_type_partial_charge
C1    C     C_R   0.504160 0.263516 0.501001 0.536963
C2    C     C_R   0.468859 0.936014 0.615779 -0.000967
C3    C     C_3   0.433462 0.923706 0.760959 -0.248360
C4    C     C_R   0.261125 0.503547 0.496243 0.535725
C5    C     C_3   0.445160 0.065137 0.763778 -0.102049
C6    C     C_R   0.599727 0.544181 0.076713 0.175797
C7    C     C_R   0.410928 0.432643 0.067618 0.093716
C8    C     C_R   0.409787 0.438461 0.919364 -0.005745
C9    C     C_R   0.603118 0.536421 0.932223 0.123238
C10   C     C_3   0.679672 0.651963 0.921807 -0.261130
C11   C     C_3   0.665885 0.668025 0.074118 -0.121943
C12   C     C_3   0.881020 0.514066 0.501297 0.060540
C13   C     C_R   0.490149 0.736239 0.498909 0.534840
C14   C     C_R   0.740742 0.506700 0.501972 0.525051
C15   C     C_3   0.073590 0.397132 0.573910 -0.235889
C16   C     C_3   0.932006 0.391674 0.568376 -0.098019
C17   C     C_3   0.091177 0.625887 0.565168 -0.189042
C18   C     C_3   0.062864 0.507827 0.338677 -0.092912
C19   C     C_3   0.124453 0.509570 0.490093 0.016057
C20   C     C_3   0.924491 0.758339 0.461935 -0.269514
C21   C     C_3   0.791818 0.797237 0.444521 -0.442565
C22   C     C_3   0.595491 0.119916 0.256798 -0.254200
C23   C     C_3   0.948361 0.641895 0.558018 0.065689
C24   C     C_3   0.725329 0.171918 0.298826 -0.428109
C25   C     C_3   0.548108 0.119098 0.864328 -0.260790
C26   C     C_3   0.678677 0.079670 0.840920 -0.428046
C27   C     C_3   0.324163 0.333757 0.127799 -0.259016
C28   C     C_3   0.192487 0.329916 0.062222 -0.494368
C29   C     C_3   0.593109 0.779410 0.100214 -0.264113
C30   C     C_3   0.452950 0.765286 0.064268 -0.414859
C31   C     C_3   0.873894 0.322235 0.693124 -0.271586
C32   C     C_3   0.895062 0.376735 0.836457 -0.434541
C33   C     C_3   0.909949 0.672965 0.704015 -0.257339
C34   C     C_3   0.920094 0.507047 0.347405 -0.223119
C35   C     C_3   0.963961 0.794869 0.765187 -0.476460
C36   C     C_3   0.116377 0.609073 0.237230 -0.270552
C37   C     C_3   0.037438 0.629759 0.103763 -0.488447
C38   C     C_R   0.478548 0.060374 0.616752 0.022801
C39   C     C_R   0.507404 0.130830 0.500679 0.007229
C40   C     C_R   0.528959 0.065290 0.379495 -0.012277
C41   C     C_R   0.497415 0.938955 0.377127 -0.173882
C42   C     C_R   0.481883 0.869474 0.497945 -0.022790
Cu1   Cu    Cu3+1 0.499990 0.499980 0.640670 0.892346
Cu2   Cu    Cu3+1 0.500010 0.500020 0.359330 0.878802
H1    H     H_    0.111224 0.401173 0.682443 0.138867
H2    H     H_    0.780059 0.100305 0.351272 0.129226
H3    H     H_    0.772833 0.205052 0.205442 0.119622
H4    H     H_    0.607177 0.047595 0.180634 0.118156
H5    H     H_    0.542595 0.190376 0.201376 0.167712
H6    H     H_    0.481684 0.897078 0.280329 0.128734
H7    H     H_    0.337140 0.885010 0.768916 0.107435
H8    H     H_    0.503908 0.876888 0.824510 0.147156
H9    H     H_    0.355003 0.106589 0.774233 0.112968
H10   H     H_    0.685694 0.979495 0.853283 0.134632
H11   H     H_    0.706454 0.106742 0.735940 0.149417
H12   H     H_    0.878822 0.579951 0.284600 0.142943
H13   H     H_    0.744780 0.124523 0.917885 0.124386
H14   H     H_    0.549182 0.220590 0.857945 0.175202
H15   H     H_    0.523196 0.091871 0.970015 0.119198
H16   H     H_    0.161249 0.423419 0.043351 0.154706
H17   H     H_    0.187335 0.281103 0.962552 0.129201
H18   H     H_    0.128508 0.278285 0.130661 0.128621
H19   H     H_    0.361083 0.243574 0.108371 0.107074
H20   H     H_    0.318844 0.339011 0.239481 0.218451
H21   H     H_    0.105964 0.311224 0.531389 0.085811
H22   H     H_    0.339208 0.388214 0.857494 0.129523
H23   H     H_    0.143303 0.707580 0.523071 0.088462
H24   H     H_    0.776394 0.633715 0.908284 0.085629
H25   H     H_    0.639085 0.721219 0.850625 0.152689
H26   H     H_    0.755942 0.670345 0.133000 0.096345
H27   H     H_    0.432431 0.719335 0.964160 0.160497
H28   H     H_    0.404163 0.711781 0.144784 0.187803
H29   H     H_    0.413991 0.856996 0.056476 0.105830
H30   H     H_    0.615198 0.799171 0.208964 0.161303
H31   H     H_    0.632916 0.859491 0.042675 0.118332
H32   H     H_    0.906863 0.320512 0.489373 0.096162
H33   H     H_    0.880507 0.303712 0.915881 0.121794
H34   H     H_    0.733082 0.725394 0.392037 0.184746
H35   H     H_    0.990170 0.416755 0.855137 0.131971
H36   H     H_    0.825878 0.444404 0.851858 0.160828
H37   H     H_    0.773364 0.304041 0.671246 0.173410
H38   H     H_    0.912775 0.230077 0.699709 0.120380
H39   H     H_    0.127870 0.619038 0.674338 0.123867
H40   H     H_    0.065361 0.805960 0.755950 0.140354
H41   H     H_    0.919424 0.874359 0.715333 0.145485
H42   H     H_    0.945062 0.797072 0.876375 0.131508
H43   H     H_    0.808836 0.676171 0.699470 0.175558
H44   H     H_    0.939578 0.601332 0.776662 0.143928
H45   H     H_    0.753898 0.819556 0.544164 0.152631
H46   H     H_    0.987064 0.543623 0.069263 0.145498
H47   H     H_    0.970596 0.700572 0.118747 0.132101
H48   H     H_    0.097399 0.663818 0.020292 0.136383
H49   H     H_    0.137219 0.697901 0.288733 0.137487
H50   H     H_    0.205664 0.582085 0.201600 0.187670
H51   H     H_    0.082734 0.418576 0.294529 0.129143
H52   H     H_    0.878789 0.422611 0.296693 0.099067
H53   H     H_    0.789409 0.880690 0.377789 0.119258
H54   H     H_    0.981756 0.838973 0.501148 0.139252
H55   H     H_    0.957893 0.749390 0.358016 0.134519
H56   H     H_    0.721775 0.249879 0.369288 0.171571
N1    N     N_R   0.500800 0.500930 0.147930 -0.236694
N2    N     N_R   0.500800 0.500890 0.852020 -0.254438
O1    O     O_R   0.500000 0.319640 0.618810 -0.509401
O2    O     O_R   0.500010 0.319680 0.381230 -0.522343
O3    O     O_R   0.317690 0.499960 0.618790 -0.518045
O4    O     O_R   0.317700 0.500000 0.381210 -0.534471
O5    O     O_R   0.499990 0.680320 0.618770 -0.502311
O6    O     O_R   0.500000 0.680360 0.381190 -0.520619
O7    O     O_R   0.682300 0.500000 0.618790 -0.505165
O8    O     O_R   0.682310 0.500040 0.381210 -0.523180

loop_
_geom_bond_atom_site_label_1
_geom_bond_atom_site_label_2
_ccdc_geom_bond_type
C14   O7    A    
C22   H4    S    
C8    H22   S    
C41   C42   A    
C13   O5    A    
C26   H11   S    
C6    C9    A    
C30   H27   S    
Cu2   O2    S    
C11   H26   S    
C7    C8    A    
C21   H45   S    
C16   C31   S    
C34   H12   S    
C12   C23   S    
C17   C23   S    
C31   H38   S    
C37   H46   S    
C5    H9    S    
C36   C37   S    
C33   H44   S    
C34   H52   S    
C38   C39   A    
C35   H42   S    
C15   C16   S    
C15   H21   S    
C7    C27   S    
C18   C19   S    
Cu1   O3    S    
C6    N1    A    
C17   C19   S    
C32   H33   S    
C4    C19   S    
C36   H49   S    
C12   C16   S    
C9    N2    A    
C23   C33   S    
C21   H34   S    
C9    C10   S    
C1    O1    A    
C28   H17   S    
C28   H16   S    
C24   H56   S    
C5    C38   S    
C18   H51   S    
C13   O6    A    
C26   H10   S    
C13   C42   S    
Cu2   O6    S    
C17   H23   S    
C37   H47   S    
C27   H20   S    
C39   C40   A    
C30   H29   S    
C3    H7    S    
C29   H30   S    
C25   C26   S    
C4    O4    A    
C17   H39   S    
C15   C19   S    
Cu1   Cu2   S    
C29   C30   S    
C35   H40   S    
C32   H36   S    
C21   H53   S    
C2    C38   A    
C31   C32   S    
C20   C23   S    
Cu2   N1    S    
C22   C40   S    
Cu1   O5    S    
C18   C34   S    
C1    O2    A    
C27   H19   S    
C22   H5    S    
C5    C25   S    
C40   C41   A    
C12   C14   S    
Cu2   O4    S    
C22   C24   S    
C25   H14   S    
C15   H1    S    
C12   C34   S    
C41   H6    S    
C6    C11   S    
C14   O8    A    
C37   H48   S    
C16   H32   S    
C24   H3    S    
C3    C5    S    
C30   H28   S    
C3    H8    S    
C29   H31   S    
C10   H24   S    
C25   H15   S    
C4    O3    A    
C31   H37   S    
C24   H2    S    
C2    C3    S    
C33   H43   S    
Cu1   N2    S    
C32   H35   S    
C35   H41   S    
C20   H55   S    
C8    N2    A    
C2    C42   A    
C33   C35   S    
C26   H13   S    
Cu1   O1    S    
C10   C11   S    
C1    C39   S    
C10   H25   S    
C36   H50   S    
C20   H54   S    
C20   C21   S    
C11   C29   S    
C7    N1    A    
C27   C28   S    
Cu1   O7    S    
C18   C36   S    
Cu2   O8    S    
C28   H18   S    
