data_mof_unit_39442.cif
_audit_creation_date              2012-12-10T17:03:43-0500
_audit_creation_method            fapswitch 2.2
_symmetry_space_group_name_H-M    P1
_symmetry_Int_Tables_number       1
_space_group_crystal_system       triclinic
_cell_length_a                    10.047374
_cell_length_b                    10.809721
_cell_length_c                    13.012687
_cell_angle_alpha                 91.09342
_cell_angle_beta                  69.000798
_cell_angle_gamma                 91.810681
_cell_volume                      1318.7308831

loop_
_atom_site_label
_atom_site_type_symbol
_atom_type_description
_atom_site_fract_x
_atom_site_fract_y
_atom_site_fract_z
_atom_type_partial_charge
C1    C     C_R   0.503496 0.735938 0.498092 0.999923
C2    C     C_R   0.430687 0.483610 0.986137 0.098517
C3    C     C_R   0.449908 0.441567 0.879001 0.075212
C4    C     C_R   0.540533 0.464223 0.027840 0.015570
C5    C     C_R   0.644473 0.374869 0.975806 0.099750
C6    C     C_R   0.648032 0.318085 0.877752 -0.165858
C7    C     C_R   0.554525 0.353735 0.827999 -0.162599
C8    C     C_R   0.551963 0.531825 0.118137 -0.118740
C9    C     C_R   0.739192 0.395270 0.122092 -0.041421
C10   C     C_R   0.364740 0.489972 0.824989 -0.103042
C11   C     C_2   0.611487 0.064311 0.463492 -0.153531
C12   C     C_R   0.419537 0.495461 0.704958 0.832269
C13   C     C_2   0.489252 0.128772 0.498889 0.252339
C14   C     C_2   0.603115 0.936214 0.430812 -0.052777
C15   C     C_2   0.509791 0.864837 0.507682 -0.298268
C16   C     C_2   0.094523 0.411119 0.455175 0.512475
C17   C     C_2   0.949266 0.420762 0.444980 -0.208474
C18   C     C_R   0.496186 0.262315 0.503257 0.773383
C19   C     C_R   0.580639 0.498729 0.294680 0.954811
C20   C     C_R   0.744960 0.344155 0.021483 -0.220885
C21   C     C_R   0.634055 0.483430 0.174814 -0.223788
C22   C     C_R   0.238758 0.550196 0.885938 -0.205373
C23   C     C_R   0.204132 0.570022 0.998482 -0.082946
C24   C     C_R   0.300749 0.539767 0.048185 -0.127560
H1    H     H_    0.448661 0.900886 0.588536 0.142443
H2    H     H_    0.105005 0.584670 0.505718 0.127720
H3    H     H_    0.923889 0.358331 0.388262 0.188223
H4    H     H_    0.726544 0.249347 0.837407 0.181881
H5    H     H_    0.825854 0.277519 0.980033 0.173375
H6    H     H_    0.169844 0.585261 0.846092 0.163103
H7    H     H_    0.272377 0.559339 0.135119 0.131519
H8    H     H_    0.105896 0.614732 0.046072 0.172957
H9    H     H_    0.562468 0.310020 0.750542 0.180909
N1    N     N_2   0.148270 0.498670 0.498870 -0.196170
N2    N     N_2   0.852610 0.498640 0.498840 -0.167816
O1    O     O_R   0.386950 0.680940 0.500020 -0.593324
O2    O     O_R   0.613110 0.680900 0.499980 -0.561379
O3    O     O_R   0.330780 0.500000 0.653640 -0.617958
O4    O     O_R   0.556930 0.499960 0.653610 -0.596436
O5    O     O_R   0.386890 0.319100 0.500020 -0.568081
O6    O     O_R   0.613050 0.319060 0.499980 -0.623413
O7    O     O_R   0.443070 0.500040 0.346390 -0.592028
O8    O     O_R   0.669220 0.500000 0.346360 -0.561236
Zn1   Zn    Zn3+2 0.349000 0.500030 0.500020 1.004824
Zn2   Zn    Zn3+2 0.651000 0.499970 0.499980 1.048295
C25   C     C_2   0.845985 0.354529 0.167353 0.894805
O9    O     O_2   0.914146 0.430933 0.200162 -0.653380
O10   O     O_R   0.875587 0.228849 0.165177 -0.759378
H10   H     H_    0.953770 0.212268 0.194746 0.351931
O11   O     O_3   0.360320 0.068565 0.506768 -0.640890
C26   C     C_3   0.242104 0.100104 0.603061 0.143381
H11   H     H_    0.156952 0.028782 0.611244 0.174986
H12   H     H_    0.194993 0.187831 0.592103 0.218692
C27   C     C_3   0.270588 0.101979 0.712341 -0.460042
H13   H     H_    0.297749 0.008129 0.730201 0.230731
H14   H     H_    0.359994 0.166944 0.708415 0.206123
C28   C     C_3   0.139196 0.143279 0.808123 -0.875401
H15   H     H_    0.111599 0.238779 0.794395 0.265736
H16   H     H_    0.161600 0.142733 0.885727 0.276278
H17   H     H_    0.046893 0.079519 0.817065 0.270901
C29   C     C_2   0.692632 0.895244 0.317211 1.006968
O12   O     O_2   0.746050 0.973018 0.246132 -0.565381
O13   O     O_R   0.716590 0.770112 0.290475 -0.786261
H18   H     H_    0.778996 0.756154 0.210641 0.341324
O14   O     O_3   0.170557 0.303853 0.421503 -0.618928
C30   C     C_3   0.211217 0.288444 0.306376 0.056008
H19   H     H_    0.253484 0.376633 0.261747 0.138344
H20   H     H_    0.118768 0.253746 0.285646 0.142809
C31   C     C_3   0.328335 0.192897 0.267134 -0.257004
H21   H     H_    0.427643 0.232367 0.275289 0.223645
H22   H     H_    0.294955 0.109069 0.319303 0.265602
C32   C     C_3   0.358454 0.154862 0.147534 -0.933115
H23   H     H_    0.263894 0.105343 0.139761 0.273113
H24   H     H_    0.450366 0.092227 0.119355 0.281271
H25   H     H_    0.384221 0.237319 0.093927 0.264940
C33   C     C_2   0.851872 0.547190 0.601754 1.023697
O15   O     O_2   0.813803 0.653075 0.628140 -0.609880
O16   O     O_R   0.885156 0.472164 0.675304 -0.827468
H26   H     H_    0.877530 0.517205 0.746176 0.336600
C34   C     C_2   0.503951 0.662773 0.139298 0.900323
O17   O     O_2   0.465928 0.707877 0.231843 -0.610632
O18   O     O_R   0.507117 0.736091 0.050938 -0.782080
H27   H     H_    0.473390 0.823077 0.074636 0.348506
C35   C     C_2   0.747812 0.104419 0.476769 0.926216
O19   O     O_2   0.746201 0.152677 0.563024 -0.627724
O20   O     O_R   0.877988 0.076823 0.394645 -0.788861
H28   H     H_    0.962584 0.102374 0.415985 0.347101

loop_
_geom_bond_atom_site_label_1
_geom_bond_atom_site_label_2
_ccdc_geom_bond_type
C30   H20   S    
C4    C8    A    
C5    C20   A    
C10   C22   A    
C13   C18   S    
C19   C21   S    
C35   O20   S    
C3    C7    A    
C5    C6    A    
C11   C14   S    
C28   H16   S    
C30   C31   S    
C29   O13   S    
C31   H22   S    
C18   O5    A    
C16   N1    D    
C25   O9    D    
H2    N1    S    
C6    H4    S    
C16   C17   S    
C23   C24   A    
C1    C15   S    
C19   O7    A    
C1    O2    A    
O4    Zn2   S    
C30   H19   S    
C9    C25   S    
C7    H9    S    
C31   H21   S    
O7    Zn1   S    
C32   H25   S    
C19   O8    A    
C8    C21   A    
C25   O10   S    
C20   H5    S    
C27   H14   S    
N2    C33   S    
C26   H11   S    
C17   H3    S    
N1    Zn1   S    
C33   O15   D    
C32   H23   S    
C32   H24   S    
C18   O6    A    
O20   H28   S    
C4    C5    A    
C28   H17   S    
C14   C29   S    
O13   H18   S    
C26   H12   S    
C31   C32   S    
C2    C4    A    
O3    Zn1   S    
C9    C20   A    
C14   C15   D    
O11   C26   S    
C35   O19   D    
O8    Zn2   S    
C10   C12   S    
C34   O18   S    
O10   H10   S    
O18   H27   S    
C2    C24   A    
O1    Zn1   S    
O2    Zn2   S    
N2    Zn2   S    
C27   H13   S    
C22   H6    S    
O16   H26   S    
C33   O16   S    
C34   O17   D    
C6    C7    A    
C11   C35   S    
C26   C27   S    
C23   H8    S    
C12   O4    A    
C2    C3    A    
C24   H7    S    
C3    C10   A    
C11   C13   D    
C9    C21   A    
C28   H15   S    
C12   O3    A    
C29   O12   D    
C15   H1    S    
C13   O11   S    
O5    Zn1   S    
O14   C30   S    
C8    C34   S    
O6    Zn2   S    
C22   C23   A    
C16   O14   S    
C17   N2    D    
C1    O1    A    
C27   C28   S    
