data_mof_unit_12902.cif
_audit_creation_date              2012-12-10T17:46:21-0500
_audit_creation_method            fapswitch 2.2
_symmetry_space_group_name_H-M    P1
_symmetry_Int_Tables_number       1
_space_group_crystal_system       triclinic
_cell_length_a                    14.150125
_cell_length_b                    10.643149
_cell_length_c                    9.928453
_cell_angle_alpha                 89.922987
_cell_angle_beta                  89.962954
_cell_angle_gamma                 91.577377
_cell_volume                      1494.67546953

loop_
_atom_site_label
_atom_site_type_symbol
_atom_type_description
_atom_site_fract_x
_atom_site_fract_y
_atom_site_fract_z
_atom_type_partial_charge
C1    C     C_R   0.502365 0.260671 0.500127 0.854114
C2    C     C_R   0.438842 0.062003 0.430004 -0.180706
C3    C     C_R   0.439036 0.933605 0.429716 -0.177214
C4    C     C_R   0.329291 0.499630 0.500074 0.884095
C5    C     C_R   0.509325 0.872034 0.499468 -0.103051
C6    C     C_R   0.376933 0.334266 0.140103 -0.227351
C7    C     C_R   0.316935 0.251841 0.070214 -0.245479
C8    C     C_R   0.316973 0.251609 0.930720 0.416600
C9    C     C_R   0.377090 0.334087 0.860501 -0.208787
C10   C     C_R   0.439552 0.418186 0.927922 0.107632
C11   C     C_R   0.439528 0.418258 0.072400 0.179597
C12   C     C_1   0.772192 0.499937 0.499992 -0.206730
C13   C     C_R   0.557908 0.578285 0.071257 -0.099804
C14   C     C_R   0.557881 0.578267 0.928260 -0.090400
C15   C     C_R   0.502791 0.739480 0.499891 0.867170
C16   C     C_R   0.670714 0.500324 0.499950 0.860810
C17   C     C_1   0.227796 0.499217 0.500198 -0.178278
C18   C     C_1   0.142525 0.498996 0.500290 0.018290
C19   C     C_1   0.042614 0.498984 0.500331 0.028227
C20   C     C_1   0.957348 0.499169 0.500286 0.019935
C21   C     C_1   0.857447 0.499554 0.500143 -0.003619
C22   C     C_R   0.658692 0.136617 0.629815 -0.173939
C23   C     C_R   0.731632 0.073626 0.692851 -0.120406
C24   C     C_R   0.731770 0.942924 0.692601 -0.129266
C25   C     C_R   0.658991 0.874722 0.629258 -0.189023
C26   C     C_R   0.583659 0.937102 0.566478 0.099348
C27   C     C_R   0.583484 0.068886 0.566771 0.098861
C28   C     C_R   0.508960 0.128612 0.500016 -0.086887
Cl1   Cl    Cl    0.240957 0.147682 0.842745 -0.616456
H1    H     H_    0.382723 0.109681 0.377996 0.145062
H2    H     H_    0.371810 0.329334 0.246860 0.214613
H3    H     H_    0.269971 0.188141 0.125205 0.184588
H4    H     H_    0.372433 0.329479 0.753737 0.224430
H5    H     H_    0.605124 0.642344 0.874478 0.141984
H6    H     H_    0.662890 0.238131 0.629329 0.151492
H7    H     H_    0.788769 0.126448 0.740728 0.150651
H8    H     H_    0.789002 0.894211 0.740296 0.146709
H9    H     H_    0.663397 0.773489 0.628264 0.140204
H10   H     H_    0.383039 0.881842 0.377564 0.160106
H11   H     H_    0.605189 0.642348 0.124683 0.147563
N1    N     N_R   0.499190 0.498800 0.142780 -0.106774
N2    N     N_R   0.499160 0.498720 0.857170 -0.103722
O1    O     O_R   0.500000 0.316780 0.614690 -0.628836
O2    O     O_R   0.499990 0.316750 0.385360 -0.625516
O3    O     O_R   0.373720 0.500010 0.614690 -0.602009
O4    O     O_R   0.373710 0.499990 0.385360 -0.614570
O5    O     O_R   0.500010 0.683250 0.614640 -0.603608
O6    O     O_R   0.500000 0.683220 0.385310 -0.607527
O7    O     O_R   0.626290 0.500010 0.614640 -0.610743
O8    O     O_R   0.626280 0.499990 0.385310 -0.587683
Zn1   Zn    Zn3+2 0.500010 0.500020 0.653130 0.942737
Zn2   Zn    Zn3+2 0.499990 0.499980 0.346870 0.943568

loop_
_geom_bond_atom_site_label_1
_geom_bond_atom_site_label_2
_ccdc_geom_bond_type
C14   H5    S    
C1    C28   S    
O8    Zn2   S    
C23   C24   A    
C24   C25   A    
C6    C7    A    
C25   H9    S    
C10   N2    A    
C2    C28   A    
C9    C10   A    
C1    O2    A    
C19   C20   T    
C15   O5    A    
N2    Zn1   S    
C14   N2    A    
O2    Zn2   S    
C13   N1    A    
C24   H8    S    
C3    H10   S    
C7    C8    A    
C4    O4    A    
C13   C14   A    
C20   C21   S    
C9    H4    S    
C22   H6    S    
O1    Zn1   S    
C26   C27   A    
C15   O6    A    
C4    C17   S    
C16   O8    A    
C11   N1    A    
C2    C3    A    
C22   C27   A    
C6    C11   A    
C5    C15   S    
C2    H1    S    
C8    Cl1   S    
C4    O3    A    
C5    C26   A    
O4    Zn2   S    
O6    Zn2   S    
C16   O7    A    
C17   C18   T    
C23   H7    S    
C10   C11   A    
C27   C28   A    
O3    Zn1   S    
C22   C23   A    
C18   C19   S    
C13   H11   S    
C6    H2    S    
C7    H3    S    
N1    Zn2   S    
C3    C5    A    
C25   C26   A    
C12   C21   T    
C1    O1    A    
O5    Zn1   S    
C12   C16   S    
C8    C9    A    
O7    Zn1   S    
