data_mof_unit_34237.cif
_audit_creation_date              2012-12-10T21:32:06-0500
_audit_creation_method            fapswitch 2.2
_symmetry_space_group_name_H-M    P1
_symmetry_Int_Tables_number       1
_space_group_crystal_system       triclinic
_cell_length_a                    15.384834
_cell_length_b                    16.12543
_cell_length_c                    16.616524
_cell_angle_alpha                 93.919542
_cell_angle_beta                  88.640113
_cell_angle_gamma                 109.461461
_cell_volume                      3877.72462442

loop_
_atom_site_label
_atom_site_type_symbol
_atom_type_description
_atom_site_fract_x
_atom_site_fract_y
_atom_site_fract_z
_atom_type_partial_charge
C1    C     C_R   0.498047 0.486768 0.345765 0.858223
C2    C     C_R   0.432003 0.430199 0.772944 -0.265017
C3    C     C_R   0.406765 0.512903 0.146027 -0.168770
C4    C     C_R   0.401706 0.424389 0.851927 -0.164715
C5    C     C_R   0.414898 0.441049 0.098040 0.284649
C6    C     C_R   0.410136 0.501315 0.900321 0.285777
C7    C     C_R   0.450059 0.381942 0.131078 -0.194007
C8    C     C_R   0.443843 0.582999 0.867372 -0.195141
C9    C     C_R   0.484225 0.395673 0.210600 0.076587
C10   C     C_R   0.476769 0.591272 0.787586 0.075001
C11   C     C_R   0.557297 0.770008 0.537861 -0.122235
C12   C     C_R   0.496193 0.511224 0.653941 0.848583
C13   C     C_R   0.452484 0.232294 0.453195 -0.102552
C14   C     C_R   0.577041 0.861605 0.540098 -0.088183
C15   C     C_R   0.437715 0.141654 0.445307 -0.097158
C16   C     C_R   0.327058 0.446126 0.509988 0.871099
C17   C     C_R   0.673978 0.555334 0.498565 0.868817
C18   C     C_R   0.520546 0.896079 0.497254 0.153891
C19   C     C_R   0.488192 0.106081 0.493866 0.146524
C20   C     C_R   0.452284 0.837333 0.445832 0.501942
C21   C     C_R   0.546343 0.162160 0.554284 0.504218
C22   C     C_R   0.436969 0.745498 0.442949 0.063778
C23   C     C_R   0.904038 0.398395 0.542270 -0.008668
C24   C     C_R   0.556364 0.253492 0.562603 0.045667
C25   C     C_R   0.229805 0.415363 0.535914 -0.105767
C26   C     C_R   0.775193 0.591723 0.504189 -0.107293
C27   C     C_R   0.090055 0.311656 0.589128 -0.173206
C28   C     C_R   0.926390 0.702211 0.491301 -0.169005
C29   C     C_R   0.185342 0.335638 0.574259 0.081966
C30   C     C_R   0.830585 0.675567 0.478953 0.071405
C31   C     C_R   0.182025 0.474286 0.529148 -0.253183
C32   C     C_R   0.817530 0.538324 0.537906 -0.237152
C33   C     C_R   0.093238 0.457283 0.558978 0.041088
C34   C     C_R   0.099865 0.613604 0.569305 -0.019866
C35   C     C_R   0.912096 0.556760 0.534111 0.028099
C36   C     C_R   0.042965 0.370585 0.576678 -0.009395
C37   C     C_R   0.967256 0.643843 0.519860 -0.013073
C38   C     C_R   0.049695 0.521404 0.559476 -0.069267
C39   C     C_R   0.953081 0.491953 0.547070 -0.065092
C40   C     C_3   0.362804 0.082825 0.389384 -0.365091
C41   C     C_3   0.402473 0.059477 0.309090 -0.306900
C42   C     C_3   0.328973 0.989574 0.258287 -0.823364
C43   C     C_3   0.660149 0.921605 0.586623 -0.374196
C44   C     C_3   0.737248 0.970517 0.529455 -0.343554
C45   C     C_R   0.947084 0.342299 0.572252 0.537045
C46   C     C_3   0.821708 0.029569 0.576504 -0.780132
C47   C     C_3   0.368515 0.685103 0.383015 -0.369810
C48   C     C_3   0.269933 0.686256 0.397668 -0.294115
C49   C     C_3   0.200411 0.614572 0.344862 -0.923311
C50   C     C_3   0.606386 0.313698 0.633535 -0.378231
C51   C     C_3   0.681844 0.288103 0.674268 -0.293748
C52   C     C_3   0.743159 0.364242 0.728689 -0.922252
C53   C     C_3   0.791201 0.739297 0.442865 -0.413880
C54   C     C_3   0.753367 0.706762 0.357521 -0.305941
C55   C     C_3   0.700721 0.763735 0.327350 -0.854111
C56   C     C_R   0.060652 0.672761 0.540257 0.541425
C57   C     C_3   0.234909 0.277459 0.605321 -0.405866
C58   C     C_3   0.223869 0.196215 0.547888 -0.339476
C59   C     C_3   0.263878 0.132780 0.585033 -0.840454
C60   C     C_3   0.819851 0.353866 0.488654 -0.359860
C61   C     C_3   0.837418 0.383154 0.402084 -0.346840
C62   C     C_3   0.751472 0.342052 0.350872 -0.906952
C63   C     C_3   0.187530 0.650588 0.620309 -0.373703
C64   C     C_3   0.169547 0.622555 0.707319 -0.336347
C65   C     C_3   0.258308 0.653803 0.756673 -0.882799
C66   C     C_3   0.532669 0.335300 0.241612 -0.396112
C67   C     C_R   0.476094 0.469704 0.258746 -0.096277
C68   C     C_3   0.545938 0.265254 0.178898 -0.372043
C69   C     C_3   0.602507 0.213050 0.211394 -0.903973
C70   C     C_3   0.519526 0.682329 0.754550 -0.397024
C71   C     C_3   0.532828 0.761378 0.816146 -0.380001
C72   C     C_3   0.580889 0.848499 0.778433 -0.879416
C73   C     C_R   0.471194 0.512524 0.739959 -0.084600
C74   C     C_R   0.437211 0.526841 0.224812 -0.251679
F1    F     F_    0.898150 0.256097 0.581639 -0.716895
F2    F     F_    0.111372 0.759596 0.537735 -0.697931
F3    F     F_    0.405809 0.869551 0.394603 -0.698426
F4    F     F_    0.586250 0.125889 0.607528 -0.696275
H1    H     H_    0.413545 0.259795 0.416088 0.163256
H2    H     H_    0.379290 0.559926 0.122190 0.152023
H3    H     H_    0.454597 0.327818 0.091182 0.130653
H4    H     H_    0.448347 0.640019 0.907273 0.132534
H5    H     H_    0.302017 0.927745 0.290216 0.299624
H6    H     H_    0.271149 0.013559 0.245672 0.243285
H7    H     H_    0.359525 0.975098 0.200036 0.242508
H8    H     H_    0.428561 0.119547 0.274965 0.216683
H9    H     H_    0.460309 0.034693 0.319578 0.264047
H10   H     H_    0.323894 0.021783 0.419396 0.246244
H11   H     H_    0.312054 0.116004 0.377170 0.175201
H12   H     H_    0.599320 0.743212 0.572260 0.167763
H13   H     H_    0.803258 0.079200 0.616588 0.306669
H14   H     H_    0.849697 0.989459 0.613491 0.238354
H15   H     H_    0.875985 0.064671 0.533790 0.261700
H16   H     H_    0.757536 0.921939 0.489387 0.210025
H17   H     H_    0.713110 0.012135 0.490979 0.250396
H18   H     H_    0.639455 0.969429 0.627340 0.257468
H19   H     H_    0.687960 0.882492 0.624920 0.182681
H20   H     H_    0.214890 0.626845 0.280138 0.267803
H21   H     H_    0.203650 0.548508 0.355792 0.258692
H22   H     H_    0.129661 0.615033 0.359101 0.261396
H23   H     H_    0.776223 0.483421 0.570094 0.151308
H24   H     H_    0.251500 0.676577 0.461809 0.222053
H25   H     H_    0.264396 0.750582 0.383761 0.289811
H26   H     H_    0.390601 0.705817 0.321252 0.196493
H27   H     H_    0.368030 0.616885 0.385783 0.242558
H28   H     H_    0.781690 0.420446 0.692705 0.258264
H29   H     H_    0.700841 0.386437 0.774845 0.266911
H30   H     H_    0.793867 0.342145 0.759836 0.270816
H31   H     H_    0.649374 0.232445 0.712969 0.277894
H32   H     H_    0.725705 0.268098 0.628221 0.279035
H33   H     H_    0.638561 0.380527 0.612383 0.234994
H34   H     H_    0.213048 0.533030 0.497402 0.172273
H35   H     H_    0.554265 0.317352 0.679776 0.201221
H36   H     H_    0.640366 0.759824 0.366814 0.272137
H37   H     H_    0.746358 0.833507 0.326674 0.249703
H38   H     H_    0.675520 0.739779 0.265134 0.246962
H39   H     H_    0.811678 0.709390 0.315823 0.210384
H40   H     H_    0.706385 0.637433 0.355916 0.223087
H41   H     H_    0.737892 0.751275 0.483547 0.220354
H42   H     H_    0.845304 0.804920 0.438762 0.182842
H43   H     H_    0.338287 0.165772 0.598423 0.261052
H44   H     H_    0.226960 0.109452 0.641773 0.260271
H45   H     H_    0.053066 0.247142 0.610290 0.187847
H46   H     H_    0.255627 0.074654 0.542424 0.255777
H47   H     H_    0.149619 0.161035 0.534957 0.220313
H48   H     H_    0.259422 0.216861 0.490006 0.226610
H49   H     H_    0.308636 0.314099 0.617726 0.223408
H50   H     H_    0.205213 0.255615 0.665107 0.191625
H51   H     H_    0.733292 0.269243 0.346385 0.267565
H52   H     H_    0.692841 0.359908 0.377903 0.284035
H53   H     H_    0.765155 0.367220 0.289707 0.251949
H54   H     H_    0.857423 0.455661 0.400399 0.241194
H55   H     H_    0.894558 0.362775 0.375023 0.224022
H56   H     H_    0.969231 0.768151 0.477728 0.188193
H57   H     H_    0.803396 0.281157 0.484380 0.246286
H58   H     H_    0.756018 0.362046 0.513296 0.200966
H59   H     H_    0.307648 0.622244 0.730800 0.269729
H60   H     H_    0.290318 0.726583 0.757052 0.264503
H61   H     H_    0.242880 0.634913 0.819791 0.252635
H62   H     H_    0.118920 0.650904 0.736236 0.226806
H63   H     H_    0.140440 0.549641 0.707985 0.235442
H64   H     H_    0.245489 0.631473 0.594773 0.198780
H65   H     H_    0.213093 0.723784 0.622948 0.251056
H66   H     H_    0.677028 0.249832 0.204979 0.267578
H67   H     H_    0.424216 0.369237 0.737523 0.160400
H68   H     H_    0.586128 0.199661 0.275635 0.265431
H69   H     H_    0.587546 0.149150 0.175590 0.254590
H70   H     H_    0.477170 0.218087 0.160711 0.217914
H71   H     H_    0.582110 0.297306 0.124686 0.230182
H72   H     H_    0.601549 0.377273 0.264582 0.212546
H73   H     H_    0.491700 0.299556 0.291895 0.214094
H74   H     H_    0.651737 0.852362 0.759586 0.254379
H75   H     H_    0.541134 0.854901 0.725674 0.270955
H76   H     H_    0.585736 0.904013 0.823438 0.259076
H77   H     H_    0.464542 0.762166 0.838925 0.227731
H78   H     H_    0.429980 0.583455 0.259114 0.163012
H79   H     H_    0.575517 0.756432 0.867491 0.230113
H80   H     H_    0.588152 0.686887 0.728602 0.202197
H81   H     H_    0.474704 0.689068 0.705763 0.227108
H82   H     H_    0.374341 0.359872 0.875760 0.151800
N1    N     N_2   0.403519 0.433336 0.013435 -0.199273
N2    N     N_2   0.399942 0.501546 0.984969 -0.201199
N3    N     N_R   0.489120 0.713640 0.490430 -0.134324
N4    N     N_R   0.510880 0.286360 0.509570 -0.134068
N5    N     N_2   0.537230 0.989372 0.505275 -0.094277
N6    N     N_2   0.471680 0.012941 0.485250 -0.079932
O1    O     O_R   0.503890 0.423710 0.387290 -0.623908
O2    O     O_R   0.496110 0.576290 0.612710 -0.625422
O3    O     O_R   0.496910 0.560910 0.381140 -0.612545
O4    O     O_R   0.503090 0.439090 0.618860 -0.626650
O5    O     O_R   0.373240 0.392210 0.504830 -0.614171
O6    O     O_R   0.626760 0.607790 0.495170 -0.608298
O7    O     O_R   0.366260 0.529410 0.498680 -0.619128
O8    O     O_R   0.633740 0.470590 0.501320 -0.618906
Zn1   Zn    Zn3+2 0.504660 0.408390 0.504100 0.900353
Zn2   Zn    Zn3+2 0.495340 0.591610 0.495900 0.909020

loop_
_geom_bond_atom_site_label_1
_geom_bond_atom_site_label_2
_ccdc_geom_bond_type
C16   O7    A    
C25   C31   A    
C66   C68   S    
C13   H1    S    
C34   C56   A    
N5    N6    D    
C23   C45   A    
C27   C29   A    
C41   C42   S    
C62   H52   S    
C2    C4    A    
C16   O5    A    
C57   H50   S    
N1    N2    D    
C17   O6    A    
C61   H55   S    
C53   C54   S    
C69   H66   S    
C15   C19   A    
C41   H8    S    
C20   F3    S    
C8    H4    S    
C17   C26   S    
C35   C37   A    
C66   H72   S    
C38   C39   A    
C10   C73   A    
C46   H14   S    
C64   H63   S    
N3    Zn2   S    
C16   C25   S    
C33   C36   A    
N4    Zn1   S    
O2    Zn2   S    
C70   H81   S    
C3    C74   A    
C14   C18   A    
O8    Zn1   S    
C34   C63   S    
C68   H71   S    
C61   H54   S    
C1    C67   S    
C49   H20   S    
C9    C66   S    
C37   C56   A    
O3    Zn2   S    
C6    N2    S    
C52   H29   S    
C68   C69   S    
C47   H27   S    
C21   F4    S    
C31   H34   S    
C31   C33   A    
C70   C71   S    
C72   H75   S    
C19   N6    S    
C40   H11   S    
C60   H58   S    
C68   H70   S    
C65   H59   S    
C59   H44   S    
C22   C47   S    
C52   H28   S    
C51   H31   S    
C12   C73   S    
C24   C50   S    
C69   H68   S    
C62   H51   S    
C24   N4    A    
C41   H9    S    
C3    H2    S    
C18   N5    S    
C44   C46   S    
C43   H18   S    
O4    Zn1   S    
C25   C29   A    
C23   C60   S    
C71   H79   S    
C30   C53   S    
C53   H42   S    
C72   H76   S    
C51   C52   S    
C32   C35   A    
C42   H6    S    
C4    C6    A    
C42   H7    S    
C5    C7    A    
C27   H45   S    
C26   C32   A    
C6    C8    A    
C46   H13   S    
C72   H74   S    
C58   C59   S    
C48   H25   S    
O5    Zn1   S    
C60   C61   S    
C2    H67   S    
C5    N1    S    
C35   C39   A    
C43   C44   S    
C9    C67   A    
C57   H49   S    
C49   H21   S    
C47   C48   S    
C71   H77   S    
C11   N3    A    
C50   C51   S    
C74   H78   S    
C36   C45   A    
C67   C74   A    
C60   H57   S    
C2    C73   A    
C65   H60   S    
C10   C70   S    
C48   C49   S    
C7    H3    S    
C20   C22   A    
C58   H48   S    
C51   H32   S    
C56   F2    S    
C54   H40   S    
C69   H69   S    
C28   H56   S    
C21   C24   A    
C17   O8    A    
C13   N4    A    
O1    Zn1   S    
C64   H62   S    
O7    Zn2   S    
C59   H46   S    
C7    C9    A    
C54   C55   S    
C40   C41   S    
C63   H65   S    
C47   H26   S    
C19   C21   A    
C34   C38   A    
C62   H53   S    
C42   H5    S    
C43   H19   S    
C29   C57   S    
C3    C5    A    
C12   O2    A    
C12   O4    A    
C53   H41   S    
C26   C30   A    
C55   H36   S    
C27   C36   A    
C33   C38   A    
C48   H24   S    
C45   F1    S    
C50   H35   S    
C64   C65   S    
C40   H10   S    
C13   C15   A    
C71   C72   S    
C44   H17   S    
C49   H22   S    
C22   N3    A    
C11   H12   S    
C57   C58   S    
C4    H82   S    
C46   H15   S    
C55   H37   S    
C28   C37   A    
C23   C39   A    
C1    O3    A    
C50   H33   S    
C11   C14   A    
C63   H64   S    
C28   C30   A    
C18   C20   A    
C61   C62   S    
C15   C40   S    
C44   H16   S    
C63   C64   S    
C65   H61   S    
C66   H73   S    
C52   H30   S    
C58   H47   S    
C8    C10   A    
C55   H38   S    
C54   H39   S    
C1    O1    A    
C32   H23   S    
C70   H80   S    
C59   H43   S    
O6    Zn2   S    
C14   C43   S    
