data_mof_unit_49512.cif
_audit_creation_date              2012-12-11T15:34:19-0500
_audit_creation_method            fapswitch 2.2
_symmetry_space_group_name_H-M    P1
_symmetry_Int_Tables_number       1
_space_group_crystal_system       triclinic
_cell_length_a                    15.07012
_cell_length_b                    15.079256
_cell_length_c                    34.945861
_cell_angle_alpha                 90.496837
_cell_angle_beta                  90.020611
_cell_angle_gamma                 60.028655
_cell_volume                      6879.03368333

loop_
_atom_site_label
_atom_site_type_symbol
_atom_type_description
_atom_site_fract_x
_atom_site_fract_y
_atom_site_fract_z
_atom_type_partial_charge
C1    C     C_R   0.303110 0.607914 0.555917 0.543912
C2    C     C_R   0.655253 0.659188 0.669247 0.035569
C3    C     C_R   0.266707 0.620639 0.268093 -0.093493
C4    C     C_R   0.183577 0.635559 0.290822 0.046239
C5    C     C_R   0.094278 0.648165 0.273812 -0.090720
C6    C     C_R   0.086035 0.650967 0.234189 -0.134511
C7    C     C_R   0.167180 0.640436 0.211211 0.023587
C8    C     C_R   0.189430 0.565802 0.355952 0.272301
C9    C     C_R   0.219336 0.559805 0.394375 -0.121104
C10   C     C_R   0.234238 0.711579 0.386783 -0.144595
C11   C     C_R   0.208538 0.715611 0.348435 -0.181289
C12   C     C_R   0.190841 0.640399 0.332515 0.035322
C13   C     C_R   0.565179 0.726221 0.649671 -0.124887
C14   C     C_R   0.245261 0.630511 0.409549 -0.019088
C15   C     C_R   0.735938 0.025453 0.943339 0.543017
C16   C     C_R   0.745609 0.722790 0.945095 0.567745
C17   C     C_R   0.038377 0.734012 0.948361 0.541223
C18   C     C_R   0.723113 0.038398 0.052920 0.547044
C19   C     C_R   0.733797 0.734520 0.054800 0.544684
C20   C     C_R   0.026904 0.744993 0.058043 0.543996
C21   C     C_R   0.553413 0.707976 0.611325 -0.134024
C22   C     C_R   0.667008 0.674332 0.788593 0.350032
C23   C     C_R   0.661286 0.666856 0.711105 0.347236
C24   C     C_R   0.745662 0.595465 0.851118 -0.113676
C25   C     C_R   0.766719 0.605344 0.889668 0.262010
C26   C     C_R   0.634328 0.784973 0.887854 -0.182437
C27   C     C_R   0.616102 0.774705 0.849540 -0.144677
C28   C     C_R   0.674581 0.681029 0.830428 -0.006727
C29   C     C_R   0.610733 0.588349 0.555228 0.544958
C30   C     C_R   0.712319 0.702145 0.907896 0.036754
C31   C     C_R   0.722929 0.072684 0.905507 0.022832
C32   C     C_R   0.633700 0.099802 0.884409 -0.125891
C33   C     C_R   0.630162 0.120538 0.845563 -0.119733
C34   C     C_R   0.715185 0.115689 0.827236 0.031069
C35   C     C_R   0.801306 0.096879 0.848750 -0.121816
C36   C     C_R   0.805340 0.075173 0.887682 -0.124145
C37   C     C_R   0.740714 0.192321 0.768252 -0.119658
C38   C     C_R   0.732876 0.205411 0.728700 -0.118335
C39   C     C_R   0.701016 0.149432 0.705736 0.020796
C40   C     C_R   0.590395 0.300472 0.553514 0.543687
C41   C     C_R   0.680770 0.077556 0.722881 -0.111604
C42   C     C_R   0.687487 0.065393 0.762406 -0.116550
C43   C     C_R   0.715454 0.124182 0.785384 0.018854
C44   C     C_R   0.593478 0.179584 0.647619 -0.115482
C45   C     C_R   0.567004 0.214960 0.610313 -0.125252
C46   C     C_R   0.720319 0.228252 0.605320 -0.122987
C47   C     C_R   0.746466 0.193373 0.642637 -0.127448
C48   C     C_R   0.681774 0.171612 0.664531 0.029778
C49   C     C_R   0.628393 0.243006 0.589317 0.022070
C50   C     C_R   0.092287 0.697609 0.911329 0.023189
C51   C     C_R   0.300032 0.610400 0.446125 0.548156
C52   C     C_R   0.114162 0.762831 0.889862 -0.123113
C53   C     C_R   0.137713 0.743763 0.851106 -0.120339
C54   C     C_R   0.141123 0.658599 0.833188 0.037058
C55   C     C_R   0.129567 0.587707 0.855243 -0.119181
C56   C     C_R   0.105192 0.607194 0.894156 -0.132706
C57   C     C_R   0.220225 0.560234 0.772837 -0.129625
C58   C     C_R   0.228948 0.556507 0.733044 -0.163384
C59   C     C_R   0.164836 0.642687 0.711002 0.044929
C60   C     C_R   0.088595 0.732642 0.729074 0.282043
C61   C     C_R   0.079465 0.734650 0.769225 -0.106014
C62   C     C_R   0.608437 0.590319 0.445616 0.543264
C63   C     C_R   0.147198 0.650222 0.791146 -0.009983
C64   C     C_R   0.198697 0.718369 0.653547 -0.080106
C65   C     C_R   0.229937 0.711379 0.615580 -0.133474
C66   C     C_R   0.230938 0.550873 0.608464 -0.128766
C67   C     C_R   0.199061 0.558288 0.646458 -0.124074
C68   C     C_R   0.184862 0.640996 0.669519 0.068021
C69   C     C_R   0.249489 0.625961 0.592981 0.019869
C70   C     C_R   0.695143 0.719042 0.091383 0.023397
C71   C     C_R   0.611712 0.801080 0.110164 -0.133867
C72   C     C_R   0.590634 0.792274 0.148421 -0.128824
C73   C     C_R   0.587808 0.302920 0.443770 0.543520
C74   C     C_R   0.653037 0.701607 0.168493 0.032633
C75   C     C_R   0.731754 0.617537 0.148768 -0.121707
C76   C     C_R   0.752014 0.625912 0.110592 -0.123155
C77   C     C_R   0.662692 0.604051 0.227336 -0.125723
C78   C     C_R   0.662711 0.595849 0.266928 -0.122529
C79   C     C_R   0.642051 0.679883 0.290439 0.026661
C80   C     C_R   0.619004 0.773172 0.273793 -0.119812
C81   C     C_R   0.620018 0.781152 0.234039 -0.116069
C82   C     C_R   0.642418 0.696392 0.210392 0.031850
C83   C     C_R   0.558134 0.738160 0.354282 -0.122855
C84   C     C_R   0.631677 0.622578 0.591991 0.022945
C85   C     C_R   0.550378 0.716744 0.392500 -0.128419
C86   C     C_R   0.716391 0.562314 0.387841 -0.129238
C87   C     C_R   0.723671 0.583424 0.349648 -0.126796
C88   C     C_R   0.642783 0.669151 0.332234 0.030031
C89   C     C_R   0.627497 0.626224 0.409105 0.022166
C90   C     C_R   0.699723 0.099175 0.088461 -0.022436
C91   C     C_R   0.772765 0.119929 0.104635 -0.146235
C92   C     C_R   0.760339 0.157532 0.141960 -0.173710
C93   C     C_R   0.675217 0.174245 0.163824 0.030608
C94   C     C_R   0.598755 0.158832 0.147010 0.267822
C95   C     C_R   0.725066 0.561118 0.610657 -0.130038
C96   C     C_R   0.610337 0.124006 0.109145 -0.109298
C97   C     C_R   0.584313 0.269279 0.223300 -0.081199
C98   C     C_R   0.578439 0.275879 0.263064 -0.130314
C99   C     C_R   0.662333 0.207880 0.285292 0.024700
C100  C     C_R   0.753496 0.135730 0.267315 -0.121448
C101  C     C_R   0.758919 0.128209 0.227526 -0.133517
C102  C     C_R   0.673604 0.193490 0.205283 0.039524
C103  C     C_R   0.727206 0.219354 0.349647 -0.123215
C104  C     C_R   0.710289 0.239977 0.388771 -0.127874
C105  C     C_R   0.550998 0.237486 0.383819 -0.121724
C106  C     C_R   0.736653 0.579130 0.648960 -0.121075
C107  C     C_R   0.567538 0.217835 0.344734 -0.119214
C108  C     C_R   0.653623 0.212694 0.327199 0.028533
C109  C     C_R   0.619768 0.253636 0.405853 0.020313
C110  C     C_R   0.081103 0.708973 0.094596 0.022462
C111  C     C_R   0.097104 0.616379 0.110166 -0.126343
C112  C     C_R   0.130258 0.591230 0.147771 -0.122663
C113  C     C_R   0.148783 0.657718 0.170041 0.021584
C114  C     C_R   0.138173 0.747375 0.154064 -0.128241
C115  C     C_R   0.105163 0.772626 0.116465 -0.127625
C116  C     C_R   0.260462 0.621522 0.227928 0.024923
Cr1   Cr    Cr6+3 0.421670 0.426920 0.499620 1.010448
Cr2   Cr    Cr6+3 0.427030 0.651190 0.500980 1.010251
Cr3   Cr    Cr6+3 0.651280 0.421870 0.499380 1.008730
Cr4   Cr    Cr6+3 0.910810 0.908010 0.001130 1.011046
Cr5   Cr    Cr6+3 0.682800 0.909890 0.998370 1.009471
Cr6   Cr    Cr6+3 0.908370 0.682300 0.002180 1.017392
H1    H     H_    0.787208 0.495336 0.596392 0.128656
H2    H     H_    0.875183 0.054438 0.903187 0.125031
H3    H     H_    0.815579 0.186776 0.654761 0.097280
H4    H     H_    0.747883 0.262197 0.716296 0.115142
H5    H     H_    0.762508 0.238198 0.785594 0.114337
H6    H     H_    0.562254 0.136927 0.829471 0.107161
H7    H     H_    0.658144 0.031972 0.705783 0.117766
H8    H     H_    0.669843 0.010734 0.775153 0.119895
H9    H     H_    0.541579 0.164322 0.663939 0.104337
H10   H     H_    0.495656 0.225640 0.598757 0.126507
H11   H     H_    0.867495 0.093225 0.835012 0.098863
H12   H     H_    0.480703 0.757014 0.597617 0.126159
H13   H     H_    0.769579 0.248696 0.589776 0.126461
H14   H     H_    0.105896 0.832685 0.902231 0.127967
H15   H     H_    0.090128 0.555019 0.910157 0.116085
H16   H     H_    0.188590 0.497894 0.658218 0.106270
H17   H     H_    0.288661 0.487457 0.719502 0.116608
H18   H     H_    0.272528 0.494160 0.789381 0.120409
H19   H     H_    0.148394 0.798288 0.834624 0.102620
H20   H     H_    0.019575 0.801828 0.783624 0.099847
H21   H     H_    0.190605 0.781647 0.671026 0.124171
H22   H     H_    0.244422 0.770002 0.604678 0.123707
H23   H     H_    0.132689 0.521084 0.841910 0.102699
H24   H     H_    0.245528 0.483998 0.591798 0.124940
H25   H     H_    0.566353 0.873795 0.096050 0.122290
H26   H     H_    0.816646 0.561143 0.096901 0.129670
H27   H     H_    0.790319 0.530182 0.333128 0.100627
H28   H     H_    0.678280 0.523802 0.279248 0.110563
H29   H     H_    0.679066 0.537706 0.210011 0.099012
H30   H     H_    0.527882 0.857541 0.162654 0.095810
H31   H     H_    0.602950 0.838809 0.291546 0.103504
H32   H     H_    0.807781 0.527350 0.663096 0.131123
H33   H     H_    0.606915 0.852467 0.221917 0.093936
H34   H     H_    0.494992 0.804784 0.341290 0.102511
H35   H     H_    0.481143 0.767668 0.408227 0.122994
H36   H     H_    0.782131 0.546904 0.163345 0.101311
H37   H     H_    0.777501 0.492457 0.399883 0.124610
H38   H     H_    0.842091 0.102205 0.089195 0.135762
H39   H     H_    0.552376 0.109761 0.097044 0.136252
H40   H     H_    0.510980 0.210802 0.327866 0.114001
H41   H     H_    0.508111 0.333580 0.276536 0.114577
H42   H     H_    0.518299 0.321418 0.206630 0.150065
H43   H     H_    0.501493 0.789265 0.664469 0.128660
H44   H     H_    0.819722 0.168951 0.154461 0.112202
H45   H     H_    0.818976 0.082870 0.284060 0.105312
H46   H     H_    0.828238 0.068475 0.214170 0.105144
H47   H     H_    0.794389 0.215075 0.336546 0.102156
H48   H     H_    0.764772 0.251743 0.405057 0.123131
H49   H     H_    0.480809 0.246980 0.396150 0.135161
H50   H     H_    0.079212 0.565778 0.093977 0.126386
H51   H     H_    0.093057 0.844621 0.105324 0.128008
H52   H     H_    0.207591 0.774514 0.330600 0.113176
H53   H     H_    0.786636 0.521498 0.837027 0.123585
H54   H     H_    0.335329 0.609389 0.282276 0.114910
H55   H     H_    0.137648 0.522088 0.159999 0.115442
H56   H     H_    0.029906 0.659412 0.291201 0.116701
H57   H     H_    0.014719 0.665079 0.221345 0.113720
H58   H     H_    0.228625 0.496269 0.411519 0.121051
H59   H     H_    0.150578 0.800217 0.171316 0.104087
H60   H     H_    0.253355 0.767394 0.397684 0.139755
H61   H     H_    0.591185 0.860065 0.901054 0.140145
H62   H     H_    0.559583 0.841710 0.834469 0.140457
H63   H     H_    0.568710 0.099143 0.897319 0.126999
N1    N     N_R   0.740038 0.592427 0.768860 -0.240853
N2    N     N_R   0.737050 0.588640 0.730900 -0.237901
N3    N     N_R   0.588042 0.748773 0.730818 -0.241132
N4    N     N_R   0.591238 0.752729 0.768815 -0.237365
O1    O     O_R   0.502070 0.323090 0.541280 -0.520105
O2    O     O_R   0.520720 0.641670 0.461580 -0.502773
O3    O     O_R   0.674120 0.502090 0.457500 -0.521226
O4    O     O_R   0.640110 0.338380 0.459630 -0.502550
O5    O     O_3   0.499990 0.499990 0.499990 -0.235001
O6    O     O_R   0.017640 0.822070 0.960410 -0.520904
O7    O     O_R   0.822000 0.989470 0.960340 -0.502481
O8    O     O_R   0.666920 0.007430 0.955290 -0.521375
O9    O     O_R   0.694410 0.812480 0.959650 -0.516866
O10   O     O_R   0.831550 0.656950 0.958960 -0.467425
O11   O     O_R   0.998590 0.685540 0.963930 -0.507857
O12   O     O_R   0.338340 0.520690 0.539540 -0.503166
O13   O     O_R   0.008220 0.831200 0.045060 -0.519280
O14   O     O_R   0.813270 0.997930 0.038810 -0.498361
O15   O     O_R   0.657500 0.016560 0.039940 -0.522104
O16   O     O_R   0.685680 0.820940 0.038120 -0.502487
O17   O     O_R   0.822130 0.666070 0.043610 -0.519921
O18   O     O_R   0.989860 0.694000 0.042400 -0.505164
O19   O     O_3   0.833990 0.833400 0.000560 -0.240202
O20   O     O_R   0.324760 0.674070 0.543580 -0.520250
O21   O     O_R   0.522400 0.640310 0.540110 -0.503276
O22   O     O_R   0.675940 0.500630 0.542210 -0.521149
O23   O     O_R   0.641790 0.337020 0.538150 -0.503426
O24   O     O_R   0.500260 0.324550 0.456580 -0.519376
O25   O     O_R   0.336660 0.522040 0.461020 -0.502037
O26   O     O_R   0.322940 0.675540 0.458880 -0.518504
O27   O     O_3   0.020234 0.813510 0.706420 -0.555597
C117  C     C_3   0.000915 0.909130 0.721244 -0.020801
H64   H     H_    0.069988 0.904864 0.734812 0.109519
H65   H     H_    0.937126 0.938460 0.742405 0.150423
C118  C     C_3   0.968605 0.985036 0.688683 -0.363977
H66   H     H_    0.900628 0.990500 0.674100 0.180677
H67   H     H_    0.949286 0.061560 0.700119 0.094071
H68   H     H_    0.031939 0.959733 0.667570 0.142053
O28   O     O_3   0.836433 0.520930 0.910388 -0.537614
C119  C     C_3   0.933677 0.472780 0.892391 0.000271
H69   H     H_    0.953315 0.529412 0.880616 0.124683
H70   H     H_    0.936250 0.421129 0.868999 0.123639
C120  C     C_3   0.014801 0.408058 0.921601 -0.361073
H71   H     H_    0.999390 0.348612 0.933110 0.157615
H72   H     H_    0.091657 0.369926 0.907846 0.079932
H73   H     H_    0.014272 0.457180 0.945570 0.168775
O29   O     O_3   0.513702 0.175371 0.167824 -0.569664
C121  C     C_3   0.529872 0.080603 0.181524 -0.012253
H74   H     H_    0.603421 0.038949 0.197492 0.134544
H75   H     H_    0.530216 0.031617 0.157440 0.121247
C122  C     C_3   0.443227 0.100062 0.208795 -0.371254
H76   H     H_    0.368577 0.141290 0.193790 0.159837
H77   H     H_    0.453833 0.026239 0.219417 0.083722
H78   H     H_    0.442592 0.147013 0.233583 0.162537
C123  C     C_3   0.350361 0.602333 0.202365 -0.275574
C124  C     C_3   0.452056 0.567777 0.222732 -0.452772
H79   H     H_    0.447183 0.630344 0.241234 0.159298
H80   H     H_    0.473688 0.498672 0.240077 0.147695
H81   H     H_    0.512850 0.548114 0.200969 0.145655
H82   H     H_    0.363041 0.541793 0.181095 0.158677
H83   H     H_    0.330660 0.673188 0.186459 0.146572
O30   O     O_3   0.173269 0.490986 0.339687 -0.558131
C125  C     C_3   0.086408 0.494689 0.356687 -0.016903
H84   H     H_    0.020747 0.574694 0.358837 0.120311
H85   H     H_    0.105318 0.460311 0.385665 0.125440
C126  C     C_3   0.052666 0.433151 0.332142 -0.370093
H86   H     H_    0.115974 0.352653 0.329441 0.159196
H87   H     H_    0.985541 0.433889 0.345580 0.085332
H88   H     H_    0.030933 0.467089 0.303190 0.154578

loop_
_geom_bond_atom_site_label_1
_geom_bond_atom_site_label_2
_ccdc_geom_bond_type
C58   H17   S    
C71   H25   S    
C87   C88   A    
C37   C43   A    
C101  C102  A    
C73   O4    A    
C6    H57   S    
Cr4   O13   S    
C41   C42   A    
Cr6   O17   S    
C111  C112  A    
C100  C101  A    
Cr5   O16   S    
C55   C56   A    
C1    O12   A    
O28   C119  S    
C77   H29   S    
C118  H67   S    
C97   C98   A    
C90   C91   A    
C16   O9    A    
C29   O21   A    
C39   C41   A    
C98   H41   S    
C77   C78   A    
C122  H76   S    
C117  C118  S    
C99   C108  S    
C105  C107  A    
C46   C49   A    
C78   H28   S    
Cr3   O23   S    
Cr4   O7    S    
C32   H63   S    
C25   O28   S    
C100  H45   S    
C64   C68   A    
C92   C93   A    
C36   H2    S    
C119  H69   S    
C124  H79   S    
C3    C116  A    
C31   C36   A    
C19   O16   A    
C23   N3    A    
C15   O8    A    
C65   C69   A    
C126  H87   S    
C66   C69   A    
C54   C63   S    
C95   H1    S    
C40   C49   S    
C62   C89   S    
C119  C120  S    
C96   H39   S    
C17   O11   A    
C111  H50   S    
C46   C47   A    
C61   C63   A    
C2    C13   A    
C27   H62   S    
C112  C113  A    
Cr1   O5    S    
C103  C104  A    
C46   H13   S    
C110  C111  A    
C35   C36   A    
C8    O30   S    
C8    C9    A    
C72   H30   S    
C116  C123  S    
C19   O17   A    
C50   C52   A    
C107  C108  A    
C107  H40   S    
C47   H3    S    
C18   O14   A    
Cr6   O10   S    
C4    C12   S    
C50   C56   A    
C121  H74   S    
C62   O2    A    
C97   C102  A    
C125  C126  S    
Cr6   O11   S    
C94   C96   A    
C26   H61   S    
C66   C67   A    
Cr1   O1    S    
C44   H9    S    
C59   C60   A    
C22   C28   S    
C123  H83   S    
C73   O24   A    
C85   H35   S    
C74   C82   S    
C34   C35   A    
Cr1   O12   S    
C120  H72   S    
C118  H66   S    
C38   H4    S    
C125  H85   S    
C57   C63   A    
Cr3   O4    S    
C38   C39   A    
C5    H56   S    
Cr4   O6    S    
C74   C75   A    
C34   C43   S    
C1    O20   A    
C67   C68   A    
C18   C90   S    
C47   C48   A    
Cr6   O19   S    
C80   H31   S    
C24   C25   A    
C29   C84   S    
C126  H86   S    
C94   O29   S    
C10   C14   A    
C91   C92   A    
C65   H22   S    
C85   C89   A    
C78   C79   A    
C80   C81   A    
C126  H88   S    
C62   O3    A    
C83   H34   S    
C106  H32   S    
C117  H64   S    
C53   C54   A    
C15   C31   S    
C2    C106  A    
C33   H6    S    
C81   C82   A    
C57   H18   S    
C60   C61   A    
C35   H11   S    
C84   C95   A    
Cr4   O19   S    
C7    C116  A    
C22   N1    A    
C101  H46   S    
Cr1   O24   S    
C75   C76   A    
C37   C38   A    
C95   C106  A    
C59   C68   S    
C41   H7    S    
Cr2   O2    S    
C61   H20   S    
C13   H43   S    
C14   C51   S    
C21   C84   A    
C45   C49   A    
C8    C12   A    
C97   H42   S    
Cr2   O26   S    
C33   C34   A    
C26   C27   A    
C9    C14   A    
C13   C21   A    
C42   H8    S    
C93   C94   A    
C52   C53   A    
O27   C117  S    
C22   N4    A    
C90   C96   A    
C121  H75   S    
Cr5   O8    S    
C91   H38   S    
C103  C108  A    
C16   O10   A    
C79   C88   S    
C20   C110  S    
C15   O7    A    
C75   H36   S    
C72   C74   A    
C83   C85   A    
C26   C30   A    
Cr2   O20   S    
C64   H21   S    
C70   C76   A    
C123  H82   S    
C10   H60   S    
C17   O6    A    
C42   C43   A    
C3    C4    A    
C21   H12   S    
C2    C23   S    
C70   C71   A    
Cr3   O3    S    
C125  H84   S    
C51   O25   A    
C104  H48   S    
C113  C114  A    
C86   H37   S    
C51   O26   A    
C25   C30   A    
C105  C109  A    
C54   C55   A    
C11   H52   S    
C20   O18   A    
C105  H49   S    
C112  H55   S    
C86   C87   A    
C29   O22   A    
Cr6   O18   S    
C31   C32   A    
C44   C45   A    
C24   C28   A    
Cr5   O15   S    
C4    C5    A    
C86   C89   A    
C93   C102  S    
O30   C125  S    
C122  H78   S    
C114  C115  A    
C6    C7    A    
C17   C50   S    
C117  H65   S    
C114  H59   S    
C40   O23   A    
Cr3   O22   S    
C81   H33   S    
C67   H16   S    
Cr2   O21   S    
Cr3   O5    S    
C9    H58   S    
C64   C65   A    
C124  H81   S    
C58   C59   A    
C20   O13   A    
C71   C72   A    
C115  H51   S    
C99   C100  A    
C32   C33   A    
C23   N2    A    
C56   H15   S    
C7    C113  S    
C57   C58   A    
C5    C6    A    
C77   C82   A    
C52   H14   S    
C123  C124  S    
C119  H70   S    
C122  H77   S    
C83   C88   A    
C53   H19   S    
C73   C109  S    
C118  H68   S    
C60   O27   S    
Cr1   O25   S    
Cr2   O5    S    
C121  C122  S    
C1    C69   S    
Cr5   O9    S    
C66   H24   S    
C55   H23   S    
C10   C11   A    
C120  H71   S    
C79   C80   A    
C92   H44   S    
C3    H54   S    
C40   O1    A    
C76   H26   S    
C45   H10   S    
C98   C99   A    
C87   H27   S    
C27   C28   A    
C103  H47   S    
Cr4   O14   S    
C104  C109  A    
N3    N4    A    
C19   C70   S    
C18   O15   A    
Cr5   O19   S    
C124  H80   S    
N1    N2    A    
C24   H53   S    
C16   C30   S    
C110  C115  A    
C120  H73   S    
C44   C48   A    
C11   C12   A    
O29   C121  S    
C39   C48   S    
C37   H5    S    
