data_mof_unit_56271.cif
_audit_creation_date              2012-12-10T18:49:19-0500
_audit_creation_method            fapswitch 2.2
_symmetry_space_group_name_H-M    P1
_symmetry_Int_Tables_number       1
_space_group_crystal_system       triclinic
_cell_length_a                    9.986766
_cell_length_b                    10.73056
_cell_length_c                    13.609424
_cell_angle_alpha                 92.978902
_cell_angle_beta                  83.127967
_cell_angle_gamma                 90.57682
_cell_volume                      1445.98969936

loop_
_atom_site_label
_atom_site_type_symbol
_atom_type_description
_atom_site_fract_x
_atom_site_fract_y
_atom_site_fract_z
_atom_type_partial_charge
C1    C     C_R   0.500752 0.739693 0.499394 0.853002
C2    C     C_R   0.918973 0.568462 0.572176 0.046002
C3    C     C_1   0.541324 0.486277 0.210823 -0.235395
C4    C     C_1   0.456174 0.493812 0.788663 -0.227693
C5    C     C_2   0.552364 0.462950 0.018371 0.164880
C6    C     C_2   0.435611 0.483077 0.980866 0.166796
C7    C     C_1   0.441917 0.488246 0.876152 -0.019050
C8    C     C_1   0.551289 0.474527 0.123055 -0.025196
C9    C     C_R   0.624050 0.937144 0.498263 -0.200491
C10   C     C_R   0.378931 0.062915 0.505966 -0.208139
C11   C     C_R   0.623611 0.065078 0.498852 -0.195500
C12   C     C_R   0.499718 0.260350 0.500856 0.846356
C13   C     C_R   0.379879 0.935380 0.500502 -0.204517
C14   C     C_3   0.913097 0.434114 0.249071 -0.795664
C15   C     C_3   0.137255 0.763123 0.656340 -0.769802
C16   C     C_3   0.159776 0.334876 0.358196 -0.326700
C17   C     C_3   0.108305 0.199734 0.368627 -0.395540
C18   C     C_3   0.199907 0.107860 0.303124 -0.886330
C19   C     C_3   0.837325 0.654821 0.648284 -0.345977
C20   C     C_3   0.823994 0.609337 0.754370 -0.335594
C21   C     C_3   0.740397 0.700974 0.825922 -0.866566
C22   C     C_3   0.190078 0.526871 0.996977 -0.794114
C23   C     C_R   0.500627 0.127760 0.502409 -0.005919
C24   C     C_3   0.798611 0.421418 0.999410 -0.811335
C25   C     C_R   0.501872 0.872416 0.498899 -0.011187
C26   C     C_R   0.475675 0.499595 0.685311 0.905918
C27   C     C_R   0.524015 0.498110 0.314612 0.902228
C28   C     C_R   0.938577 0.436961 0.426388 0.237133
C29   C     C_R   0.063544 0.568297 0.571039 0.230797
C30   C     C_R   0.080707 0.428303 0.430439 0.063180
H1    H     H_    0.719506 0.889510 0.496656 0.152681
H2    H     H_    0.243457 0.790401 0.662358 0.250077
H3    H     H_    0.074885 0.799664 0.724565 0.221157
H4    H     H_    0.103156 0.805457 0.590911 0.219397
H5    H     H_    0.196623 0.125694 0.223774 0.266765
H6    H     H_    0.305756 0.117005 0.319811 0.267446
H7    H     H_    0.164933 0.010924 0.316297 0.252584
H8    H     H_    0.102733 0.175187 0.447148 0.211441
H9    H     H_    0.005743 0.187779 0.346432 0.241800
H10   H     H_    0.158413 0.362435 0.280950 0.201272
H11   H     H_    0.265253 0.333140 0.369681 0.262849
H12   H     H_    0.283420 0.110298 0.511751 0.166902
H13   H     H_    0.788639 0.794708 0.825060 0.250227
H14   H     H_    0.636854 0.708576 0.804914 0.258207
H15   H     H_    0.733730 0.668694 0.902449 0.275496
H16   H     H_    0.775811 0.515770 0.756823 0.246030
H17   H     H_    0.923573 0.600977 0.781005 0.213781
H18   H     H_    0.881136 0.749797 0.646608 0.175376
H19   H     H_    0.736863 0.670571 0.628441 0.257028
H20   H     H_    0.315908 0.557462 0.108254 0.229876
H21   H     H_    0.101262 0.533282 0.054476 0.235109
H22   H     H_    0.172579 0.448378 0.943450 0.249321
H23   H     H_    0.719134 0.114265 0.496619 0.151581
H24   H     H_    0.199987 0.615818 0.958376 0.242670
H25   H     H_    0.665497 0.372107 0.895913 0.226072
H26   H     H_    0.884354 0.406467 0.940159 0.234105
H27   H     H_    0.791198 0.340187 0.047183 0.249145
H28   H     H_    0.819090 0.508017 0.043522 0.251256
H29   H     H_    0.285170 0.886797 0.497709 0.163525
H30   H     H_    0.790158 0.334747 0.357450 0.263049
H31   H     H_    0.821119 0.472161 0.224144 0.261173
H32   H     H_    0.954427 0.360823 0.193475 0.237729
H33   H     H_    0.988033 0.511213 0.251867 0.232871
H34   H     H_    0.134614 0.580318 0.711233 0.216913
N1    N     N_R   0.142790 0.500030 0.500020 -0.140269
N2    N     N_R   0.857210 0.499970 0.499980 -0.144373
N3    N     N_2   0.881397 0.379614 0.344474 -0.301481
N4    N     N_2   0.127377 0.628628 0.648646 -0.260154
N5    N     N_2   0.310390 0.504823 0.043278 -0.305626
N6    N     N_2   0.675079 0.434301 0.955075 -0.309943
O1    O     O_R   0.385380 0.683250 0.500010 -0.596367
O2    O     O_R   0.614620 0.316750 0.499990 -0.642136
O3    O     O_R   0.614710 0.683220 0.500000 -0.646091
O4    O     O_R   0.385290 0.316780 0.500000 -0.640278
O5    O     O_R   0.368830 0.499990 0.640350 -0.597566
O6    O     O_R   0.631170 0.500010 0.359650 -0.604973
O7    O     O_R   0.598160 0.499960 0.640350 -0.623288
O8    O     O_R   0.401840 0.500040 0.359650 -0.633925
Zn1   Zn    Zn3+2 0.346870 0.500020 0.500000 0.936167
Zn2   Zn    Zn3+2 0.653130 0.499980 0.500000 0.919811

loop_
_geom_bond_atom_site_label_1
_geom_bond_atom_site_label_2
_ccdc_geom_bond_type
C6    N5    S    
N1    Zn1   S    
C12   O4    A    
C10   H12   S    
C19   C20   S    
C27   O8    A    
O1    Zn1   S    
C9    C25   A    
C15   H2    S    
C22   H24   S    
C12   C23   S    
C1    O1    A    
C2    C29   A    
H34   N4    S    
H20   N5    S    
C5    C6    D    
C15   N4    S    
C16   C30   S    
C21   H14   S    
C17   H9    S    
C21   H13   S    
H30   N3    S    
C24   H27   S    
C14   N3    S    
C18   H5    S    
C15   H4    S    
C11   H23   S    
C12   O2    A    
C1    C25   S    
C13   C25   A    
C4    C7    T    
C26   O5    A    
C21   H15   S    
C3    C27   S    
C26   O7    A    
C24   N6    S    
H25   N6    S    
C28   N3    S    
C3    C8    T    
O8    Zn1   S    
C16   C17   S    
C14   H31   S    
C28   N2    A    
C5    N6    S    
C29   N4    S    
C19   H19   S    
C17   C18   S    
C9    C11   A    
C16   H10   S    
C29   N1    A    
O4    Zn1   S    
C27   O6    A    
C22   H22   S    
O7    Zn2   S    
C22   N5    S    
C2    C19   S    
C19   H18   S    
C18   H7    S    
O6    Zn2   S    
C2    N2    A    
C10   C13   A    
C5    C8    S    
C4    C26   S    
C6    C7    S    
C13   H29   S    
C10   C23   A    
C24   H26   S    
N2    Zn2   S    
C1    O3    A    
C28   C30   A    
O2    Zn2   S    
C18   H6    S    
C14   H33   S    
C11   C23   A    
O3    Zn2   S    
C17   H8    S    
C30   N1    A    
C9    H1    S    
C20   C21   S    
C24   H28   S    
O5    Zn1   S    
C16   H11   S    
C15   H3    S    
C20   H16   S    
C20   H17   S    
C22   H21   S    
C14   H32   S    
