data_mof_unit_36061.cif
_audit_creation_date              2012-12-10T16:32:39-0500
_audit_creation_method            fapswitch 2.2
_symmetry_space_group_name_H-M    P1
_symmetry_Int_Tables_number       1
_space_group_crystal_system       triclinic
_cell_length_a                    16.929405
_cell_length_b                    16.916188
_cell_length_c                    16.982992
_cell_angle_alpha                 65.942872
_cell_angle_beta                  65.938791
_cell_angle_gamma                 65.183566
_cell_volume                      3863.27900771

loop_
_atom_site_label
_atom_site_type_symbol
_atom_type_description
_atom_site_fract_x
_atom_site_fract_y
_atom_site_fract_z
_atom_type_partial_charge
C1    C     C_R   0.593921 0.022248 0.594892 0.082497
C2    C     C_R   0.821401 0.563581 0.035407 0.903201
C3    C     C_R   0.434126 0.971825 0.177145 0.921578
C4    C     C_R   0.564237 0.032829 0.821757 0.904316
C5    C     C_R   0.564155 0.821373 0.034230 0.923137
C6    C     C_R   0.436260 0.178647 0.964954 0.904285
C7    C     C_R   0.028281 0.565831 0.822831 0.922173
C8    C     C_R   0.967243 0.435739 0.178256 0.896671
C9    C     C_R   0.821526 0.032492 0.564672 0.896282
C10   C     C_R   0.177493 0.971599 0.434141 0.927122
C11   C     C_R   0.549269 0.001995 0.548595 0.135903
C12   C     C_R   0.414057 0.954608 0.411374 0.084129
C13   C     C_R   0.464198 0.966004 0.458749 0.139485
C14   C     C_R   0.034540 0.535508 0.541167 0.140731
C15   C     C_R   0.998344 0.450741 0.451189 0.138361
C16   C     C_R   0.544804 0.543186 0.017310 0.135975
C17   C     C_R   0.455976 0.456136 0.982648 0.138040
C18   C     C_R   0.559470 0.043018 0.456013 -0.189457
C19   C     C_R   0.454442 0.924196 0.551286 -0.186525
C20   C     C_R   0.975447 0.481892 0.588140 -0.181653
C21   C     C_R   0.058418 0.503434 0.404117 -0.184721
C22   C     C_R   0.451925 0.552696 0.059741 -0.188296
C23   C     C_R   0.045844 0.585691 0.588574 0.083969
C24   C     C_R   0.548893 0.446633 0.940206 -0.188499
C25   C     C_R   0.517648 0.025270 0.411784 -0.182866
C26   C     C_R   0.496707 0.941775 0.595653 -0.184212
C27   C     C_R   0.408130 0.509580 0.042863 -0.186755
C28   C     C_R   0.592719 0.489648 0.957205 -0.187538
C29   C     C_R   0.957616 0.440197 0.543850 -0.192434
C30   C     C_R   0.076120 0.545534 0.448561 -0.187954
C31   C     C_R   0.552180 0.029181 0.682816 -0.282257
C32   C     C_R   0.453007 0.953601 0.321369 -0.299902
C33   C     C_R   0.045678 0.676449 0.548548 -0.281150
C34   C     C_R   0.977978 0.406200 0.404893 0.080362
C35   C     C_R   0.971842 0.317858 0.446120 -0.296963
C36   C     C_R   0.680214 0.547990 0.040840 -0.281470
C37   C     C_R   0.319801 0.450919 0.960740 -0.281902
C38   C     C_R   0.323391 0.954634 0.451416 -0.280478
C39   C     C_R   0.682084 0.028832 0.553481 -0.285798
C40   C     C_R   0.451382 0.320416 0.959570 -0.286083
C41   C     C_R   0.549783 0.679640 0.038571 -0.285534
C42   C     C_R   0.970646 0.448103 0.317126 -0.277794
C43   C     C_R   0.046776 0.546764 0.678600 -0.301437
C44   C     C_R   0.596772 0.046715 0.725727 -0.182588
C45   C     C_R   0.591028 0.589574 0.035342 0.081169
C46   C     C_R   0.397959 0.967449 0.270177 -0.162448
C47   C     C_R   0.032510 0.728891 0.602353 -0.170247
C48   C     C_R   0.953595 0.275174 0.402032 -0.156500
C49   C     C_R   0.723971 0.594492 0.054572 -0.180887
C50   C     C_R   0.275940 0.404657 0.946810 -0.158533
C51   C     C_R   0.271043 0.967603 0.397630 -0.170463
C52   C     C_R   0.724973 0.046497 0.597845 -0.156339
C53   C     C_R   0.405328 0.276247 0.945638 -0.180964
C54   C     C_R   0.595530 0.723862 0.052861 -0.158887
C55   C     C_R   0.952700 0.403589 0.274415 -0.184032
C56   C     C_R   0.409596 0.409907 0.964534 0.081711
C57   C     C_R   0.032749 0.601933 0.729799 -0.162328
C58   C     C_R   0.677625 0.067014 0.678695 0.400723
C59   C     C_R   0.305693 0.987331 0.305798 0.406116
C60   C     C_R   0.012750 0.694258 0.694183 0.406581
C61   C     C_R   0.931531 0.323029 0.321903 0.408523
C62   C     C_R   0.675844 0.675809 0.075420 0.402578
C63   C     C_R   0.324139 0.324161 0.924573 0.402563
C64   C     C_3   0.680373 0.190423 0.701416 0.085492
C65   C     C_3   0.754849 0.233993 0.635773 -0.306304
C66   C     C_3   0.720106 0.337147 0.616453 -1.007110
C67   C     C_R   0.967505 0.178526 0.435297 0.901810
C68   C     C_3   0.218884 0.121865 0.234324 0.102532
C69   C     C_3   0.139903 0.164162 0.193199 -0.330242
C70   C     C_3   0.170106 0.157120 0.098095 -0.709373
C71   C     C_3   0.878156 0.780715 0.765934 0.101478
C72   C     C_3   0.835634 0.859868 0.806949 -0.328171
C73   C     C_3   0.843017 0.830015 0.901866 -0.710264
C74   C     C_3   0.809952 0.329046 0.289172 0.129368
C75   C     C_3   0.749172 0.295005 0.383380 -0.399369
C76   C     C_3   0.649381 0.332013 0.385690 -0.951950
C77   C     C_3   0.701802 0.676840 0.197075 0.104576
C78   C     C_R   0.028411 0.822496 0.565850 0.927629
C79   C     C_3   0.612638 0.733141 0.248732 -0.358633
C80   C     C_3   0.601820 0.698548 0.349594 -0.953352
C81   C     C_3   0.322925 0.297897 0.803152 0.103947
C82   C     C_3   0.265901 0.386653 0.751768 -0.356537
C83   C     C_3   0.299982 0.397356 0.650939 -0.956481
C84   C     C_R   0.178584 0.435999 0.965401 0.923321
H1    H     H_    0.488837 0.907519 0.666653 0.133475
H2    H     H_    0.413344 0.592513 0.107161 0.133710
H3    H     H_    0.092461 0.511527 0.333058 0.130145
H4    H     H_    0.940358 0.474475 0.658974 0.134818
H5    H     H_    0.486299 0.018538 0.718571 0.172567
H6    H     H_    0.524779 0.946266 0.290397 0.174076
H7    H     H_    0.049785 0.707703 0.477814 0.172041
H8    H     H_    0.986090 0.280807 0.510425 0.178734
H9    H     H_    0.716500 0.481010 0.031236 0.171311
H10   H     H_    0.283254 0.517441 0.971393 0.173361
H11   H     H_    0.292146 0.950551 0.522146 0.172439
H12   H     H_    0.524854 0.060532 0.341004 0.136733
H13   H     H_    0.718929 0.015137 0.488908 0.176624
H14   H     H_    0.516983 0.283669 0.972325 0.174404
H15   H     H_    0.484713 0.716542 0.024665 0.176016
H16   H     H_    0.981470 0.513944 0.281278 0.171445
H17   H     H_    0.054189 0.474924 0.709580 0.173911
H18   H     H_    0.658479 0.205004 0.766599 0.161596
H19   H     H_    0.619401 0.222800 0.675790 0.103399
H20   H     H_    0.812759 0.206374 0.664437 0.231879
H21   H     H_    0.779786 0.216645 0.571706 0.203948
H22   H     H_    0.663190 0.366278 0.586187 0.271211
H23   H     H_    0.122456 0.585750 0.410492 0.130341
H24   H     H_    0.775734 0.366339 0.568274 0.271471
H25   H     H_    0.696515 0.356165 0.679505 0.265739
H26   H     H_    0.275314 0.150902 0.187719 0.126133
H27   H     H_    0.193399 0.141170 0.297828 0.083411
H28   H     H_    0.087237 0.129457 0.235549 0.263252
H29   H     H_    0.109288 0.237006 0.191385 0.192056
H30   H     H_    0.219212 0.195449 0.054162 0.288537
H31   H     H_    0.110478 0.187187 0.071601 0.223033
H32   H     H_    0.201965 0.085029 0.097313 0.265353
H33   H     H_    0.849465 0.724068 0.812723 0.126102
H34   H     H_    0.910109 0.401235 0.581957 0.134159
H35   H     H_    0.858709 0.805942 0.702561 0.083442
H36   H     H_    0.869933 0.912833 0.764342 0.263808
H37   H     H_    0.762762 0.890069 0.809072 0.192440
H38   H     H_    0.804882 0.780789 0.946146 0.288593
H39   H     H_    0.812972 0.889837 0.928145 0.223141
H40   H     H_    0.915131 0.798372 0.902391 0.265452
H41   H     H_    0.795754 0.313014 0.239932 0.168153
H42   H     H_    0.792723 0.404523 0.268957 0.096234
H43   H     H_    0.770106 0.219497 0.404570 0.237997
H44   H     H_    0.756995 0.317751 0.431777 0.214292
H45   H     H_    0.663874 0.482247 0.921906 0.131261
H46   H     H_    0.626830 0.407496 0.365608 0.263550
H47   H     H_    0.607498 0.306999 0.455050 0.266642
H48   H     H_    0.638808 0.308565 0.339459 0.264423
H49   H     H_    0.759071 0.679366 0.211302 0.167554
H50   H     H_    0.704855 0.603741 0.221833 0.100849
H51   H     H_    0.611619 0.805238 0.223815 0.240591
H52   H     H_    0.554307 0.729856 0.236954 0.204065
H53   H     H_    0.601578 0.626758 0.376222 0.264196
H54   H     H_    0.536527 0.740557 0.384870 0.274858
H55   H     H_    0.658131 0.703363 0.363421 0.265144
H56   H     H_    0.337024 0.516911 0.078332 0.130652
H57   H     H_    0.320929 0.240212 0.789098 0.167488
H58   H     H_    0.395777 0.295579 0.778021 0.100794
H59   H     H_    0.194031 0.387016 0.777189 0.240556
H60   H     H_    0.268788 0.445408 0.763230 0.204601
H61   H     H_    0.371570 0.398111 0.623817 0.263406
H62   H     H_    0.257547 0.462420 0.615839 0.275517
H63   H     H_    0.295415 0.340669 0.637444 0.264778
H64   H     H_    0.414347 0.877741 0.589351 0.132418
H65   H     H_    0.598243 0.090712 0.417941 0.135556
H66   H     H_    0.587492 0.406917 0.892694 0.129314
O1    O     O_R   0.982940 0.138950 0.510160 -0.653015
O2    O     O_R   0.982940 0.510160 0.138950 -0.646178
O3    O     O_R   0.861050 0.017060 0.489840 -0.648144
O4    O     O_R   0.138950 0.982940 0.510160 -0.647527
O5    O     O_R   0.867700 0.025880 0.612340 -0.602705
O6    O     O_R   0.132300 0.974120 0.387660 -0.581487
O7    O     O_R   0.025880 0.612340 0.867700 -0.575749
O8    O     O_R   0.974120 0.387660 0.132300 -0.594098
O9    O     O_R   0.612340 0.867700 0.025880 -0.585296
O10   O     O_R   0.387660 0.132300 0.974120 -0.597531
O11   O     O_R   0.387660 0.974120 0.132300 -0.576395
O12   O     O_R   0.017060 0.861050 0.489840 -0.647958
O13   O     O_R   0.612340 0.025880 0.867700 -0.590812
O14   O     O_R   0.132300 0.387660 0.974120 -0.585351
O15   O     O_R   0.867700 0.612340 0.025880 -0.597521
O16   O     O_R   0.974120 0.132300 0.387660 -0.597792
O17   O     O_R   0.025880 0.867700 0.612340 -0.580546
O18   O     O_3   0.715984 0.094896 0.717106 -0.624195
O19   O     O_3   0.249022 0.026392 0.250580 -0.588049
O20   O     O_3   0.973572 0.751007 0.749392 -0.587769
O21   O     O_3   0.902977 0.284159 0.284484 -0.628055
O22   O     O_3   0.713618 0.714782 0.103292 -0.636706
O23   O     O_R   0.138950 0.510160 0.982940 -0.649070
O24   O     O_3   0.285321 0.285995 0.896961 -0.636728
O25   O     O_R   0.861050 0.489840 0.017060 -0.648981
O26   O     O_R   0.510160 0.982940 0.138950 -0.656712
O27   O     O_R   0.489840 0.017060 0.861050 -0.647156
O28   O     O_R   0.489840 0.861050 0.017060 -0.648290
O29   O     O_R   0.510160 0.138950 0.982940 -0.647784
O30   O     O_R   0.017060 0.489840 0.861050 -0.657746
Zn1   Zn    Zn3+2 0.004880 0.004880 0.583590 0.949331
Zn2   Zn    Zn3+2 0.995120 0.995120 0.416410 0.957102
Zn3   Zn    Zn3+2 0.004880 0.583590 0.004880 0.948800
Zn4   Zn    Zn3+2 0.995120 0.416410 0.995120 0.941445
Zn5   Zn    Zn3+2 0.583590 0.004880 0.004880 0.945198
Zn6   Zn    Zn3+2 0.416410 0.995120 0.995120 0.949617

loop_
_geom_bond_atom_site_label_1
_geom_bond_atom_site_label_2
_ccdc_geom_bond_type
C16   C28   A    
C64   H19   S    
C21   H3    S    
C11   C18   A    
C6    O29   A    
C53   C63   A    
O16   Zn2   S    
O10   Zn6   S    
C4    O27   A    
C8    O8    A    
C10   O4    A    
C81   C82   S    
C50   C84   S    
O26   Zn5   S    
C74   H42   S    
C70   H30   S    
C19   H64   S    
C64   H18   S    
C79   H52   S    
C18   C25   A    
C69   H29   S    
C78   O17   A    
C28   H45   S    
C8    O2    A    
C14   C30   A    
O12   Zn2   S    
C33   H7    S    
C40   H14   S    
C72   H37   S    
C69   H28   S    
C39   H13   S    
C74   H41   S    
C10   C51   S    
C80   H53   S    
O4    Zn1   S    
C55   C61   A    
C1    C31   A    
C23   C43   A    
C75   H44   S    
C19   C26   A    
C47   C60   A    
C83   H61   S    
C37   C56   A    
C76   H46   S    
C36   H9    S    
C32   H6    S    
C44   C58   A    
C68   C69   S    
C23   C33   A    
C30   H23   S    
C34   C42   A    
C38   H11   S    
C37   H10   S    
C41   H15   S    
O1    Zn1   S    
C61   O21   S    
C18   H65   S    
C58   O18   S    
C15   C34   S    
C84   O14   A    
C35   H8    S    
C81   H57   S    
C39   C52   A    
C9    O3    A    
C48   C67   S    
C12   C32   A    
C50   C63   A    
C13   C25   A    
C9    C52   S    
C77   H49   S    
C66   H22   S    
C34   C35   A    
C35   C48   A    
C8    C55   S    
C65   H21   S    
C15   C29   A    
C20   C29   A    
C77   C79   S    
C52   C58   A    
C4    O13   A    
C17   C24   A    
C7    O7    A    
C74   C75   S    
C71   H33   S    
C67   O1    A    
O15   Zn3   S    
C14   C20   A    
C5    C54   S    
C82   H60   S    
C31   C44   A    
C10   O6    A    
C43   C57   A    
C72   C73   S    
C57   C60   A    
C38   C51   A    
C4    C44   S    
C11   C26   A    
C40   C56   A    
O27   Zn6   S    
C68   H27   S    
C17   C27   A    
C14   C23   S    
C75   C76   S    
C43   H17   S    
O11   Zn6   S    
O14   Zn4   S    
C2    C49   S    
C42   H16   S    
C42   C55   A    
C83   H62   S    
C68   O19   S    
C17   C56   S    
C73   H40   S    
C72   H36   S    
C71   O20   S    
C36   C45   A    
C68   H26   S    
C12   C13   S    
O2    Zn3   S    
C41   C54   A    
C2    O15   A    
C9    O5    A    
C74   O21   S    
C24   H66   S    
C25   H12   S    
C83   H63   S    
C67   O16   A    
C81   H58   S    
C82   C83   S    
C22   C27   A    
C2    O25   A    
C33   C47   A    
C51   C59   A    
C77   H50   S    
C6    C53   S    
C84   O23   A    
C79   H51   S    
C63   O24   S    
C29   H34   S    
C16   C22   A    
C49   C62   A    
O6    Zn2   S    
C32   C46   A    
C73   H38   S    
C26   H1    S    
C24   C28   A    
C66   H24   S    
C82   H59   S    
C16   C45   S    
C6    O10   A    
C62   O22   S    
O5    Zn1   S    
C78   O12   A    
O29   Zn5   S    
C31   H5    S    
C70   H31   S    
C80   H55   S    
C54   C62   A    
C21   C30   A    
C3    C46   S    
C27   H56   S    
C47   C78   S    
C71   H35   S    
O13   Zn5   S    
C70   H32   S    
C81   O24   S    
O9    Zn5   S    
C60   O20   S    
C71   C72   S    
C64   O18   S    
C64   C65   S    
C37   C50   A    
C76   H48   S    
C48   C61   A    
O17   Zn1   S    
C77   O22   S    
C80   H54   S    
C20   H4    S    
C76   H47   S    
C7    O30   A    
C75   H43   S    
C22   H2    S    
C66   H25   S    
C12   C38   A    
C69   C70   S    
C5    O28   A    
C1    C39   A    
C40   C53   A    
C79   C80   S    
O28   Zn6   S    
C3    O26   A    
C15   C21   A    
C3    O11   A    
O3    Zn2   S    
O23   Zn3   S    
C46   C59   A    
C5    O9    A    
C65   C66   S    
C13   C19   A    
C41   C45   A    
C1    C11   S    
O7    Zn3   S    
C65   H20   S    
C59   O19   S    
O8    Zn4   S    
C7    C57   S    
C36   C49   A    
O30   Zn4   S    
O25   Zn4   S    
C73   H39   S    
