data_mof_unit_31986.cif
_audit_creation_date              2012-12-11T20:21:42-0500
_audit_creation_method            fapswitch 2.2
_symmetry_space_group_name_H-M    P1
_symmetry_Int_Tables_number       1
_space_group_crystal_system       triclinic
_cell_length_a                    8.264021
_cell_length_b                    17.623086
_cell_length_c                    26.96171
_cell_angle_alpha                 100.634731
_cell_angle_beta                  92.567661
_cell_angle_gamma                 81.360989
_cell_volume                      3814.81772504

loop_
_atom_site_label
_atom_site_type_symbol
_atom_type_description
_atom_site_fract_x
_atom_site_fract_y
_atom_site_fract_z
_atom_type_partial_charge
Ba1   Ba    Ba6+2 0.860160 0.462360 0.521850 1.709919
Ba2   Ba    Ba6+2 0.329680 0.537570 0.478140 1.720628
C1    C     C_3   0.764000 0.192235 0.653707 0.381523
C2    C     C_R   0.865622 0.568132 0.176750 0.664512
C3    C     C_2   0.808532 0.586430 0.286792 -0.070752
C4    C     C_3   0.182661 0.300406 0.654439 0.299464
C5    C     C_3   0.756780 0.568546 0.336313 -0.202282
C6    C     C_1   0.986397 0.472444 0.336306 -0.070043
C7    C     C_2   0.046481 0.486475 0.293941 -0.042900
C8    C     C_2   0.947465 0.544213 0.263903 0.207800
C9    C     C_R   0.061008 0.546107 0.109052 -0.121898
C10   C     C_R   0.181734 0.517899 0.142311 -0.004923
C11   C     C_R   0.335229 0.482359 0.123161 0.040272
C12   C     C_3   0.708693 0.267175 0.632920 0.312429
C13   C     C_R   0.904588 0.578697 0.127837 -0.135306
C14   C     C_2   0.824961 0.485004 0.338586 0.241133
C15   C     C_2   0.353542 0.484059 0.639675 -0.285878
C16   C     C_3   0.143663 0.292308 0.707596 -0.306746
C17   C     C_R   0.277309 0.489645 0.984543 0.022818
C18   C     C_R   0.022971 0.578214 0.974212 0.041823
C19   C     C_R   0.167108 0.530872 0.953467 0.063181
C20   C     C_R   0.411388 0.437926 0.961245 -0.099845
C21   C     C_R   0.437957 0.428733 0.909558 -0.050018
C22   C     C_R   0.335447 0.472640 0.879016 -0.037750
C23   C     C_3   0.483251 0.663841 0.634793 0.299477
C24   C     C_R   0.201633 0.524895 0.901181 -0.079349
C25   C     C_R   0.102280 0.571186 0.871118 -0.031312
C26   C     C_R   0.142668 0.567596 0.820116 0.596006
C27   C     C_R   0.363290 0.464647 0.826674 0.586563
C28   C     C_3   0.204982 0.307158 0.422624 0.305065
C29   C     C_2   0.465072 0.499139 0.728255 -0.060910
C30   C     C_3   0.502705 0.495375 0.673048 -0.055922
C31   C     C_1   0.209044 0.516839 0.657188 0.038573
C32   C     C_2   0.173117 0.516557 0.704745 -0.115474
C33   C     C_2   0.307727 0.508842 0.744117 0.192506
C34   C     C_3   0.449549 0.696634 0.690217 -0.352552
C35   C     C_R   0.248688 0.500561 0.037472 0.040009
C36   C     C_R   0.097331 0.541857 0.057132 0.065771
C37   C     C_R   0.982046 0.578597 0.025302 -0.040204
C38   C     C_R   0.366968 0.472319 0.071764 -0.051262
C39   C     C_R   0.791321 0.617487 0.096249 0.446435
C40   C     C_3   0.194767 0.220907 0.418333 -0.242311
C41   C     C_R   0.925654 0.624084 0.942969 -0.091590
C42   C     C_R   0.965852 0.621338 0.892910 -0.050303
C43   C     C_R   0.830055 0.615515 0.045924 -0.131941
C44   C     C_2   0.453196 0.276898 0.515346 -0.261652
C45   C     C_3   0.996721 0.722253 0.351573 0.319801
C46   C     C_3   0.377055 0.225947 0.544622 0.016921
C47   C     C_2   0.419525 0.139942 0.525038 -0.081982
C48   C     C_2   0.553841 0.113050 0.496615 -0.055921
C49   C     C_2   0.643657 0.172136 0.479681 -0.124970
C50   C     C_1   0.580295 0.247603 0.485664 -0.005413
C51   C     C_R   0.816682 0.864015 0.490063 -0.009817
C52   C     C_3   0.971586 0.702484 0.592338 0.290733
C53   C     C_R   0.861325 0.783754 0.476619 0.019691
C54   C     C_R   0.619896 0.761890 0.515823 0.032618
C55   C     C_R   0.566470 0.842880 0.525578 -0.113189
C56   C     C_3   0.006801 0.749308 0.301415 -0.293557
C57   C     C_R   0.661704 0.894327 0.510149 0.045800
C58   C     C_2   0.612976 0.026633 0.483413 0.400573
C59   C     C_2   0.603877 0.979658 0.517975 -0.157607
C60   C     C_R   0.761441 0.732839 0.488429 -0.307815
C61   C     C_3   0.938633 0.789928 0.611884 -0.345015
C62   C     C_3   0.667885 0.244181 0.353237 0.661482
C63   C     C_3   0.509150 0.213278 0.356381 -0.480471
C64   C     C_3   0.470066 0.746394 0.375691 0.266178
C65   C     C_3   0.405184 0.824171 0.359880 -0.179411
C66   C     C_R   0.147515 0.526822 0.194265 0.604656
H1    H     H_    0.808342 0.274599 0.608811 0.047678
H2    H     H_    0.652195 0.262104 0.315871 0.147281
H3    H     H_    0.497286 0.198586 0.394129 0.048516
H4    H     H_    0.409001 0.258228 0.347374 0.144473
H5    H     H_    0.368648 0.645343 0.616774 0.028562
H6    H     H_    0.581438 0.612889 0.631739 0.026321
H7    H     H_    0.359562 0.750814 0.693736 0.147722
H8    H     H_    0.397765 0.653988 0.708037 0.067265
H9    H     H_    0.564756 0.710102 0.710419 0.130683
H10   H     H_    0.865702 0.727546 0.361036 -0.026107
H11   H     H_    0.134857 0.735670 0.287757 0.146273
H12   H     H_    0.217183 0.187834 0.379259 0.197849
H13   H     H_    0.927239 0.719287 0.272366 0.080084
H14   H     H_    0.965746 0.813328 0.306054 0.172239
H15   H     H_    0.601410 0.745599 0.386544 -0.025186
H16   H     H_    0.400974 0.741250 0.408910 0.099734
H17   H     H_    0.391949 0.871327 0.393627 0.139925
H18   H     H_    0.283456 0.822783 0.341212 0.137365
H19   H     H_    0.134720 0.361030 0.649947 0.046526
H20   H     H_    0.489892 0.837300 0.332783 0.161258
H21   H     H_    0.145714 0.444293 0.276286 0.148554
H22   H     H_    0.431329 0.460768 0.147861 0.135542
H23   H     H_    0.284810 0.194979 0.443923 0.029393
H24   H     H_    0.566556 0.498900 0.755206 0.115243
H25   H     H_    0.541447 0.387526 0.893666 0.132354
H26   H     H_    0.495003 0.401440 0.981832 0.077080
H27   H     H_    0.488299 0.444892 0.060211 0.069042
H28   H     H_    0.735051 0.633144 0.271363 0.149122
H29   H     H_    0.819805 0.664984 0.956532 0.091912
H30   H     H_    0.317828 0.290467 0.650367 0.068088
H31   H     H_    0.046733 0.520806 0.715131 0.146628
H32   H     H_    0.736593 0.642649 0.023165 0.135864
H33   H     H_    0.365771 0.452499 0.601119 0.064418
H34   H     H_    0.073460 0.213804 0.430446 0.202933
H35   H     H_    0.550175 0.004861 0.554421 0.091431
H36   H     H_    0.770283 0.154483 0.469171 0.175660
H37   H     H_    0.900122 0.902549 0.483106 0.131302
H38   H     H_    0.010511 0.309205 0.714250 0.129952
H39   H     H_    0.454221 0.865609 0.545841 0.094854
H40   H     H_    0.419756 0.339557 0.526102 0.058156
H41   H     H_    0.801031 0.670513 0.480182 0.057098
H42   H     H_    0.805730 0.050735 0.309940 0.385905
H43   H     H_    0.802260 0.143961 0.621852 -0.030087
H44   H     H_    0.502069 0.160268 0.326655 0.176029
H45   H     H_    0.855261 0.680893 0.579630 0.008167
H46   H     H_    0.597825 0.260604 0.609338 -0.037045
H47   H     H_    0.471135 0.215822 0.754703 0.361355
H48   H     H_    0.870858 0.199569 0.679616 0.044229
H49   H     H_    0.210707 0.331442 0.735466 0.113507
H50   H     H_    0.055254 0.660350 0.347445 0.020543
H51   H     H_    0.448564 0.776144 0.096787 0.377147
H52   H     H_    0.887610 0.658391 0.871015 0.128442
H53   H     H_    0.568110 0.413154 0.232456 0.372977
H54   H     H_    0.635036 0.080842 0.380196 0.357793
H55   H     H_    0.348119 0.100272 0.537501 0.096836
H56   H     H_    0.056743 0.691029 0.560275 0.061270
H57   H     H_    0.180838 0.231153 0.713031 0.164313
H58   H     H_    0.331309 0.318526 0.430818 -0.061292
H59   H     H_    0.129882 0.336361 0.455502 0.092146
H60   H     H_    0.850718 0.802576 0.643364 0.151263
H61   H     H_    0.886219 0.821219 0.581660 0.049081
H62   H     H_    0.054748 0.811861 0.625686 0.128953
N1    N     N_R   0.987923 0.547985 0.211420 -0.432526
N2    N     N_R   0.270623 0.513583 0.797640 -0.426646
O1    O     O_2   0.906370 0.542040 0.619810 -0.466419
O2    O     O_2   0.194532 0.778293 0.480007 -0.491449
O3    O     O_3   0.079308 0.769440 0.388695 -0.579152
O4    O     O_3   0.138370 0.541980 0.559630 -0.498926
O5    O     O_3   0.572820 0.404940 0.471170 -0.460240
O6    O     O_2   0.345130 0.693150 0.532000 -0.460660
O7    O     O_3   0.534788 0.721934 0.612775 -0.635484
O8    O     O_2   0.419975 0.539583 0.323408 -0.346204
O9    O     O_3   0.447878 0.685866 0.335302 -0.590409
O10   O     O_2   0.260734 0.515982 0.223952 -0.554805
O11   O     O_2   0.469095 0.413279 0.806964 -0.559680
O12   O     O_3   0.692466 0.312721 0.388344 -0.564450
O13   O     O_2   0.722123 0.572025 0.186993 -0.484533
O14   O     O_2   0.064971 0.613717 0.796096 -0.594876
O15   O     O_3   0.686580 0.398330 0.583860 -0.499066
O16   O     O_2   0.842171 0.442348 0.669787 -0.498510
O17   O     O_3   0.040299 0.666909 0.632004 -0.624630
O18   O     O_3   0.674048 0.331115 0.672529 -0.565545
O19   O     O_2   0.844570 0.306830 0.467970 -0.462701
O20   O     O_3   0.101900 0.357890 0.557750 -0.504115
O21   O     O_2   0.036622 0.214922 0.522369 -0.492347
O22   O     O_2   0.981425 0.205066 0.325158 -0.220870
O23   O     O_3   0.108781 0.246207 0.619028 -0.596173
O24   O     O_2   0.892855 0.135903 0.388056 -0.353377
O25   O     O_3   0.799244 0.098264 0.294572 -0.482153
O26   O     O_2   0.467317 0.145529 0.650688 -0.335306
O27   O     O_2   0.673665 0.094709 0.709024 -0.268845
O28   O     O_3   0.536549 0.239087 0.733138 -0.472797
O29   O     O_2   0.477825 0.631222 0.123227 -0.266044
O30   O     O_2   0.643927 0.725333 0.170593 -0.254271
O31   O     O_3   0.545362 0.742080 0.080029 -0.515046
O32   O     O_2   0.839017 0.337509 0.288320 -0.267147
O33   O     O_2   0.576018 0.402211 0.326567 -0.313070
O34   O     O_2   0.283330 0.457940 0.380160 -0.426962
O35   O     O_3   0.661862 0.441812 0.244555 -0.474064
O36   O     O_2   0.863982 0.999791 0.419638 -0.267155
O37   O     O_2   0.676746 0.903597 0.404677 -0.329571
O38   O     O_3   0.577088 0.035534 0.379816 -0.489319
O39   O     O_3   0.051340 0.457960 0.440360 -0.515621
O40   O     O_3   0.503130 0.601610 0.416130 -0.496681
O41   O     O_3   0.153086 0.332247 0.376992 -0.566519
O42   O     O_3   0.616890 0.595000 0.528820 -0.484805
O43   O     O_3   0.087820 0.642040 0.442240 -0.514442
P1    P     P_3+3 0.071770 0.565500 0.613330 0.997784
P2    P     P_3+3 0.664870 0.318630 0.453960 1.046444
P3    P     P_3+3 0.155377 0.259102 0.558780 0.939524
P4    P     P_3+3 0.117940 0.434440 0.386660 1.061678
P5    P     P_3+3 0.056448 0.743493 0.447190 0.963090
P6    P     P_3+3 0.675833 0.418237 0.649836 0.979609
P7    P     P_3+3 0.530626 0.693961 0.547108 0.952082
P8    P     P_3+3 0.532783 0.596486 0.351766 1.085784
S1    S     S_3+6 0.842615 0.170128 0.341781 -0.052411
S2    S     S_3+6 0.605310 0.165168 0.686672 -0.068158
S3    S     S_3+6 0.610182 0.679474 0.119345 -0.030870
S4    S     S_3+6 0.723974 0.413060 0.299475 -0.057589
S5    S     S_3+6 0.687597 0.988643 0.421308 -0.084045

loop_
_geom_bond_atom_site_label_1
_geom_bond_atom_site_label_2
_ccdc_geom_bond_type
C19   C24   A    
C28   H58   S    
Ba1   P1    S    
C40   H12   S    
O36   S5    D    
C11   H22   S    
C66   N1    Am   
C53   P5    S    
O40   P8    S    
O32   S4    D    
O42   P7    S    
O4    P1    S    
C51   C57   A    
C64   O9    S    
C10   C66   A    
C65   H20   S    
O33   S4    D    
O31   S3    S    
C4    H30   S    
C23   O7    S    
C22   C24   A    
O3    P5    S    
Ba1   Ba2   S    
C35   C38   A    
C34   H9    S    
C56   H14   S    
C16   H57   S    
C36   C37   A    
O19   P2    D    
C27   N2    Am   
C52   C61   S    
O41   P4    S    
C47   H55   S    
C52   H45   S    
C44   C50   D    
C54   C55   A    
Ba1   O20   S    
C32   C33   S    
C61   H62   S    
C31   P1    S    
C15   H33   S    
C50   P2    S    
C11   C38   A    
C34   H8    S    
C64   H15   S    
O21   P3    D    
C9    C13   A    
C25   C42   A    
C45   H50   S    
C1    H43   S    
O16   P6    D    
H54   O38   S    
C44   H40   S    
C21   C22   A    
C66   O10   D    
O25   S1    S    
C62   H2    S    
C2    N1    Am   
Ba1   O4    S    
C17   C35   A    
C7    C8    S    
Ba2   O34   S    
C28   O41   S    
C23   H5    S    
C4    O23   S    
O23   P3    S    
Ba2   O39   S    
C37   C43   A    
C45   O3    S    
O15   P6    S    
C64   C65   S    
C58   S5    S    
C20   H26   S    
O39   P4    S    
C15   C31   D    
O28   S2    S    
Ba1   O1    S    
C40   H34   S    
C46   P3    S    
C31   C32   D    
O18   P6    S    
C51   C53   A    
O24   S1    D    
C23   H6    S    
C4    C16   S    
C44   C46   S    
Ba1   O42   S    
C57   C59   S    
O8    P8    D    
C65   H17   S    
C49   C50   D    
Ba2   O6    S    
C41   H29   S    
C30   P6    S    
C17   C20   A    
C13   C39   A    
C56   H13   S    
C7    H21   S    
C3    C5    S    
C18   C37   A    
C6    C7    D    
C62   O12   S    
C49   H36   S    
C12   H46   S    
C43   H32   S    
Ba2   O4    S    
C4    H19   S    
C21   H25   S    
O22   S1    D    
C58   C59   D    
O9    P8    S    
C9    C36   A    
C41   C42   A    
C16   H38   S    
C63   H44   S    
C35   C36   A    
C1    S2    S    
C34   H7    S    
Ba2   O43   S    
C29   C30   S    
O35   S4    S    
C12   O18   S    
C48   C49   S    
C24   C25   A    
O2    P5    D    
C10   C11   A    
O7    P7    S    
C16   H49   S    
H42   O25   S    
C56   H11   S    
H53   O35   S    
C53   C60   A    
C46   C47   S    
C55   H39   S    
C29   H24   S    
C12   H1    S    
C54   C60   A    
Ba1   O15   S    
Ba2   P4    S    
C38   H27   S    
H51   O31   S    
O26   S2    D    
C3    H28   S    
Ba1   O5    S    
O30   S3    D    
C52   H56   S    
C28   H59   S    
C5    C14   S    
C65   H18   S    
C39   C43   A    
C59   H35   S    
C18   C19   A    
Ba2   O5    S    
C61   H60   S    
O37   S5    D    
C14   S4    S    
C9    C10   A    
C8    N1    S    
O43   P5    S    
C1    C12   S    
C63   H4    S    
C32   H31   S    
C26   O14   D    
C5    P8    S    
H47   O28   S    
C1    H48   S    
O17   P1    S    
C48   C58   S    
C62   C63   S    
O27   S2    D    
C2    C13   A    
C3    C8    D    
C63   H3    S    
Ba2   O42   S    
C45   C56   S    
C6    P4    S    
C60   H41   S    
C54   P7    S    
C2    O13   D    
Ba1   O39   S    
C39   S3    S    
Ba1   O19   S    
C29   C33   D    
C61   H61   S    
O20   P3    S    
O6    P7    D    
O1    P1    D    
C18   C41   A    
C55   C57   A    
C23   C34   S    
C64   H16   S    
C62   S1    S    
C51   H37   S    
C22   C27   A    
O5    P2    S    
O12   P2    S    
C6    C14   D    
C47   C48   D    
O38   S5    S    
C25   C26   A    
C15   C30   S    
C42   H52   S    
C20   C21   A    
C28   C40   S    
O34   P4    D    
C45   H10   S    
C26   N2    Am   
Ba1   P2    S    
C33   N2    S    
C52   O17   S    
C40   H23   S    
Ba2   O40   S    
C17   C19   A    
O29   S3    D    
C27   O11   D    
