data_mof_unit_64173.cif
_audit_creation_date              2012-12-11T16:00:38-0500
_audit_creation_method            fapswitch 2.2
_symmetry_space_group_name_H-M    P1
_symmetry_Int_Tables_number       1
_space_group_crystal_system       triclinic
_cell_length_a                    6.964668
_cell_length_b                    17.268617
_cell_length_c                    18.596577
_cell_angle_alpha                 107.175023
_cell_angle_beta                  90.70052
_cell_angle_gamma                 90.866468
_cell_volume                      2136.30631106

loop_
_atom_site_label
_atom_site_type_symbol
_atom_type_description
_atom_site_fract_x
_atom_site_fract_y
_atom_site_fract_z
_atom_type_partial_charge
O1    O     O_R   0.505810 0.442350 0.559500 -0.524660
O2    O     O_R   0.167990 0.405060 0.411070 -0.546628
O3    O     O_R   0.005550 0.557650 0.440500 -0.522472
C1    C     C_R   0.337074 0.381568 0.382756 0.645680
O4    O     O_R   0.175580 0.432840 0.557140 -0.529710
O5    O     O_R   0.013190 0.585620 0.587600 -0.515691
C2    C     C_R   0.344672 0.415988 0.580628 0.736158
O6    O     O_R   0.498170 0.414380 0.412400 -0.546830
O7    O     O_3   0.341790 0.550090 0.509830 -0.327733
V1    V     V_3+5 0.063870 0.490710 0.498180 1.477446
O8    O     O_R   0.683930 0.594940 0.588930 -0.500428
C3    C     C_R   0.855180 0.617734 0.617175 0.814085
O9    O     O_R   0.676340 0.567160 0.442860 -0.526120
C4    C     C_R   0.845078 0.584147 0.419494 0.720958
V2    V     V_3+5 0.564820 0.509290 0.501820 1.529107
O10   O     O_3   0.836770 0.449910 0.490170 -0.384137
C5    C     C_1   0.855985 0.636222 0.367492 -0.171245
C6    C     C_1   0.867309 0.678793 0.323932 0.023317
C7    C     C_1   0.881945 0.728946 0.272019 0.015354
C8    C     C_1   0.894543 0.771162 0.228181 0.010321
C9    C     C_1   0.909191 0.821293 0.176249 0.005997
C10   C     C_1   0.920545 0.863826 0.132654 -0.206231
C11   C     C_3   0.789585 0.812527 0.740924 0.349295
C12   C     C_3   0.960520 0.772007 0.693688 0.375582
C13   C     C_3   0.873419 0.687713 0.688038 -0.245869
C14   C     C_3   0.703523 0.728233 0.735616 0.365986
C15   C     C_3   0.811685 0.728028 0.808818 -0.280751
C16   C     C_3   0.982630 0.688142 0.760692 -0.084708
C17   C     C_3   0.072833 0.772393 0.766324 -0.129775
C18   C     C_3   0.900447 0.812115 0.813105 -0.251978
H1    H     H_    0.749598 0.710301 0.856498 0.159642
H2    H     H_    0.219305 0.797279 0.783376 0.218505
C19   C     C_3   0.556917 0.283531 0.278964 -0.101977
C20   C     C_3   0.496385 0.193944 0.267357 -0.142923
H3    H     H_    0.587154 0.148123 0.281673 0.107748
H4    H     H_    0.697840 0.310926 0.302652 0.111287
C21   C     C_3   0.420110 0.189203 0.188151 -0.009453
C22   C     C_3   0.479889 0.278111 0.199107 -0.150127
C23   C     C_3   0.280590 0.306169 0.232575 -0.148233
C24   C     C_3   0.220059 0.216582 0.220968 -0.100718
C25   C     C_3   0.297088 0.222001 0.300824 -0.144970
C26   C     C_3   0.356865 0.310909 0.311781 -0.007109
H5    H     H_    0.557003 0.301235 0.157524 0.102491
H6    H     H_    0.189821 0.351991 0.218261 0.100833
H7    H     H_    0.079133 0.189188 0.197282 0.113826
H8    H     H_    0.219974 0.198876 0.342407 0.109497
C27   C     C_1   0.355328 0.363988 0.632711 -0.190363
C28   C     C_1   0.366919 0.321436 0.676283 0.023803
C29   C     C_1   0.382151 0.271233 0.728144 0.020590
C30   C     C_1   0.395304 0.228947 0.771907 0.024813
C31   C     C_1   0.410521 0.178729 0.823755 0.034965
C32   C     C_1   0.422070 0.136151 0.867308 -0.171700
O11   O     O_R   0.278780 0.085730 0.087540 -0.541340
O12   O     O_R   0.601620 0.067180 0.942850 -0.519368
O13   O     O_R   0.763750 0.914350 0.912410 -0.517083
C33   C     C_R   0.432592 0.084109 0.919359 0.752796
O14   O     O_R   0.608970 0.094960 0.088920 -0.543040
O15   O     O_R   0.771150 0.942330 0.059520 -0.526235
C34   C     C_R   0.439886 0.118518 0.117193 0.658527
O16   O     O_R   0.271380 0.057750 0.940430 -0.521893
O17   O     O_3   0.435070 0.949970 0.990140 -0.356686
V3    V     V_3+5 0.713090 0.009280 0.001830 1.454481
O18   O     O_R   0.100340 0.932730 0.057200 -0.528013
C35   C     C_R   0.931559 0.915841 0.080597 0.699530
O19   O     O_R   0.092990 0.904950 0.911140 -0.538551
C36   C     C_R   0.921270 0.882063 0.883233 0.799371
V4    V     V_3+5 0.212100 0.990570 0.998260 1.451296
O20   O     O_3   0.940260 0.050030 0.009860 -0.369335
Cl1   Cl    Cl    0.061022 0.800778 0.617556 -0.502451
Cl2   Cl    Cl    0.657505 0.895227 0.728229 -0.533467
Cl3   Cl    Cl    0.465257 0.692566 0.711761 -0.625200
C37   C     C_1   0.084816 0.618902 0.772036 0.423749
N1    N     N_1   0.165261 0.564201 0.780890 -0.351839

loop_
_geom_bond_atom_site_label_1
_geom_bond_atom_site_label_2
_ccdc_geom_bond_type
O15   V3    S    
C20   C21   S    
C25   C26   S    
C7    C8    T    
C4    C5    S    
C1    O6    A    
O11   C34   A    
O14   V3    S    
C13   C16   S    
C14   C15   S    
C21   C22   S    
C19   C26   S    
C16   C17   S    
C20   H3    S    
C17   H2    S    
O5    C3    A    
C22   C23   S    
O14   C34   A    
V2    O10   S    
O13   V3    S    
C19   H4    S    
C6    C7    S    
C11   C14   S    
C12   C17   S    
O8    V2    S    
O16   V4    S    
O19   V4    S    
C25   H8    S    
O1    V2    S    
O7    V1    S    
C9    C10   T    
C15   C18   S    
C14   Cl3   S    
C11   Cl2   S    
C16   C37   S    
C20   C25   S    
C12   Cl1   S    
C19   C20   S    
C23   C26   S    
O12   C33   A    
O15   C35   A    
C24   H7    S    
O18   V4    S    
C15   H1    S    
V4    O20   S    
C11   C18   S    
C12   C13   S    
C23   C24   S    
O4    C2    A    
O12   V3    S    
C30   C31   S    
C13   C14   S    
C31   C32   T    
C2    C27   S    
O2    C1    A    
C17   C18   S    
O17   V4    S    
C27   C28   T    
C11   C12   S    
C5    C6    T    
C18   C36   S    
C21   C34   S    
O3    C4    A    
C28   C29   S    
O19   C36   A    
O6    V2    S    
O9    V2    S    
O2    V1    S    
O13   C36   A    
C24   C25   S    
O1    C2    A    
C37   N1    T    
O5    V1    S    
O8    C3    A    
C23   H6    S    
C21   C24   S    
C19   C22   S    
V3    O20   S    
C3    C13   S    
O7    V2    S    
C22   H5    S    
O3    V1    S    
V1    O10   S    
C1    C26   S    
O17   V3    S    
O11   V4    S    
C10   C35   S    
O18   C35   A    
C33   O16   A    
O4    V1    S    
C8    C9    S    
C29   C30   T    
C15   C16   S    
O9    C4    A    
C32   C33   S    
