data_mof_unit_16403.cif
_audit_creation_date              2012-12-10T17:02:04-0500
_audit_creation_method            fapswitch 2.2
_symmetry_space_group_name_H-M    P1
_symmetry_Int_Tables_number       1
_space_group_crystal_system       triclinic
_cell_length_a                    10.763102
_cell_length_b                    10.983839
_cell_length_c                    9.930367
_cell_angle_alpha                 110.504022
_cell_angle_beta                  98.325092
_cell_angle_gamma                 92.930486
_cell_volume                      1081.42014066

loop_
_atom_site_label
_atom_site_type_symbol
_atom_type_description
_atom_site_fract_x
_atom_site_fract_y
_atom_site_fract_z
_atom_type_partial_charge
C1    C     C_R   0.487541 0.254110 0.441294 0.867459
C2    C     C_R   0.085615 0.622097 0.602610 0.094056
C3    C     C_R   0.130127 0.512517 0.504251 -0.095152
C4    C     C_R   0.046213 0.409446 0.402583 -0.203825
C5    C     C_R   0.917949 0.410119 0.401174 -0.202366
C6    C     C_R   0.871763 0.513883 0.501440 -0.098144
C7    C     C_2   0.470027 0.114123 0.410440 -0.364958
C8    C     C_2   0.478699 0.070345 0.520639 -0.152403
C9    C     C_2   0.509050 0.885489 0.593558 -0.354745
C10   C     C_2   0.461407 0.931240 0.491858 -0.160478
C11   C     C_2   0.509680 0.516380 0.081898 0.224200
C12   C     C_R   0.263217 0.503772 0.501514 0.781586
C13   C     C_2   0.483770 0.494952 0.921294 -0.067817
C14   C     C_R   0.506914 0.745595 0.559231 0.829621
C15   C     C_R   0.737365 0.504632 0.500445 0.776880
C16   C     C_R   0.168023 0.732550 0.698522 -0.174626
C17   C     C_R   0.121031 0.840132 0.792083 -0.136979
C18   C     C_R   0.991644 0.840872 0.790423 -0.138514
C19   C     C_R   0.908433 0.734004 0.695243 -0.184410
C20   C     C_R   0.954054 0.622824 0.601021 0.095813
Cu1   Cu    Cu3+1 0.521920 0.521810 0.644910 0.926547
Cu2   Cu    Cu3+1 0.478080 0.478190 0.355090 0.926750
H1    H     H_    0.080540 0.326615 0.325811 0.147023
H2    H     H_    0.448115 0.046685 0.297691 0.152627
H3    H     H_    0.400895 0.430815 0.853124 0.139937
H4    H     H_    0.641210 0.602943 0.918987 0.211300
H5    H     H_    0.377255 0.373501 0.065531 0.168774
H6    H     H_    0.955432 0.925325 0.861890 0.131748
H7    H     H_    0.413829 0.865548 0.385177 0.186042
H8    H     H_    0.503613 0.137086 0.633550 0.182131
N1    N     N_2   0.445130 0.445430 0.137370 -0.307500
N2    N     N_2   0.554930 0.554500 0.862630 -0.289718
O1    O     O_R   0.511700 0.332330 0.577400 -0.572017
O2    O     O_R   0.474680 0.295500 0.332650 -0.574745
O3    O     O_R   0.338160 0.518420 0.622400 -0.580905
O4    O     O_R   0.301140 0.481590 0.377650 -0.568053
O5    O     O_R   0.525320 0.704500 0.667350 -0.585933
O6    O     O_R   0.488300 0.667670 0.422600 -0.575441
O7    O     O_R   0.698860 0.518410 0.622350 -0.574302
O8    O     O_R   0.661840 0.481580 0.377600 -0.600597
C21   C     C_3   0.612259 0.628067 0.175057 -0.277721
C22   C     C_3   0.575578 0.761850 0.176716 -0.861162
H9    H     H_    0.604909 0.785547 0.085543 0.237019
H10   H     H_    0.471905 0.764232 0.168179 0.253767
H11   H     H_    0.623702 0.840102 0.279344 0.246444
H12   H     H_    0.638588 0.637254 0.287473 0.254094
H13   H     H_    0.703215 0.609536 0.135371 0.142735
H14   H     H_    0.268812 0.738372 0.700684 0.153637
H15   H     H_    0.185213 0.923995 0.864872 0.132630
H16   H     H_    0.808525 0.740893 0.694555 0.141276
H17   H     H_    0.854450 0.327591 0.323851 0.151026
H18   H     H_    0.552680 0.951714 0.702242 0.147390

loop_
_geom_bond_atom_site_label_1
_geom_bond_atom_site_label_2
_ccdc_geom_bond_type
C21   H12   S    
C18   H6    S    
H4    N2    S    
Cu1   O3    S    
C7    H2    S    
C12   O4    A    
C2    C16   A    
C21   C22   S    
C13   N2    D    
C19   C20   A    
Cu1   O7    S    
C9    C14   S    
Cu2   O8    S    
C8    H8    S    
C16   H14   S    
C2    C3    A    
C21   H13   S    
C11   N1    D    
C7    C8    D    
Cu1   Cu2   S    
C14   O5    A    
C11   C13   S    
C19   H16   S    
C15   O7    A    
C16   C17   A    
C9    H18   S    
C22   H10   S    
C1    O2    A    
C17   C18   A    
H5    N1    S    
C5    C6    A    
Cu2   O2    S    
Cu1   N2    S    
C12   O3    A    
C15   O8    A    
Cu1   O1    S    
Cu2   N1    S    
C1    O1    A    
C14   O6    A    
Cu2   O6    S    
C10   H7    S    
C6    C20   A    
Cu1   O5    S    
C8    C10   S    
C18   C19   A    
C9    C10   D    
C11   C21   S    
C17   H15   S    
C4    H1    S    
C5    H17   S    
C3    C12   S    
C6    C15   S    
C1    C7    S    
C2    C20   A    
Cu2   O4    S    
C3    C4    A    
C22   H9    S    
C4    C5    A    
C13   H3    S    
C22   H11   S    
