data_mof_unit_10978.cif
_audit_creation_date              2012-12-10T17:16:40-0500
_audit_creation_method            fapswitch 2.2
_symmetry_space_group_name_H-M    P1
_symmetry_Int_Tables_number       1
_space_group_crystal_system       triclinic
_cell_length_a                    10.216357
_cell_length_b                    10.642965
_cell_length_c                    10.735451
_cell_angle_alpha                 90.494419
_cell_angle_beta                  96.142981
_cell_angle_gamma                 77.524885
_cell_volume                      1133.06020501

loop_
_atom_site_label
_atom_site_type_symbol
_atom_type_description
_atom_site_fract_x
_atom_site_fract_y
_atom_site_fract_z
_atom_type_partial_charge
C1    C     C_R   0.442599 0.512887 0.266540 0.862427
C2    C     C_R   0.556829 0.495192 0.733522 0.873820
C3    C     C_2   0.407439 0.536488 0.133235 -0.177733
C4    C     C_2   0.589249 0.507171 0.867117 -0.193942
C5    C     C_2   0.503322 0.562198 0.067605 -0.212519
C6    C     C_2   0.488326 0.563772 0.932636 -0.241341
C7    C     C_2   0.073516 0.491322 0.489555 -0.109032
C8    C     C_2   0.926191 0.509543 0.509650 -0.112947
C9    C     C_R   0.507065 0.259077 0.506599 0.883393
C10   C     C_R   0.493099 0.741046 0.493719 0.873755
C11   C     C_R   0.636894 0.085545 0.719508 -0.067600
C12   C     C_R   0.366983 0.914289 0.279107 -0.067628
C13   C     C_R   0.650824 0.017091 0.832375 -0.139215
C14   C     C_R   0.355439 0.982253 0.166074 -0.138571
C15   C     C_R   0.602230 0.905357 0.837679 0.149207
C16   C     C_R   0.404047 0.094187 0.161662 0.146708
C17   C     C_R   0.546205 0.857533 0.727645 -0.206550
C18   C     C_R   0.457346 0.142575 0.272473 -0.207029
C19   C     C_R   0.528732 0.926819 0.612834 0.056399
C20   C     C_R   0.473242 0.073304 0.387129 0.056798
C21   C     C_R   0.561785 0.047630 0.611192 0.022371
C22   C     C_R   0.440367 0.952401 0.388407 0.021730
C23   C     C_R   0.479643 0.877019 0.499577 -0.156481
C24   C     C_R   0.521093 0.123230 0.500540 -0.159464
H1    H     H_    0.705921 0.046935 0.915391 0.154074
H2    H     H_    0.301983 0.952016 0.082280 0.153320
H3    H     H_    0.514120 0.767606 0.733334 0.133178
H4    H     H_    0.488838 0.232969 0.267346 0.136619
H5    H     H_    0.387939 0.603121 0.886416 0.203225
H6    H     H_    0.601317 0.569957 0.113637 0.198401
H7    H     H_    0.885951 0.577821 0.578824 0.169781
H8    H     H_    0.113413 0.424086 0.419417 0.168576
N1    N     N_2   0.157300 0.551390 0.551120 -0.136352
N2    N     N_2   0.842700 0.448610 0.448880 -0.138913
O1    O     O_R   0.568940 0.489660 0.307530 -0.619777
O2    O     O_R   0.431060 0.510340 0.692470 -0.617408
O3    O     O_R   0.348880 0.522640 0.340350 -0.597059
O4    O     O_R   0.651120 0.477360 0.659650 -0.598274
O5    O     O_R   0.610030 0.300280 0.483580 -0.609963
O6    O     O_R   0.389970 0.699720 0.516420 -0.613186
O7    O     O_R   0.389970 0.333270 0.516400 -0.605107
O8    O     O_R   0.610030 0.666730 0.483600 -0.609915
Zn1   Zn    Zn3+2 0.646940 0.477980 0.478080 0.969936
Zn2   Zn    Zn3+2 0.353060 0.522020 0.521920 0.972212
N3    N     N_3   0.391601 0.162285 0.045245 -0.445404
H9    H     H_    0.331624 0.253912 0.054977 0.199305
H10   H     H_    0.487505 0.173598 0.028941 0.191311
N4    N     N_3   0.617413 0.837164 0.954273 -0.451395
H11   H     H_    0.676746 0.745381 0.943650 0.199107
H12   H     H_    0.521965 0.827025 0.973224 0.196979
C25   C     C_1   0.728252 0.170565 0.712325 0.175041
N5    N     N_1   0.805634 0.234862 0.707702 -0.150835
C26   C     C_1   0.274738 0.829974 0.285134 0.174341
N6    N     N_1   0.196658 0.766251 0.288740 -0.155827
C27   C     C_1   0.725022 0.455556 0.924815 0.190461
N7    N     N_1   0.833398 0.414445 0.970900 -0.169482
C28   C     C_1   0.274292 0.528703 0.076093 0.183654
N8    N     N_1   0.167967 0.522595 0.030560 -0.176880
C29   C     C_1   0.888367 0.359387 0.359054 0.316419
N9    N     N_1   0.925985 0.285155 0.284307 -0.224121
C30   C     C_1   0.112463 0.638255 0.643140 0.312312
N10   N     N_1   0.075573 0.710497 0.719742 -0.234907

loop_
_geom_bond_atom_site_label_1
_geom_bond_atom_site_label_2
_ccdc_geom_bond_type
C16   N3    S    
C19   C23   A    
C27   N7    T    
C9    C24   S    
C7    C8    S    
C10   C23   S    
C10   O8    A    
O1    Zn1   S    
C2    O4    A    
O6    Zn2   S    
C2    C4    S    
C12   C26   S    
C1    O3    A    
C3    C5    D    
O3    Zn2   S    
N4    H12   S    
C29   N9    T    
C16   C18   A    
C8    N2    D    
N3    H9    S    
C14   H2    S    
C11   C13   A    
C13   H1    S    
C28   N8    T    
N2    C29   S    
C15   N4    S    
C5    C6    S    
C3    C28   S    
C10   O6    A    
N4    H11   S    
C19   C21   A    
C12   C14   A    
C18   C20   A    
C13   C15   A    
C4    C27   S    
C30   N10   T    
O7    Zn2   S    
C14   C16   A    
C21   C24   A    
O2    Zn2   S    
C4    C6    D    
C11   C25   S    
O8    Zn1   S    
C7    N1    D    
N1    Zn2   S    
C25   N5    T    
C17   H3    S    
C12   C22   A    
O4    Zn1   S    
C6    H5    S    
C18   H4    S    
C1    O1    A    
N1    C30   S    
C5    H6    S    
N3    H10   S    
C2    O2    A    
C15   C17   A    
C22   C23   A    
O5    Zn1   S    
C7    H8    S    
C17   C19   A    
C26   N6    T    
C8    H7    S    
C9    O7    A    
C11   C21   A    
C9    O5    A    
N2    Zn1   S    
C20   C24   A    
C20   C22   A    
C1    C3    S    
