data_mof_unit_18112.cif
_audit_creation_date              2012-12-11T15:52:20-0500
_audit_creation_method            fapswitch 2.2
_symmetry_space_group_name_H-M    P1
_symmetry_Int_Tables_number       1
_space_group_crystal_system       triclinic
_cell_length_a                    11.137742
_cell_length_b                    11.162315
_cell_length_c                    18.671511
_cell_angle_alpha                 89.495065
_cell_angle_beta                  89.630184
_cell_angle_gamma                 120.323079
_cell_volume                      2003.48874791

loop_
_atom_site_label
_atom_site_type_symbol
_atom_type_description
_atom_site_fract_x
_atom_site_fract_y
_atom_site_fract_z
_atom_type_partial_charge
C1    C     C_R   0.524492 0.451278 0.144352 0.550007
C2    C     C_3   0.999090 0.725290 0.455973 0.184105
C3    C     C_3   0.694033 0.935038 0.441449 0.166356
C4    C     C_3   0.265748 0.217894 0.485254 0.148654
C5    C     C_R   0.543482 0.418691 0.361886 0.547603
C6    C     C_R   0.541165 0.058277 0.352378 0.510692
C7    C     C_R   0.876893 0.453478 0.360979 0.557521
C8    C     C_R   0.459368 0.515154 0.648909 0.529131
C9    C     C_R   0.063534 0.544756 0.646064 0.533251
C10   C     C_R   0.453146 0.874177 0.639318 0.585503
C11   C     C_R   0.493951 0.989226 0.924058 0.013056
C12   C     C_R   0.545862 0.066490 0.146574 0.540923
C13   C     C_R   0.991810 0.492821 0.920732 0.013288
C14   C     C_R   0.506348 0.497144 0.919835 0.012758
C15   C     C_R   0.957371 0.487256 0.069092 0.018485
C16   C     C_R   0.524360 0.024979 0.072641 0.024477
C17   C     C_R   0.518612 0.469329 0.067973 0.022694
C18   C     C_R   0.379661 0.919957 0.971105 0.023052
C19   C     C_R   0.022165 0.408951 0.964535 0.005298
C20   C     C_R   0.595554 0.611489 0.961734 0.005331
C21   C     C_R   0.003028 0.404612 0.037752 0.001109
C22   C     C_R   0.394236 0.936481 0.044199 -0.014780
C23   C     C_R   0.929185 0.477668 0.145024 0.545465
C24   C     C_R   0.602670 0.597262 0.034819 -0.004117
C25   C     C_R   0.641838 0.085184 0.026386 -0.142413
C26   C     C_R   0.905477 0.553269 0.024715 -0.154515
C27   C     C_R   0.448838 0.350829 0.024836 -0.144432
C28   C     C_R   0.920921 0.554506 0.950671 -0.169535
C29   C     C_R   0.626770 0.067442 0.952802 -0.167173
C30   C     C_R   0.442819 0.364423 0.950980 -0.164449
C31   C     C_3   0.243064 0.915062 0.973124 -0.259326
C32   C     C_3   0.154490 0.406228 0.972315 -0.237084
C33   C     C_3   0.603829 0.748705 0.969981 -0.235779
C34   C     C_R   0.458037 0.519476 0.851985 0.536083
C35   C     C_3   0.132133 0.400279 0.052653 -0.282775
C36   C     C_3   0.256910 0.927142 0.054119 -0.287123
C37   C     C_3   0.612971 0.732849 0.050087 -0.286177
C38   C     C_R   0.460531 0.904252 0.563496 0.036714
C39   C     C_R   0.988125 0.501938 0.579394 -0.024287
C40   C     C_R   0.505992 0.470937 0.586896 -0.016311
C41   C     C_R   0.910072 0.462992 0.435692 0.024693
C42   C     C_R   0.489229 0.975537 0.417691 0.003122
C43   C     C_R   0.527744 0.428938 0.439937 0.013378
C44   C     C_R   0.536671 0.868566 0.518122 0.013133
C45   C     C_R   0.061533 0.541374 0.852145 0.545921
C46   C     C_R   0.948153 0.588620 0.544942 0.010789
C47   C     C_R   0.417268 0.340910 0.556598 0.025066
C48   C     C_R   0.918770 0.573233 0.473475 -0.005365
C49   C     C_R   0.545708 0.897788 0.445087 0.034494
C50   C     C_R   0.424427 0.319190 0.484340 -0.004511
C51   C     C_R   0.408475 0.004922 0.462664 -0.118437
C52   C     C_R   0.929945 0.364069 0.471866 -0.098536
C53   C     C_R   0.631644 0.545406 0.474847 -0.135721
C54   C     C_R   0.975518 0.387410 0.542335 -0.114397
C55   C     C_R   0.393191 0.969806 0.534668 -0.154763
C56   C     C_R   0.479459 0.937320 0.852189 0.545087
C57   C     C_R   0.622827 0.564425 0.547984 -0.162764
C58   C     C_3   0.845134 0.053779 0.611028 0.001505
C59   C     C_3   0.856023 0.151468 0.671021 -0.348464
C60   C     C_3   0.983104 0.838503 0.636594 0.000743
C61   C     C_3   0.873920 0.731561 0.688385 -0.376511
C62   C     C_3   0.246983 0.166146 0.684688 -0.017231
C63   C     C_3   0.206361 0.054011 0.742149 -0.410740
C64   C     C_3   0.135690 0.841390 0.354476 0.024345
C65   C     C_3   0.209559 0.810190 0.294763 -0.315439
C66   C     C_3   0.708304 0.836637 0.333028 -0.006467
C67   C     C_3   0.688949 0.920207 0.521964 0.175047
C68   C     C_3   0.561289 0.748647 0.304003 -0.318052
C69   C     C_3   0.162182 0.211856 0.376646 0.012407
C70   C     C_3   0.011470 0.104449 0.369583 -0.415315
C71   C     C_3   0.024578 0.744250 0.535483 0.182920
C72   C     C_3   0.263511 0.242482 0.565550 0.170904
Cr1   Cr    Cr6+3 0.769160 0.541570 0.250690 0.957128
Cr2   Cr    Cr6+3 0.458430 0.227590 0.250690 0.950744
Cr3   Cr    Cr6+3 0.772410 0.230840 0.250690 0.966184
Cr4   Cr    Cr6+3 0.541570 0.769160 0.749310 0.962028
Cr5   Cr    Cr6+3 0.227590 0.458430 0.749310 0.952233
Cr6   Cr    Cr6+3 0.230840 0.772410 0.749310 0.952334
H1    H     H_    0.745482 0.151181 0.046732 0.151490
H2    H     H_    0.109272 0.299856 0.077377 0.140534
H3    H     H_    0.263927 0.022705 0.075441 0.141859
H4    H     H_    0.715830 0.809165 0.072201 0.138256
H5    H     H_    0.247935 0.007008 0.946570 0.122016
H6    H     H_    0.145844 0.309719 0.950741 0.146300
H7    H     H_    0.700722 0.835459 0.945889 0.148677
H8    H     H_    0.212371 0.494385 0.080392 0.130625
H9    H     H_    0.181185 0.830119 0.083001 0.140755
H10   H     H_    0.521414 0.721484 0.080443 0.129016
H11   H     H_    0.373796 0.071206 0.442859 0.111899
H12   H     H_    0.857432 0.608124 0.047223 0.150831
H13   H     H_    0.922430 0.276228 0.444551 0.159640
H14   H     H_    0.716285 0.625400 0.444539 0.183612
H15   H     H_    0.011499 0.322814 0.565361 0.149756
H16   H     H_    0.337421 0.002729 0.568517 0.189473
H17   H     H_    0.699913 0.656729 0.572967 0.174335
H18   H     H_    0.714262 0.841866 0.540203 0.142576
H19   H     H_    0.135979 0.796020 0.548723 0.147802
H20   H     H_    0.198575 0.289888 0.576657 0.161323
H21   H     H_    0.935501 0.769771 0.436299 0.132770
H22   H     H_    0.768657 0.042053 0.424625 0.147064
H23   H     H_    0.394202 0.248109 0.048368 0.139075
H24   H     H_    0.222132 0.104926 0.478489 0.124113
H25   H     H_    0.949728 0.089663 0.587371 0.150692
H26   H     H_    0.805007 0.950630 0.637123 0.139518
H27   H     H_    0.820161 0.223214 0.653314 0.186282
H28   H     H_    0.792416 0.092431 0.718465 0.156582
H29   H     H_    0.964944 0.211645 0.689263 0.096223
H30   H     H_    0.988998 0.937781 0.645576 0.149358
H31   H     H_    0.088702 0.861356 0.649343 0.201113
H32   H     H_    0.837958 0.624017 0.671064 0.173439
H33   H     H_    0.918287 0.745221 0.742777 0.120851
H34   H     H_    0.890957 0.615670 0.918029 0.130804
H35   H     H_    0.783510 0.746919 0.691888 0.135014
H36   H     H_    0.177420 0.207862 0.696998 0.168873
H37   H     H_    0.359071 0.238930 0.694833 0.184486
H38   H     H_    0.252638 0.104339 0.793832 0.105515
H39   H     H_    0.092622 0.994306 0.751950 0.078672
H40   H     H_    0.247032 0.985957 0.729911 0.217888
H41   H     H_    0.198385 0.951776 0.367859 0.113662
H42   H     H_    0.035760 0.824937 0.332626 0.118259
H43   H     H_    0.303368 0.812613 0.315514 0.149094
H44   H     H_    0.141100 0.705863 0.272444 0.182658
H45   H     H_    0.718619 0.113499 0.918547 0.128993
H46   H     H_    0.239992 0.888223 0.250810 0.102124
H47   H     H_    0.772768 0.794276 0.312309 0.152818
H48   H     H_    0.757179 0.943472 0.310790 0.142588
H49   H     H_    0.498337 0.655759 0.338576 0.200065
H50   H     H_    0.508888 0.810193 0.301423 0.116339
H51   H     H_    0.566115 0.714975 0.248790 0.117005
H52   H     H_    0.218873 0.157746 0.361664 0.140606
H53   H     H_    0.187698 0.296111 0.336752 0.191460
H54   H     H_    0.952185 0.157003 0.357540 0.153370
H55   H     H_    0.999120 0.036913 0.323576 0.055965
H56   H     H_    0.377987 0.273052 0.919769 0.120381
H57   H     H_    0.974598 0.039677 0.419140 0.192497
H58   H     H_    0.156485 0.813444 0.955795 0.165721
H59   H     H_    0.247459 0.504501 0.953852 0.152840
H60   H     H_    0.505970 0.744833 0.954205 0.154300
O1    O     O_R   0.911480 0.572650 0.170990 -0.541824
O2    O     O_R   0.528970 0.640340 0.824320 -0.504921
O3    O     O_R   0.111370 0.471030 0.824320 -0.501313
O4    O     O_R   0.359660 0.888630 0.824320 -0.508150
O5    O     O_R   0.909980 0.572450 0.331530 -0.523939
O6    O     O_R   0.427550 0.337530 0.331530 -0.538720
O7    O     O_R   0.662470 0.090020 0.331530 -0.562334
O8    O     O_R   0.572450 0.909980 0.668470 -0.505372
O9    O     O_R   0.337530 0.427550 0.668470 -0.570309
O10   O     O_R   0.090020 0.662470 0.668470 -0.558158
O11   O     O_R   0.638950 0.528780 0.324500 -0.524713
O12   O     O_R   0.427350 0.338830 0.170990 -0.530789
O13   O     O_R   0.471220 0.110170 0.324500 -0.534495
O14   O     O_R   0.889830 0.361050 0.324500 -0.513933
O15   O     O_R   0.528780 0.638950 0.675500 -0.532184
O16   O     O_R   0.110170 0.471220 0.675500 -0.519248
O17   O     O_R   0.361050 0.889830 0.675500 -0.541514
O18   O     O_3   0.666667 0.333333 0.250560 -0.277161
O19   O     O_3   0.333333 0.666667 0.749440 -0.256713
O20   O     O_3   0.757811 0.051607 0.555873 -0.577819
O21   O     O_3   0.948529 0.802879 0.564592 -0.621033
O22   O     O_3   0.231661 0.125264 0.611376 -0.634772
O23   O     O_R   0.661170 0.088520 0.170990 -0.532750
O24   O     O_3   0.121910 0.760122 0.416251 -0.560789
O25   O     O_3   0.709921 0.829870 0.408787 -0.621439
O26   O     O_3   0.192588 0.269705 0.446118 -0.576906
O27   O     O_R   0.572650 0.911480 0.829010 -0.536785
O28   O     O_R   0.338830 0.427350 0.829010 -0.541195
O29   O     O_R   0.088520 0.661170 0.829010 -0.535513
O30   O     O_R   0.640340 0.528970 0.175680 -0.504266
O31   O     O_R   0.471030 0.111370 0.175680 -0.511043
O32   O     O_R   0.888630 0.359660 0.175680 -0.492523

loop_
_geom_bond_atom_site_label_1
_geom_bond_atom_site_label_2
_ccdc_geom_bond_type
C44   C49   A    
C40   C47   A    
C66   C68   S    
C11   C18   A    
Cr4   O15   S    
C37   H10   S    
C69   O26   S    
C2    O24   S    
C7    O5    A    
C3    C49   S    
C5    O11   A    
C72   H20   S    
C28   H34   S    
C71   H19   S    
Cr6   O29   S    
C59   H27   S    
C64   H41   S    
C23   O1    A    
C19   C21   A    
C62   H36   S    
C55   H16   S    
C63   H39   S    
C35   H8    S    
Cr6   O17   S    
C39   C54   A    
C19   C32   S    
C35   H2    S    
C9    C39   S    
C31   H5    S    
C20   C33   S    
C65   H46   S    
C33   H7    S    
Cr2   O31   S    
Cr2   O6    S    
C60   H31   S    
C12   O23   A    
Cr3   O18   S    
C43   C53   A    
C38   C55   A    
C20   C24   A    
C60   O21   S    
C69   H52   S    
C30   H56   S    
C4    H24   S    
C56   O27   A    
C52   H13   S    
C70   H55   S    
C4    O26   S    
C13   C28   A    
C65   H43   S    
Cr5   O9    S    
C41   C52   A    
C60   H30   S    
C3    O25   S    
C42   C51   A    
C56   O4    A    
C15   C23   S    
C5    C43   S    
Cr4   O8    S    
C18   C22   A    
C27   C30   A    
C45   O3    A    
C69   C70   S    
C14   C30   A    
Cr1   O30   S    
C61   H32   S    
C3    H22   S    
C52   C54   A    
C47   C50   A    
Cr5   O3    S    
Cr4   O2    S    
C36   H9    S    
C25   C29   A    
C32   H6    S    
C46   C48   A    
Cr4   O19   S    
C17   C24   A    
C13   C19   A    
C17   C27   A    
C32   C35   S    
C12   C16   S    
C1    O12   A    
C58   H25   S    
C64   O24   S    
C58   O20   S    
C63   H40   S    
C53   C57   A    
C15   C26   A    
Cr1   O1    S    
C1    O30   A    
C2    C48   S    
Cr5   O28   S    
C27   H23   S    
C59   H29   S    
C66   H48   S    
C4    C50   S    
C60   C61   S    
C38   C44   A    
C62   C63   S    
C14   C20   A    
Cr5   O16   S    
Cr6   O19   S    
C36   H3    S    
C69   H53   S    
C53   H14   S    
C70   H54   S    
C24   C37   S    
Cr2   O18   S    
Cr4   O27   S    
C65   H44   S    
C8    O15   A    
C45   O29   A    
C68   H49   S    
C46   C71   S    
Cr3   O32   S    
C10   O8    A    
C39   C46   A    
C6    O13   A    
C9    O16   A    
C57   H17   S    
C67   H18   S    
C62   O22   S    
C37   H4    S    
C8    O9    A    
C58   H26   S    
C63   H38   S    
C2    C71   S    
C61   H33   S    
C4    C72   S    
C22   C36   S    
Cr1   O5    S    
C16   C25   A    
C6    O7    A    
Cr3   O7    S    
C68   H50   S    
C16   C22   A    
C40   C57   A    
Cr1   O11   S    
C25   H1    S    
C1    C17   S    
C3    C67   S    
C31   H58   S    
C5    O6    A    
C33   H60   S    
C64   H42   S    
C10   O17   A    
C14   C34   S    
C43   C50   A    
C12   O31   A    
C21   C35   S    
Cr6   O10   S    
C26   H12   S    
Cr3   O14   S    
C71   O21   S    
C9    O10   A    
C26   C28   A    
C72   O22   S    
C66   H47   S    
Cr3   O23   S    
C10   C38   S    
C64   C65   S    
Cr6   O4    S    
C2    H21   S    
C58   C59   S    
C54   H15   S    
C32   H59   S    
C51   H11   S    
C13   C45   S    
C59   H28   S    
C70   H57   S    
C23   O32   A    
C29   H45   S    
Cr1   O18   S    
C34   O2    A    
C41   C48   A    
C66   O25   S    
C67   O20   S    
C51   C55   A    
C7    C41   S    
C68   H51   S    
Cr2   O13   S    
C33   C37   S    
C47   C72   S    
C42   C49   A    
C7    O14   A    
C15   C21   A    
C11   C29   A    
C6    C42   S    
C62   H37   S    
C31   C36   S    
Cr2   O12   S    
C44   C67   S    
C18   C31   S    
C8    C40   S    
C34   O28   A    
C61   H35   S    
C11   C56   S    
Cr5   O19   S    
