data_mof_unit_16260.cif
_audit_creation_date              2012-12-10T18:31:59-0500
_audit_creation_method            fapswitch 2.2
_symmetry_space_group_name_H-M    P1
_symmetry_Int_Tables_number       1
_space_group_crystal_system       triclinic
_cell_length_a                    10.656138
_cell_length_b                    14.944696
_cell_length_c                    15.46821
_cell_angle_alpha                 80.402341
_cell_angle_beta                  90.430668
_cell_angle_gamma                 104.429746
_cell_volume                      2350.75917455

loop_
_atom_site_label
_atom_site_type_symbol
_atom_type_description
_atom_site_fract_x
_atom_site_fract_y
_atom_site_fract_z
_atom_type_partial_charge
C1    C     C_R   0.480491 0.440628 0.662135 0.885374
C2    C     C_R   0.515742 0.450808 0.897272 0.047478
C3    C     C_R   0.575844 0.376363 0.924188 0.147348
C4    C     C_R   0.742171 0.501090 0.498841 0.815358
C5    C     C_R   0.522758 0.519734 0.951328 0.083673
C6    C     C_R   0.561288 0.501562 0.038941 0.075959
C7    C     C_R   0.613310 0.423395 0.065622 -0.220324
C8    C     C_R   0.623668 0.363497 0.008085 -0.211566
C9    C     C_R   0.503878 0.609398 0.918718 -0.184914
C10   C     C_R   0.506418 0.674661 0.973386 -0.234177
C11   C     C_R   0.523365 0.651175 0.062823 0.172241
C12   C     C_3   0.121632 0.499748 0.497140 0.125302
C13   C     C_R   0.549159 0.563649 0.096411 0.092296
C14   C     C_R   0.511396 0.712884 0.119618 -0.195450
C15   C     C_R   0.515183 0.685369 0.210028 -0.224731
C16   C     C_R   0.519500 0.559323 0.337680 0.873564
C17   C     C_R   0.552813 0.537883 0.187173 -0.231065
C18   C     C_R   0.636895 0.822131 0.667788 -0.338087
C19   C     C_R   0.644762 0.747582 0.626161 0.266093
C20   C     C_R   0.526596 0.802153 0.506800 0.136705
C21   C     C_R   0.506674 0.874629 0.550797 0.004927
C22   C     C_R   0.569697 0.886311 0.630100 0.113942
C23   C     C_3   0.104088 0.586313 0.431769 -0.422725
C24   C     C_R   0.438668 0.941438 0.514619 0.079791
C25   C     C_R   0.466609 0.030705 0.541576 0.080829
C26   C     C_R   0.533810 0.041405 0.619392 -0.233405
C27   C     C_R   0.578663 0.967972 0.665375 -0.192023
C28   C     C_R   0.258142 0.499663 0.498833 0.865190
C29   C     C_R   0.343070 0.921076 0.452942 -0.233435
C30   C     C_R   0.294383 0.991662 0.406427 -0.210392
C31   C     C_R   0.339626 0.083742 0.421071 0.138539
C32   C     C_R   0.425007 0.104988 0.489542 -0.004310
C33   C     C_R   0.298379 0.154534 0.368187 -0.326380
C34   C     C_3   0.074234 0.503705 0.590689 -0.372549
C35   C     C_R   0.341253 0.246289 0.382052 0.313136
C36   C     C_R   0.467545 0.200116 0.500625 -0.108965
C37   C     C_3   0.897328 0.409849 0.469541 -0.378015
C38   C     C_3   0.039705 0.410160 0.467017 -0.394279
C39   C     C_3   0.961619 0.591930 0.435949 -0.035163
C40   C     C_3   0.930039 0.503649 0.590982 -0.480723
C41   C     C_3   0.879276 0.502066 0.496895 0.163520
C42   C     C_3   0.762110 0.708773 0.647924 -0.396972
C43   C     C_3   0.737916 0.625612 0.724364 -0.300978
C44   C     C_3   0.847725 0.634064 0.788854 -0.899787
C45   C     C_R   0.486249 0.403753 0.754769 -0.092012
C46   C     C_3   0.543938 0.818620 0.407274 -0.415096
C47   C     C_3   0.627911 0.916816 0.367644 -0.377850
C48   C     C_3   0.663915 0.922455 0.271136 -0.893038
C49   C     C_3   0.909868 0.622354 0.344316 -0.438336
C50   C     C_3   0.888165 0.550361 0.281888 -0.331978
C51   C     C_3   0.887062 0.598032 0.186632 -0.870142
C52   C     C_R   0.532343 0.596594 0.243890 -0.052716
C53   C     C_R   0.589698 0.316572 0.866093 -0.194541
C54   C     C_R   0.550908 0.333333 0.780205 -0.241044
C55   C     C_R   0.454073 0.453818 0.816308 0.061404
H1    H     H_    0.855200 0.398342 0.405452 0.174344
H2    H     H_    0.575548 0.293831 0.733013 0.152516
H3    H     H_    0.845208 0.348197 0.518137 0.178591
H4    H     H_    0.654514 0.410197 0.128964 0.145183
H5    H     H_    0.491594 0.632008 0.850114 0.175756
H6    H     H_    0.493401 0.780512 0.094388 0.136193
H7    H     H_    0.628886 0.977859 0.725609 0.141995
H8    H     H_    0.533489 0.221515 0.550870 0.131089
H9    H     H_    0.223916 0.974618 0.356955 0.145091
H10   H     H_    0.693412 0.834801 0.725208 0.154780
H11   H     H_    0.053621 0.346102 0.510236 0.193708
H12   H     H_    0.131444 0.568201 0.613305 0.206602
H13   H     H_    0.549297 0.104691 0.647284 0.135837
H14   H     H_    0.305307 0.850409 0.440636 0.143776
H15   H     H_    0.231468 0.138451 0.316481 0.169202
H16   H     H_    0.069422 0.407801 0.398976 0.202810
H17   H     H_    0.135178 0.581783 0.364515 0.174745
H18   H     H_    0.919109 0.567313 0.615081 0.184094
H19   H     H_    0.873634 0.441756 0.637418 0.177571
H20   H     H_    0.088156 0.442180 0.637663 0.191267
H21   H     H_    0.941088 0.639018 0.754621 0.270861
H22   H     H_    0.856112 0.697159 0.819796 0.265047
H23   H     H_    0.962048 0.651937 0.470386 0.133474
H24   H     H_    0.826841 0.571176 0.841246 0.265930
H25   H     H_    0.647099 0.620390 0.760825 0.232495
H26   H     H_    0.728736 0.559522 0.698526 0.229204
H27   H     H_    0.803199 0.692730 0.589111 0.197588
H28   H     H_    0.842227 0.766565 0.664295 0.181708
H29   H     H_    0.720074 0.870587 0.263666 0.260983
H30   H     H_    0.575001 0.908851 0.232416 0.261755
H31   H     H_    0.724507 0.993694 0.244807 0.258170
H32   H     H_    0.576593 0.972038 0.371172 0.248256
H33   H     H_    0.718580 0.932765 0.404469 0.225250
H34   H     H_    0.167566 0.652143 0.448338 0.159514
H35   H     H_    0.450028 0.801654 0.374814 0.183197
H36   H     H_    0.601325 0.771618 0.391081 0.246759
H37   H     H_    0.815738 0.641491 0.179196 0.270044
H38   H     H_    0.984734 0.643611 0.165178 0.263476
H39   H     H_    0.860542 0.544134 0.143677 0.254508
H40   H     H_    0.965495 0.512156 0.286996 0.237012
H41   H     H_    0.792914 0.499167 0.298660 0.211641
H42   H     H_    0.817386 0.642143 0.352734 0.197423
H43   H     H_    0.980458 0.687741 0.312749 0.210496
H44   H     H_    0.669124 0.306635 0.029500 0.148525
H45   H     H_    0.563409 0.469328 0.215472 0.169048
H46   H     H_    0.498028 0.731209 0.253142 0.157116
H47   H     H_    0.490335 0.742373 0.946019 0.149755
H48   H     H_    0.638140 0.260973 0.885375 0.142017
I1    I     I_    0.285301 0.507158 0.791941 -0.441883
I2    I     I_    0.257619 0.342160 0.299395 -0.414502
N1    N     N_R   0.573860 0.731700 0.552730 -0.129490
N2    N     N_R   0.426060 0.268290 0.447230 -0.114532
O1    O     O_R   0.462770 0.383110 0.605620 -0.611534
O2    O     O_R   0.510160 0.531900 0.639510 -0.595743
O3    O     O_R   0.661510 0.425600 0.483070 -0.629310
O4    O     O_R   0.708900 0.574390 0.516960 -0.650523
O5    O     O_R   0.489840 0.468100 0.360490 -0.585083
O6    O     O_R   0.537230 0.616890 0.394380 -0.648888
O7    O     O_R   0.291100 0.425610 0.483040 -0.597894
O8    O     O_R   0.338490 0.574400 0.516930 -0.611525
Zn1   Zn    Zn3+2 0.468350 0.400660 0.477370 0.955344
Zn2   Zn    Zn3+2 0.531650 0.599340 0.522630 0.923659

loop_
_geom_bond_atom_site_label_1
_geom_bond_atom_site_label_2
_ccdc_geom_bond_type
C30   H9    S    
C11   C13   A    
C42   H27   S    
C50   H41   S    
C16   O6    A    
O2    Zn2   S    
C7    C8    A    
C39   C41   S    
C53   C54   A    
C18   H10   S    
C12   C23   S    
C26   C27   A    
C37   C38   S    
C12   C28   S    
C34   C40   S    
C32   C36   A    
C44   H22   S    
C27   H7    S    
C8    H44   S    
C2    C55   A    
C30   C31   A    
C11   C14   A    
C50   H40   S    
C4    C41   S    
C40   H18   S    
C18   C19   A    
C44   H21   S    
C24   C29   A    
C1    O2    A    
C49   H43   S    
C46   C47   S    
C37   H1    S    
C31   C32   A    
O8    Zn2   S    
C23   H34   S    
C36   H8    S    
C9    C10   A    
C29   H14   S    
C37   H3    S    
C19   C42   S    
C34   H20   S    
C25   C32   A    
C21   C22   A    
C36   N2    A    
C12   C38   S    
C17   C52   A    
C7    H4    S    
C20   N1    A    
C39   H23   S    
C38   H11   S    
C10   H47   S    
C24   C25   A    
C3    C8    A    
C46   H36   S    
C1    O1    A    
C25   C26   A    
C14   H6    S    
C55   I1    S    
C48   H29   S    
C47   H32   S    
C43   C44   S    
C5    C9    A    
C29   C30   A    
C35   I2    S    
C28   O8    A    
C51   H37   S    
C47   C48   S    
C14   C15   A    
C31   C33   A    
C50   C51   S    
C15   C52   A    
C15   H46   S    
C28   O7    A    
C33   H15   S    
C51   H38   S    
O6    Zn2   S    
C40   C41   S    
C39   C49   S    
C4    O4    A    
C45   C54   A    
C22   C27   A    
N1    Zn2   S    
C43   H26   S    
C48   H31   S    
C2    C5    A    
C42   C43   S    
C12   C34   S    
O3    Zn1   S    
O5    Zn1   S    
C16   O5    A    
C4    O3    A    
C38   H16   S    
C18   C22   A    
C23   H17   S    
C44   H24   S    
C42   H28   S    
C16   C52   S    
C34   H12   S    
O7    Zn1   S    
C6    C7    A    
C46   H35   S    
C13   C17   A    
O4    Zn2   S    
C9    H5    S    
C26   H13   S    
C47   H33   S    
O1    Zn1   S    
C2    C3    A    
C43   H25   S    
C6    C13   A    
C3    C53   A    
C1    C45   S    
C5    C6    A    
C53   H48   S    
C23   C39   S    
C33   C35   A    
C40   H19   S    
C37   C41   S    
C17   H45   S    
N2    Zn1   S    
C35   N2    A    
C10   C11   A    
C51   H39   S    
C49   H42   S    
C19   N1    A    
C20   C21   A    
C45   C55   A    
C49   C50   S    
C21   C24   A    
C48   H30   S    
C20   C46   S    
C54   H2    S    
