data_mof_unit_36636.cif
_audit_creation_date              2012-12-10T18:23:20-0500
_audit_creation_method            fapswitch 2.2
_symmetry_space_group_name_H-M    P1
_symmetry_Int_Tables_number       1
_space_group_crystal_system       triclinic
_cell_length_a                    27.785183
_cell_length_b                    10.678481
_cell_length_c                    9.446036
_cell_angle_alpha                 88.048613
_cell_angle_beta                  89.76331
_cell_angle_gamma                 90.709908
_cell_volume                      2800.8030014

loop_
_atom_site_label
_atom_site_type_symbol
_atom_type_description
_atom_site_fract_x
_atom_site_fract_y
_atom_site_fract_z
_atom_type_partial_charge
C1    C     C_R   0.500066 0.259442 0.502124 0.775324
C2    C     C_R   0.499985 0.740492 0.497773 0.767961
C3    C     C_R   0.101940 0.502973 0.512935 -0.093885
C4    C     C_R   0.897565 0.478773 0.491346 -0.093728
C5    C     C_R   0.127111 0.452526 0.631226 -0.066511
C6    C     C_R   0.872380 0.531079 0.374056 -0.066879
C7    C     C_R   0.100609 0.400305 0.747087 0.268533
C8    C     C_R   0.898824 0.582460 0.257700 0.269408
C9    C     C_R   0.128142 0.559491 0.399196 -0.001397
C10   C     C_R   0.871359 0.421618 0.604771 -0.002234
C11   C     C_R   0.355135 0.504200 0.503002 -0.075154
C12   C     C_R   0.645055 0.492498 0.500587 -0.135523
C13   C     C_R   0.973365 0.430724 0.615231 0.074807
C14   C     C_R   0.026154 0.549348 0.388037 0.075168
C15   C     C_R   0.974991 0.541418 0.381731 0.002257
C16   C     C_R   0.024513 0.439198 0.621837 0.002179
C17   C     C_R   0.948832 0.483651 0.495991 0.065229
C18   C     C_R   0.050679 0.497094 0.507681 0.065255
C19   C     C_R   0.945616 0.369587 0.723633 -0.218891
C20   C     C_R   0.053919 0.609624 0.279122 -0.219649
C21   C     C_R   0.895803 0.365838 0.718482 -0.175282
C22   C     C_R   0.103710 0.613789 0.284575 -0.176236
C23   C     C_R   0.407853 0.501584 0.500491 0.802144
C24   C     C_R   0.592212 0.498657 0.500001 0.775309
C25   C     C_R   0.050478 0.393673 0.740766 -0.277033
C26   C     C_R   0.948985 0.587585 0.263139 -0.276712
C27   C     C_3   0.512505 0.031968 0.629063 0.236926
C28   C     C_3   0.487413 0.967656 0.370233 0.238166
C29   C     C_3   0.544223 0.956998 0.529299 -0.213172
C30   C     C_3   0.455634 0.042659 0.469680 -0.206726
C31   C     C_3   0.499767 0.877358 0.493807 -0.053234
C32   C     C_3   0.500089 0.122445 0.505558 -0.052793
C33   C     C_3   0.468060 0.951026 0.594666 -0.212112
C34   C     C_3   0.531748 0.048715 0.404558 -0.217659
C35   C     C_3   0.503957 0.613597 0.046128 -0.148509
C36   C     C_3   0.495910 0.386652 0.953703 -0.159339
C37   C     C_3   0.465095 0.562792 0.949099 0.405199
C38   C     C_3   0.534804 0.437260 0.050493 0.408595
C39   C     C_3   0.539727 0.549444 0.946637 -0.090989
C40   C     C_3   0.460225 0.450705 0.053207 -0.091830
C41   C     C_R   0.178076 0.455662 0.628673 0.551812
C42   C     C_R   0.821454 0.530888 0.378328 0.552759
C43   C     C_R   0.178545 0.560540 0.401885 0.530259
C44   C     C_R   0.820948 0.421618 0.602573 0.531688
C45   C     C_R   0.280366 0.619485 0.512424 -0.118325
C46   C     C_R   0.718414 0.374529 0.470057 -0.093787
C47   C     C_R   0.330774 0.619944 0.506607 0.089319
C48   C     C_R   0.667838 0.377377 0.473349 0.100334
C49   C     C_R   0.328535 0.390193 0.506558 0.088595
C50   C     C_R   0.672741 0.600760 0.531159 0.094598
C51   C     C_R   0.278219 0.393150 0.509969 -0.133745
C52   C     C_R   0.723179 0.593454 0.526313 -0.094881
C53   C     C_R   0.254115 0.507036 0.512786 0.276952
C54   C     C_R   0.745683 0.481763 0.495245 0.254095
Cu1   Cu    Cu3+1 0.500010 0.499990 0.643150 0.929405
Cu2   Cu    Cu3+1 0.499990 0.500010 0.356850 0.938358
H1    H     H_    0.441931 0.910039 0.673038 0.127715
H2    H     H_    0.557319 0.089632 0.324722 0.136930
H3    H     H_    0.507134 0.708040 0.088745 0.125137
H4    H     H_    0.492680 0.292272 0.911016 0.124736
H5    H     H_    0.572859 0.590788 0.897250 0.130972
H6    H     H_    0.427050 0.409382 0.102361 0.133132
H7    H     H_    0.257496 0.306461 0.511365 0.150487
H8    H     H_    0.745955 0.673638 0.546199 0.154118
H9    H     H_    0.737593 0.289848 0.448382 0.155270
H10   H     H_    0.261237 0.707116 0.516591 0.151563
H11   H     H_    0.876430 0.319029 0.805334 0.183439
H12   H     H_    0.123074 0.660111 0.197391 0.183497
H13   H     H_    0.960955 0.322260 0.814696 0.137114
H14   H     H_    0.038632 0.655876 0.187315 0.137040
H15   H     H_    0.033021 0.354523 0.834226 0.138738
H16   H     H_    0.966401 0.626341 0.169434 0.138266
H17   H     H_    0.580444 0.921273 0.553621 0.141288
H18   H     H_    0.419219 0.076151 0.443370 0.135648
N1    N     N_R   0.202401 0.508370 0.514901 -0.460529
N2    N     N_R   0.797227 0.477068 0.491441 -0.464147
N3    N     N_3   0.500040 0.499970 0.858290 -0.189914
N4    N     N_3   0.499960 0.500030 0.141710 -0.186824
O1    O     O_R   0.500020 0.316850 0.620870 -0.590545
O2    O     O_R   0.499980 0.683150 0.379130 -0.587368
O3    O     O_R   0.500000 0.316860 0.379090 -0.588745
O4    O     O_R   0.500000 0.683140 0.620910 -0.593042
O5    O     O_R   0.430270 0.500020 0.620880 -0.556839
O6    O     O_R   0.569730 0.499980 0.379120 -0.548053
O7    O     O_R   0.430250 0.500030 0.379090 -0.584040
O8    O     O_R   0.569750 0.499970 0.620910 -0.586329
O9    O     O_2   0.203381 0.406208 0.738084 -0.504915
O10   O     O_2   0.796087 0.584957 0.271775 -0.501008
O11   O     O_2   0.795717 0.368378 0.711773 -0.548676
O12   O     O_2   0.203631 0.611521 0.291087 -0.552041
C55   C     C_3   0.352763 0.264261 0.510415 -0.428443
C56   C     C_3   0.363452 0.221044 0.662782 -0.795386
H19   H     H_    0.389605 0.285631 0.711935 0.268817
H20   H     H_    0.329781 0.217433 0.726696 0.265231
H21   H     H_    0.378996 0.125809 0.664410 0.225925
H22   H     H_    0.329310 0.192930 0.461043 0.200714
H23   H     H_    0.386500 0.269213 0.447267 0.190802
C57   C     C_3   0.647611 0.722020 0.566261 -0.394844
C58   C     C_3   0.680511 0.829521 0.611403 -0.866460
H24   H     H_    0.702689 0.799455 0.703737 0.263470
H25   H     H_    0.704039 0.862249 0.521926 0.262634
H26   H     H_    0.658479 0.909609 0.643972 0.241075
H27   H     H_    0.626821 0.754221 0.471927 0.194928
H28   H     H_    0.621809 0.702433 0.654666 0.211214
C59   C     C_3   0.526685 0.066343 0.778439 -0.398078
C60   C     C_3   0.544912 0.953221 0.864456 -0.849301
H29   H     H_    0.516449 0.879373 0.873914 0.253412
H30   H     H_    0.577339 0.914170 0.813993 0.252810
H31   H     H_    0.554908 0.982734 0.972047 0.243957
H32   H     H_    0.555157 0.140144 0.772549 0.200313
H33   H     H_    0.494388 0.102441 0.831402 0.197296
C61   C     C_3   0.474037 0.932589 0.220520 -0.403454
C62   C     C_3   0.454480 0.044024 0.134388 -0.861294
H34   H     H_    0.421232 0.079382 0.183928 0.248949
H35   H     H_    0.481840 0.120719 0.126326 0.255203
H36   H     H_    0.445440 0.014050 0.026236 0.244920
H37   H     H_    0.506896 0.899251 0.167996 0.198369
H38   H     H_    0.446679 0.856264 0.225977 0.207547
N5    N     N_2   0.426115 0.633294 0.885632 -0.404865
H39   H     H_    0.437866 0.703244 0.815695 0.258910
C63   C     C_3   0.390288 0.676039 0.983298 -0.727893
H40   H     H_    0.360297 0.719724 0.922915 0.239647
H41   H     H_    0.406347 0.746964 0.052457 0.213271
H42   H     H_    0.375380 0.596332 0.048891 0.247706
N6    N     N_2   0.573033 0.363299 0.112342 -0.411988
H43   H     H_    0.560013 0.285217 0.167656 0.244797
C64   C     C_3   0.611783 0.334680 0.016747 -0.698890
H44   H     H_    0.639096 0.277831 0.074397 0.238443
H45   H     H_    0.629558 0.422363 0.975752 0.246174
H46   H     H_    0.597900 0.280624 0.926913 0.216822
N7    N     N_2   0.123691 0.354689 0.872532 -0.377513
H47   H     H_    0.108908 0.271941 0.913375 0.241727
C65   C     C_3   0.128886 0.447370 0.979763 -0.582841
H48   H     H_    0.149437 0.407157 0.070690 0.239136
H49   H     H_    0.092900 0.475829 0.018079 0.193014
H50   H     H_    0.148800 0.531219 0.936614 0.246918
N8    N     N_2   0.875650 0.628003 0.132345 -0.377191
H51   H     H_    0.891071 0.709175 0.089406 0.242199
C66   C     C_3   0.868892 0.534113 0.027138 -0.584356
H52   H     H_    0.848433 0.574621 0.936185 0.238107
H53   H     H_    0.848194 0.452447 0.072506 0.246012
H54   H     H_    0.904342 0.502220 0.988199 0.193711
C67   C     C_3   0.637403 0.259549 0.452863 -0.382624
C68   C     C_3   0.665264 0.140000 0.425404 -0.874248
H55   H     H_    0.686809 0.151453 0.326405 0.257671
H56   H     H_    0.689041 0.116202 0.516353 0.263724
H57   H     H_    0.639717 0.060671 0.412526 0.245842
H58   H     H_    0.614728 0.241774 0.548885 0.193436
H59   H     H_    0.613042 0.276535 0.362028 0.219616
C69   C     C_3   0.356925 0.745371 0.504928 -0.409095
C70   C     C_3   0.349450 0.816599 0.364125 -0.819498
H60   H     H_    0.362741 0.760434 0.275734 0.257018
H61   H     H_    0.310765 0.837016 0.347416 0.262183
H62   H     H_    0.369582 0.906830 0.363715 0.235277
H63   H     H_    0.343208 0.801967 0.592737 0.200600
H64   H     H_    0.396112 0.735298 0.522210 0.192224

loop_
_geom_bond_atom_site_label_1
_geom_bond_atom_site_label_2
_ccdc_geom_bond_type
C30   C32   S    
C59   H32   S    
C27   C29   S    
C26   H16   S    
C14   C18   A    
C11   C47   A    
C12   C48   A    
C40   H6    S    
Cu2   O3    S    
C27   C33   S    
N8    C66   S    
C23   O5    A    
C11   C49   A    
C39   N3    S    
C35   C37   S    
C37   C40   S    
C36   N3    S    
C2    O2    A    
C61   H37   S    
Cu1   N3    S    
C66   H54   S    
C9    C22   A    
C29   H17   S    
C60   H29   S    
C27   C59   S    
C1    O3    A    
C67   C68   S    
Cu2   N4    S    
C3    C18   A    
C35   H3    S    
C70   H62   S    
C11   C23   S    
C44   N2    A    
C30   H18   S    
C63   H42   S    
C55   H22   S    
C49   C51   A    
C65   H50   S    
C50   C52   A    
C70   H60   S    
C31   C33   S    
C25   H15   S    
C7    N7    S    
C62   H36   S    
N5    C63   S    
N6    H43   S    
C59   H33   S    
C45   C53   A    
C69   H64   S    
C21   H11   S    
C70   H61   S    
C65   H49   S    
C20   H14   S    
C53   N1    S    
C49   C55   S    
C68   H57   S    
C39   H5    S    
C61   C62   S    
C52   C54   A    
Cu2   O6    S    
C45   C47   A    
C10   C21   A    
C43   N1    A    
C8    C26   A    
C41   O9    S    
C46   C48   A    
C9    C43   A    
C43   O12   S    
C50   C57   S    
C13   C19   A    
C10   C44   A    
C14   C20   A    
C36   C40   S    
C51   H7    S    
C46   H9    S    
C68   H56   S    
C52   H8    S    
C55   C56   S    
C5    C7    A    
C15   C26   A    
C6    C8    A    
C38   N4    S    
N7    C65   S    
C37   N3    S    
C29   C34   S    
C56   H21   S    
C28   C61   S    
C48   C67   S    
C8    N8    S    
C51   C53   A    
C32   C34   S    
C35   C39   S    
C64   H45   S    
C3    C9    A    
C41   N1    A    
Cu1   O1    S    
C58   H24   S    
C37   N5    S    
C47   C69   S    
N5    H39   S    
C46   C54   A    
Cu1   Cu2   S    
C56   H20   S    
C55   H23   S    
Cu1   O4    S    
C22   H12   S    
C63   H40   S    
C54   N2    S    
C4    C17   A    
C4    C6    A    
C58   H25   S    
C20   C22   A    
C69   H63   S    
C6    C42   A    
C65   H48   S    
C1    O1    A    
C40   N4    S    
C2    O4    A    
C42   O10   S    
Cu1   O5    S    
C64   H44   S    
C3    C5    A    
C38   N6    S    
N6    C64   S    
C62   H34   S    
N8    H51   S    
C16   C25   A    
C15   C17   A    
C5    C41   A    
C33   H1    S    
C30   C33   S    
C19   C21   A    
C27   C32   S    
C69   C70   S    
C28   C31   S    
C68   H55   S    
C36   H4    S    
Cu2   O2    S    
C12   C50   A    
C66   H52   S    
C24   O8    A    
C59   C60   S    
C12   C24   S    
C35   N4    S    
C42   N2    A    
C7    C25   A    
C13   C17   A    
Cu1   O8    S    
C28   C30   S    
C24   O6    A    
C64   H46   S    
C29   C31   S    
C61   H38   S    
C66   H53   S    
Cu2   O7    S    
C38   C39   S    
C60   H30   S    
C57   H28   S    
C36   C38   S    
C56   H19   S    
C1    C32   S    
N7    H47   S    
C67   H58   S    
C63   H41   S    
C19   H13   S    
C28   C34   S    
C67   H59   S    
C58   H26   S    
C16   C18   A    
C57   C58   S    
C23   O7    A    
C13   C16   A    
C45   H10   S    
C34   H2    S    
C14   C15   A    
C2    C31   S    
C4    C10   A    
C44   O11   S    
C57   H27   S    
C62   H35   S    
C60   H31   S    
