data_mof_unit_26371.cif
_audit_creation_date              2012-12-10T16:59:20-0500
_audit_creation_method            fapswitch 2.2
_symmetry_space_group_name_H-M    P1
_symmetry_Int_Tables_number       1
_space_group_crystal_system       triclinic
_cell_length_a                    7.75211
_cell_length_b                    8.61091
_cell_length_c                    27.680579
_cell_angle_alpha                 91.743604
_cell_angle_beta                  85.979721
_cell_angle_gamma                 93.412517
_cell_volume                      1839.29931924

loop_
_atom_site_label
_atom_site_type_symbol
_atom_type_description
_atom_site_fract_x
_atom_site_fract_y
_atom_site_fract_z
_atom_type_partial_charge
C1    C     C_R   0.545223 0.794311 0.498783 0.855632
C2    C     C_R   0.518099 0.635577 0.128931 -0.069092
C3    C     C_R   0.510394 0.504436 0.646539 -0.037427
C4    C     C_R   0.489631 0.495725 0.353460 -0.037421
C5    C     C_R   0.543890 0.639289 0.026836 0.007079
C6    C     C_R   0.456289 0.361330 0.973169 0.007084
C7    C     C_R   0.427860 0.365417 0.024349 -0.131744
C8    C     C_R   0.572293 0.635210 0.975654 -0.131751
C9    C     C_R   0.482181 0.501163 0.050880 -0.058411
C10   C     C_R   0.517979 0.499458 0.949124 -0.058425
C11   C     C_R   0.563129 0.778709 0.055149 0.733168
C12   C     C_R   0.454777 0.205689 0.501216 0.855664
C13   C     C_R   0.437087 0.221899 0.944860 0.733172
C14   C     C_R   0.558593 0.774792 0.105217 -0.177912
C15   C     C_R   0.441637 0.225799 0.894792 -0.177864
C16   C     C_R   0.502780 0.500986 0.593950 0.841545
C17   C     C_R   0.497223 0.499033 0.406049 0.841559
C18   C     C_R   0.664224 0.757414 0.949791 0.648980
C19   C     C_R   0.335892 0.243224 0.050207 0.648947
C20   C     C_2   0.569638 0.956540 0.498193 0.292149
C21   C     C_2   0.430362 0.043460 0.501807 0.292140
C22   C     C_R   0.591686 0.635884 0.822643 0.608804
C23   C     C_R   0.530732 0.500142 0.897856 -0.150015
C24   C     C_R   0.408380 0.364726 0.177358 0.608800
C25   C     C_R   0.483314 0.370627 0.820724 0.579608
C26   C     C_R   0.516867 0.629950 0.179284 0.579638
C27   C     C_R   0.678896 0.505670 0.716925 -0.088264
C28   C     C_R   0.321200 0.495178 0.283075 -0.088264
C29   C     C_R   0.671242 0.502863 0.666949 -0.164939
C30   C     C_R   0.328826 0.497790 0.333051 -0.164887
C31   C     C_R   0.357634 0.510075 0.676779 -0.178389
C32   C     C_R   0.642374 0.489810 0.323220 -0.178397
C33   C     C_R   0.365765 0.512490 0.726765 -0.085667
C34   C     C_R   0.469416 0.500470 0.102147 -0.149996
C35   C     C_R   0.634271 0.487592 0.273235 -0.085776
C36   C     C_R   0.526224 0.509860 0.746748 0.278460
C37   C     C_R   0.473856 0.490694 0.253254 0.278553
C38   C     C_R   0.594447 0.634966 0.873265 -0.246775
C39   C     C_R   0.405649 0.365654 0.126736 -0.246806
C40   C     C_R   0.666314 0.761196 0.899621 0.598197
C41   C     C_R   0.333764 0.239440 0.100376 0.598236
C42   C     C_R   0.482089 0.365017 0.871075 -0.069100
F1    F     F_    0.030702 0.359530 0.455968 -0.527880
F2    F     F_    0.262995 0.983819 0.505999 -0.575499
F3    F     F_    0.969298 0.640471 0.544032 -0.527935
F4    F     F_    0.748810 0.885310 0.877014 -0.559619
F5    F     F_    0.251227 0.115337 0.122979 -0.559599
F6    F     F_    0.566953 0.921641 0.035841 -0.550260
F7    F     F_    0.433278 0.078977 0.964174 -0.550271
F8    F     F_    0.770474 0.864500 0.971650 -0.535829
F9    F     F_    0.229649 0.136149 0.028340 -0.535859
F10   F     F_    0.737005 0.016181 0.494001 -0.575496
H1    H     H_    0.232195 0.511546 0.661906 0.177782
H2    H     H_    0.419994 0.117457 0.874566 0.234066
H3    H     H_    0.767780 0.487951 0.338093 0.177844
H4    H     H_    0.247670 0.515321 0.750047 0.149438
H5    H     H_    0.752351 0.484522 0.249952 0.149438
H6    H     H_    0.209104 0.501782 0.355594 0.192028
H7    H     H_    0.790976 0.499109 0.644405 0.192130
H8    H     H_    0.197243 0.498337 0.267455 0.147202
H9    H     H_    0.802890 0.502868 0.732545 0.147244
H10   H     H_    0.580267 0.883125 0.125445 0.234039
N1    N     N_R   0.533373 0.505786 0.797917 -0.371093
N2    N     N_R   0.466734 0.494802 0.202086 -0.371107
N3    N     N_2   0.950320 0.457960 0.486880 0.269180
N4    N     N_2   0.049680 0.542040 0.513120 0.269173
O1    O     O_R   0.389250 0.738570 0.503220 -0.571584
O2    O     O_2   0.355513 0.235229 0.201780 -0.448173
O3    O     O_2   0.565400 0.758178 0.205402 -0.509444
O4    O     O_2   0.434850 0.242369 0.794609 -0.509437
O5    O     O_R   0.610750 0.261430 0.496780 -0.571574
O6    O     O_R   0.678390 0.711630 0.494810 -0.539442
O7    O     O_R   0.321610 0.288370 0.505190 -0.539433
O8    O     O_R   0.355440 0.513440 0.575450 -0.618628
O9    O     O_R   0.644560 0.486560 0.424550 -0.618637
O10   O     O_R   0.644590 0.486500 0.567040 -0.596008
O11   O     O_R   0.355410 0.513500 0.432960 -0.596006
O12   O     O_2   0.644478 0.765396 0.798219 -0.448189
Zn1   Zn    Zn3+2 0.306940 0.517990 0.505620 1.178672
Zn2   Zn    Zn3+2 0.693060 0.482010 0.494380 1.178673

loop_
_geom_bond_atom_site_label_1
_geom_bond_atom_site_label_2
_ccdc_geom_bond_type
C27   C29   A    
C33   C36   A    
C39   C41   A    
C40   F4    S    
N4    Zn1   S    
C23   C42   A    
C16   O8    A    
C35   C37   A    
C5    C11   A    
C11   C14   A    
C22   C38   A    
C24   C39   A    
C25   N1    A    
C3    C29   A    
C26   N2    A    
C18   C40   A    
C27   H9    S    
C22   N1    A    
C29   H7    S    
C31   C33   A    
C36   N1    S    
O9    Zn2   S    
C32   H3    S    
C2    C34   A    
C33   H4    S    
C28   H8    S    
C24   N2    A    
N3    Zn2   S    
C12   O7    A    
C11   F6    S    
O5    Zn2   S    
O11   Zn1   S    
C41   F5    S    
C1    O6    A    
C34   C39   A    
C32   C35   A    
O1    Zn1   S    
C22   O12   S    
C12   C21   S    
C8    C18   A    
C15   H2    S    
C5    C9    A    
C21   F2    S    
F1    N3    S    
C17   O11   A    
O7    Zn1   S    
C2    C26   A    
C31   H1    S    
C3    C31   A    
C4    C32   A    
C13   F7    S    
C4    C17   S    
C8    C10   A    
C12   O5    A    
C7    C19   A    
O8    Zn1   S    
C13   C15   A    
C9    C34   A    
C10   C23   A    
C37   N2    S    
C18   F8    S    
C7    C9    A    
C1    C20   S    
C16   O10   A    
O10   Zn2   S    
C15   C42   A    
C25   C42   A    
C6    C10   A    
C5    C8    A    
C6    C7    A    
C27   C36   A    
C23   C38   A    
C35   H5    S    
C28   C30   A    
C20   F10   S    
C6    C13   A    
C38   C40   A    
C28   C37   A    
C30   H6    S    
C1    O1    A    
C2    C14   A    
C24   O2    S    
C19   F9    S    
C20   C21   D    
O6    Zn2   S    
N3    N4    D    
F3    N4    S    
C17   O9    A    
C26   O3    S    
C25   O4    S    
C4    C30   A    
C3    C16   S    
C19   C41   A    
C14   H10   S    
