data_mof_unit_58923.cif
_audit_creation_date              2012-12-11T14:46:01-0500
_audit_creation_method            fapswitch 2.2
_symmetry_space_group_name_H-M    P1
_symmetry_Int_Tables_number       1
_space_group_crystal_system       triclinic
_cell_length_a                    11.022776
_cell_length_b                    10.917545
_cell_length_c                    18.774163
_cell_angle_alpha                 89.828655
_cell_angle_beta                  90.087789
_cell_angle_gamma                 120.118125
_cell_volume                      1954.2812771

loop_
_atom_site_label
_atom_site_type_symbol
_atom_type_description
_atom_site_fract_x
_atom_site_fract_y
_atom_site_fract_z
_atom_type_partial_charge
C1    C     C_R   0.863653 0.638264 0.602543 0.550908
C2    C     C_R   0.966500 0.185937 0.715030 0.028139
C3    C     C_R   0.970521 0.201837 0.790310 0.053850
C4    C     C_R   0.273742 0.634366 0.602965 0.547485
C5    C     C_R   0.726823 0.145986 0.715192 0.003807
C6    C     C_R   0.745796 0.186214 0.786577 -0.020861
C7    C     C_R   0.593848 0.101722 0.684439 -0.121512
C8    C     C_R   0.492607 0.117993 0.721274 -0.106477
C9    C     C_R   0.520801 0.177743 0.789274 0.271081
C10   C     C_R   0.653353 0.222070 0.818600 -0.066639
C11   C     C_R   0.844840 0.164230 0.676115 -0.033756
C12   C     C_R   0.453690 0.633304 0.770123 -0.141608
C13   C     C_R   0.723109 0.538382 0.711796 -0.154391
C14   C     C_R   0.715723 0.551672 0.784954 -0.215005
C15   C     C_R   0.802115 0.681458 0.817498 0.018189
C16   C     C_R   0.861318 0.224109 0.602881 0.531220
C17   C     C_R   0.889949 0.801250 0.775162 0.266582
C18   C     C_R   0.890044 0.789482 0.702259 -0.112343
C19   C     C_R   0.816005 0.656936 0.671049 -0.022469
C20   C     C_R   0.407506 0.610357 0.299855 -0.146416
C21   C     C_R   0.440516 0.626424 0.228528 -0.184380
C22   C     C_R   0.424708 0.723791 0.187117 0.044938
C23   C     C_R   0.417550 0.617558 0.698789 -0.124212
C24   C     C_R   0.383649 0.815031 0.219181 0.276379
C25   C     C_R   0.343532 0.792274 0.291384 -0.129014
C26   C     C_R   0.350964 0.687060 0.330659 -0.011628
C27   C     C_R   0.783908 0.248717 0.275397 -0.132738
C28   C     C_R   0.869850 0.637079 0.395478 0.545825
C29   C     C_R   0.783983 0.234153 0.202661 -0.128321
C30   C     C_R   0.850948 0.166902 0.172760 0.036060
C31   C     C_R   0.930373 0.127481 0.215910 -0.130864
C32   C     C_R   0.933578 0.146170 0.289278 -0.136673
C33   C     C_R   0.855415 0.201688 0.319286 0.037181
C34   C     C_R   0.345052 0.681795 0.671149 0.026673
C35   C     C_R   0.959842 0.743119 0.279362 -0.131145
C36   C     C_R   0.950128 0.741424 0.206612 -0.123046
C37   C     C_R   0.822305 0.650120 0.173259 0.030464
C38   C     C_R   0.710890 0.545607 0.213056 -0.157055
C39   C     C_R   0.721368 0.545488 0.286987 -0.151472
C40   C     C_R   0.275426 0.636853 0.397707 0.552640
C41   C     C_R   0.845018 0.647335 0.320468 0.036235
C42   C     C_R   0.810465 0.110051 0.896898 0.533552
C43   C     C_R   0.457402 0.724532 0.889293 0.566001
C44   C     C_R   0.792501 0.699939 0.893625 0.555099
C45   C     C_R   0.851788 0.182209 0.826330 -0.030940
C46   C     C_R   0.808635 0.107419 0.102083 0.535760
C47   C     C_R   0.456784 0.728218 0.111243 0.583064
C48   C     C_R   0.798992 0.691412 0.103264 0.542261
C49   C     C_R   0.864190 0.234631 0.394339 0.544764
C50   C     C_R   0.319616 0.771200 0.714308 -0.142623
C51   C     C_R   0.360544 0.790489 0.785372 -0.123366
C52   C     C_R   0.423145 0.716908 0.814024 0.031147
C53   C     C_3   0.432561 0.204019 0.898532 -0.162190
C54   C     C_3   0.111952 0.938167 0.813264 -0.068512
C55   C     C_3   0.398430 0.035981 0.213299 -0.127230
C56   C     C_R   0.097658 0.253962 0.827177 -0.060843
C57   C     C_R   0.219626 0.288180 0.790328 -0.077885
C58   C     C_R   0.213589 0.253031 0.718699 -0.097394
C59   C     C_R   0.086991 0.197598 0.681747 -0.070665
Cr1   Cr    Cr6+3 0.791660 0.390250 0.499930 1.006023
Cr2   Cr    Cr6+3 0.098520 0.708290 0.500540 1.002009
Cr3   Cr    Cr6+3 0.109770 0.401430 0.499480 1.007703
Cr4   Cr    Cr6+3 0.874790 0.925890 0.000070 1.020697
Cr5   Cr    Cr6+3 0.574120 0.948670 0.999300 1.022557
Cr6   Cr    Cr6+3 0.551420 0.625320 0.000920 0.983611
H1    H     H_    0.261545 0.819880 0.694323 0.120874
H2    H     H_    0.297575 0.849228 0.315610 0.115194
H3    H     H_    0.727565 0.297273 0.297306 0.134691
H4    H     H_    0.723544 0.266780 0.170325 0.127761
H5    H     H_    0.993502 0.114350 0.322499 0.117012
H6    H     H_    0.059201 0.818751 0.303054 0.128578
H7    H     H_    0.040389 0.819958 0.177096 0.159632
H8    H     H_    0.614450 0.468903 0.187419 0.106137
H9    H     H_    0.634063 0.465989 0.317736 0.110430
H10   H     H_    0.499970 0.575409 0.792172 0.126471
H11   H     H_    0.438181 0.547895 0.666534 0.129438
H12   H     H_    0.392214 0.084824 0.696462 0.100197
H13   H     H_    0.318460 0.341269 0.817990 0.169342
H14   H     H_    0.307579 0.270901 0.691453 0.111401
H15   H     H_    0.104742 0.278122 0.883488 0.114576
H16   H     H_    0.085578 0.165779 0.627186 0.121265
H17   H     H_    0.684290 0.278876 0.868506 0.113905
H18   H     H_    0.517715 0.311029 0.914084 0.123974
H19   H     H_    0.448455 0.119081 0.921628 0.148383
H20   H     H_    0.335541 0.192801 0.922353 0.115434
H21   H     H_    0.173089 0.975220 0.763106 0.130022
H22   H     H_    0.103814 0.836492 0.830761 0.101222
H23   H     H_    0.567377 0.054015 0.632089 0.138139
H24   H     H_    0.168385 0.014797 0.855948 0.187489
H25   H     H_    0.427815 0.121674 0.173526 0.135981
H26   H     H_    0.488698 0.071228 0.250377 0.112314
H27   H     H_    0.304535 0.022366 0.242130 0.097142
H28   H     H_    0.982612 0.074635 0.193715 0.133889
H29   H     H_    0.662657 0.434564 0.688006 0.156604
H30   H     H_    0.642995 0.462032 0.816259 0.148416
H31   H     H_    0.960785 0.882102 0.671276 0.133199
H32   H     H_    0.415804 0.529399 0.329338 0.140173
H33   H     H_    0.472662 0.557674 0.204655 0.133130
H34   H     H_    0.337437 0.857265 0.818414 0.133572
O1    O     O_R   0.766500 0.250040 0.579790 -0.517984
O2    O     O_R   0.413330 0.603360 0.920440 -0.521606
O3    O     O_R   0.676110 0.626250 0.926750 -0.541060
O4    O     O_R   0.798570 0.516780 0.574780 -0.500175
O5    O     O_R   0.895350 0.809870 0.080950 -0.522771
O6    O     O_R   0.872490 0.049760 0.073800 -0.512664
O7    O     O_R   0.691680 0.088070 0.079070 -0.520893
O8    O     O_R   0.451720 0.825250 0.074050 -0.429097
O9    O     O_R   0.413580 0.606370 0.080960 -0.521124
O10   O     O_R   0.676340 0.629040 0.075550 -0.525901
O11   O     O_3   0.666780 0.833290 0.000090 -0.291372
O12   O     O_R   0.218690 0.701900 0.425960 -0.510365
O13   O     O_R   0.984000 0.732950 0.581090 -0.530109
O14   O     O_R   0.218600 0.700890 0.574760 -0.508449
O15   O     O_R   0.249390 0.515350 0.579940 -0.522816
O16   O     O_R   0.982790 0.280900 0.573700 -0.507330
O17   O     O_R   0.766600 0.251130 0.419260 -0.530758
O18   O     O_R   0.798660 0.517790 0.425980 -0.509000
O19   O     O_R   0.984100 0.734040 0.420570 -0.531203
O20   O     O_3   0.416850 0.191898 0.823537 -0.632677
O21   O     O_3   0.981150 0.930362 0.804885 -0.547912
O22   O     O_3   0.366327 0.910283 0.176803 -0.540927
O23   O     O_R   0.249490 0.516440 0.419420 -0.520494
O24   O     O_R   0.982880 0.281910 0.424890 -0.501500
O25   O     O_3   0.999980 0.499990 0.499980 -0.238803
O26   O     O_R   0.895110 0.806860 0.920430 -0.470673
O27   O     O_R   0.872260 0.046970 0.925000 -0.469876
O28   O     O_R   0.691430 0.085060 0.918550 -0.544594
O29   O     O_R   0.451490 0.822460 0.925250 -0.502086

loop_
_geom_bond_atom_site_label_1
_geom_bond_atom_site_label_2
_ccdc_geom_bond_type
C55   O22   S    
C6    C45   A    
C54   O21   S    
C27   C29   A    
C18   H31   S    
C35   C36   A    
C25   H2    S    
Cr6   O2    S    
C23   H11   S    
Cr3   O25   S    
C7    C8    A    
C39   C41   A    
C54   H22   S    
C27   C33   A    
C12   C23   A    
C29   C30   A    
C53   H19   S    
C4    O15   A    
C36   C37   A    
C15   C44   S    
Cr3   O15   S    
C55   H25   S    
C28   O18   A    
C1    O13   A    
C30   C31   A    
C43   C52   S    
C33   C49   S    
C48   O5    A    
C46   O6    A    
C28   C41   S    
C56   C57   A    
C18   C19   A    
C3    C56   A    
C39   H9    S    
Cr1   O25   S    
C55   H26   S    
C27   H3    S    
C17   O21   S    
C20   H32   S    
C31   C32   A    
C8    C9    A    
Cr5   O29   S    
Cr4   O6    S    
Cr1   O4    S    
C9    C10   A    
C1    O4    A    
Cr6   O9    S    
Cr5   O28   S    
C22   C47   S    
C35   H6    S    
C13   C14   A    
Cr6   O3    S    
C2    C11   A    
Cr3   O24   S    
C12   C52   A    
C50   C51   A    
C40   O12   A    
C29   H4    S    
C51   H34   S    
C38   C39   A    
C4    C34   S    
C44   O26   A    
C34   C50   A    
C1    C19   S    
C13   C19   A    
C51   C52   A    
C4    O14   A    
C24   C25   A    
C54   H24   S    
C5    C7    A    
C44   O3    A    
C2    C59   A    
C16   O1    A    
C32   H5    S    
C25   C26   A    
C31   H28   S    
C3    C45   A    
C42   C45   S    
C43   O2    A    
C37   C38   A    
C11   C16   S    
Cr5   O11   S    
C7    H23   S    
C23   C34   A    
C17   C18   A    
Cr1   O18   S    
C37   C48   S    
Cr5   O7    S    
C50   H1    S    
Cr6   O10   S    
Cr4   O26   S    
C58   H14   S    
C42   O28   A    
C55   H27   S    
C47   O8    A    
Cr2   O25   S    
Cr2   O14   S    
C8    H12   S    
C9    O20   S    
C22   C24   A    
Cr1   O17   S    
Cr2   O12   S    
C16   O16   A    
C14   H30   S    
Cr3   O23   S    
Cr5   O8    S    
C54   H21   S    
C15   C17   A    
Cr2   O19   S    
C57   H13   S    
C30   C46   S    
C59   H16   S    
Cr4   O5    S    
Cr1   O1    S    
C43   O29   A    
C6    C10   A    
C53   O20   S    
C5    C11   A    
C40   O23   A    
C56   H15   S    
C13   H29   S    
C53   H18   S    
C32   C33   A    
Cr4   O11   S    
C2    C3    A    
C58   C59   A    
Cr3   O16   S    
C28   O19   A    
C21   H33   S    
C26   C40   S    
C57   C58   A    
C5    C6    A    
C20   C26   A    
C46   O7    A    
C24   O22   S    
C10   H17   S    
C48   O10   A    
C35   C41   A    
Cr6   O11   S    
Cr4   O27   S    
C42   O27   A    
C49   O17   A    
C20   C21   A    
C47   O9    A    
C12   H10   S    
C14   C15   A    
C53   H20   S    
C21   C22   A    
Cr2   O13   S    
C36   H7    S    
C38   H8    S    
C49   O24   A    
