data_mof_unit_58825.cif
_audit_creation_date              2012-12-11T15:09:37-0500
_audit_creation_method            fapswitch 2.2
_symmetry_space_group_name_H-M    P1
_symmetry_Int_Tables_number       1
_space_group_crystal_system       triclinic
_cell_length_a                    20.916807
_cell_length_b                    7.129136
_cell_length_c                    14.031017
_cell_angle_alpha                 89.99912
_cell_angle_beta                  98.08598
_cell_angle_gamma                 90.001278
_cell_volume                      2071.48657651

loop_
_atom_site_label
_atom_site_type_symbol
_atom_type_description
_atom_site_fract_x
_atom_site_fract_y
_atom_site_fract_z
_atom_type_partial_charge
O1    O     O_R   0.447130 0.507140 0.597350 -0.537116
O2    O     O_R   0.552870 0.007140 0.402650 -0.537115
O3    O     O_R   0.578910 0.181280 0.586990 -0.538742
O4    O     O_R   0.421090 0.681280 0.413010 -0.538743
C1    C     C_R   0.604489 0.344491 0.607384 0.725794
C2    C     C_R   0.395511 0.844489 0.392615 0.725793
O5    O     O_R   0.449230 0.177860 0.608640 -0.540907
O6    O     O_R   0.550770 0.677860 0.391360 -0.540909
O7    O     O_R   0.422260 0.000770 0.424450 -0.534970
O8    O     O_R   0.577740 0.500770 0.575550 -0.534972
C3    C     C_R   0.432966 0.346332 0.634750 0.689453
C4    C     C_R   0.567034 0.846337 0.365250 0.689453
O9    O     O_3   0.491310 0.336980 0.439550 -0.374660
O10   O     O_3   0.508690 0.836980 0.560450 -0.374659
V1    V     V_3+5 0.501610 0.064760 0.511210 1.427583
V2    V     V_3+5 0.498390 0.564760 0.488790 1.427577
C5    C     C_R   0.620182 0.879669 0.121626 -0.157974
C6    C     C_R   0.379821 0.379284 0.878388 -0.157973
H1    H     H_    0.528607 0.874867 0.173875 0.103975
H2    H     H_    0.471396 0.374468 0.826140 0.103973
H3    H     H_    0.704547 0.895805 0.997674 0.127410
H4    H     H_    0.295458 0.395238 0.002348 0.127409
H5    H     H_    0.598056 0.891346 0.047230 0.113728
H6    H     H_    0.401949 0.390774 0.952792 0.113728
C7    C     C_R   0.607987 0.855207 0.289524 -0.025740
C8    C     C_R   0.392013 0.355175 0.710476 -0.025736
C9    C     C_R   0.921482 0.844265 0.305771 -0.168090
C10   C     C_R   0.078516 0.344508 0.694221 -0.168091
C11   C     C_R   0.884611 0.834491 0.380507 -0.118135
C12   C     C_R   0.115386 0.334834 0.619481 -0.118136
C13   C     C_R   0.817444 0.839163 0.361421 -0.156880
C14   C     C_R   0.182554 0.339412 0.638570 -0.156880
C15   C     C_R   0.785166 0.854002 0.265833 0.076660
C16   C     C_R   0.214833 0.354050 0.734165 0.076661
C17   C     C_R   0.823375 0.864201 0.189526 0.065195
C18   C     C_R   0.176625 0.364125 0.810477 0.065194
C19   C     C_R   0.716419 0.859017 0.243397 0.071485
C20   C     C_R   0.283581 0.358983 0.756604 0.071485
C21   C     C_R   0.687629 0.874265 0.145591 0.140146
C22   C     C_R   0.312373 0.373997 0.854418 0.140146
C23   C     C_R   0.726188 0.884131 0.072317 -0.202512
C24   C     C_R   0.273815 0.383740 0.927698 -0.202511
C25   C     C_R   0.792945 0.879176 0.093729 -0.193574
C26   C     C_R   0.207057 0.378885 0.906282 -0.193570
C27   C     C_R   0.674984 0.849536 0.314568 -0.212735
C28   C     C_R   0.325015 0.349634 0.685428 -0.212734
C29   C     C_R   0.580580 0.870278 0.193317 -0.175187
C30   C     C_R   0.419422 0.369998 0.806694 -0.175188
C31   C     C_R   0.891545 0.859070 0.210646 -0.069798
C32   C     C_R   0.108454 0.359101 0.789353 -0.069795
H7    H     H_    0.692898 0.837944 0.390161 0.095638
H8    H     H_    0.307100 0.338225 0.609827 0.095636
H9    H     H_    0.973670 0.840179 0.322106 0.102261
H10   H     H_    0.026327 0.340516 0.677881 0.102259
H11   H     H_    0.792455 0.830835 0.423298 0.109102
H12   H     H_    0.207541 0.331173 0.576689 0.109102
H13   H     H_    0.908273 0.823050 0.454038 0.119629
H14   H     H_    0.091723 0.323552 0.545944 0.119629
H15   H     H_    0.820563 0.887294 0.034136 0.123797
H16   H     H_    0.179440 0.386903 0.965879 0.123792
C33   C     C_1   0.166597 0.857123 0.168311 -0.192473
C34   C     C_1   0.833403 0.357119 0.831689 -0.192475
C35   C     C_1   0.218994 0.854858 0.219423 0.002006
C36   C     C_1   0.781006 0.354856 0.780577 0.002005
C37   C     C_1   0.280742 0.853417 0.279461 0.000162
C38   C     C_1   0.719258 0.353418 0.720539 0.000162
C39   C     C_1   0.333104 0.851099 0.330672 -0.198968
C40   C     C_1   0.666896 0.351102 0.669327 -0.198968
O11   O     O_R   0.922300 0.202240 0.924350 -0.533493
O12   O     O_R   0.077700 0.702240 0.075650 -0.533488
O13   O     O_R   0.050780 0.535130 0.891350 -0.540242
O14   O     O_R   0.949220 0.035130 0.108650 -0.540248
C41   C     C_R   0.067476 0.368014 0.865506 0.683468
C42   C     C_R   0.932524 0.868009 0.134494 0.683468
O15   O     O_R   0.921100 0.531560 0.912990 -0.538118
O16   O     O_R   0.078900 0.031560 0.087010 -0.538124
O17   O     O_R   0.947120 0.708470 0.097370 -0.537246
O18   O     O_R   0.052880 0.208470 0.902630 -0.537251
C43   C     C_R   0.895874 0.363556 0.893455 0.715522
C44   C     C_R   0.104126 0.863557 0.106545 0.715522
O19   O     O_3   0.008710 0.375800 0.060400 -0.373990
O20   O     O_3   0.991290 0.875800 0.939600 -0.373989
V3    V     V_3+5 0.998380 0.648080 0.988790 1.428561
V4    V     V_3+5 0.001620 0.148080 0.011210 1.428539

loop_
_geom_bond_atom_site_label_1
_geom_bond_atom_site_label_2
_ccdc_geom_bond_type
C38   C40   T    
C35   C37   S    
C9    C11   A    
O1    C3    A    
O2    C4    A    
O16   V4    S    
C2    O7    A    
C18   C32   A    
C21   C23   A    
O5    C3    A    
C5    H5    S    
C6    H6    S    
H1    C29   S    
O17   V3    S    
C33   C44   S    
C28   H8    S    
C5    C21   A    
C33   C35   T    
C6    C22   A    
C34   C36   T    
C10   C32   A    
C37   C39   T    
C42   O17   A    
C17   C31   A    
C41   O18   A    
C13   C15   A    
C12   C14   A    
C17   C25   A    
C7    C29   A    
C25   H15   S    
O5    V1    S    
O6    V2    S    
C23   C25   A    
C24   C26   A    
C1    C40   S    
O19   V3    S    
O13   V3    S    
O12   C44   A    
C5    C29   A    
C34   C43   S    
O14   C42   A    
C32   C41   S    
O13   C41   A    
C10   H10   S    
C3    C8    S    
C15   C19   A    
C14   C16   A    
O4    V2    S    
O2    V1    S    
O6    C4    A    
C31   C42   S    
O1    V2    S    
O14   V4    S    
O12   V3    S    
H2    C30   S    
H3    C23   S    
O4    C2    A    
C2    C39   S    
C11   H13   S    
O20   V4    S    
O11   C43   A    
C19   C27   A    
C7    C27   A    
O19   V4    S    
O3    V1    S    
C16   C20   A    
O16   C44   A    
O3    C1    A    
C6    C30   A    
C9    H9    S    
C8    C30   A    
C4    C7    S    
C10   C12   A    
O7    V1    S    
C1    O8    A    
C11   C13   A    
O11   V4    S    
O8    V2    S    
C20   C22   A    
O15   V3    S    
H4    C24   S    
C26   H16   S    
C12   H14   S    
C22   C24   A    
C15   C17   A    
C16   C18   A    
C20   C28   A    
C18   C26   A    
C8    C28   A    
O18   V4    S    
C19   C21   A    
O20   V3    S    
O9    V2    S    
C27   H7    S    
O10   V1    S    
C13   H11   S    
O15   C43   A    
C14   H12   S    
C9    C31   A    
C36   C38   S    
