data_mof_unit_14241.cif
_audit_creation_date              2012-12-10T18:09:50-0500
_audit_creation_method            fapswitch 2.2
_symmetry_space_group_name_H-M    P1
_symmetry_Int_Tables_number       1
_space_group_crystal_system       triclinic
_cell_length_a                    10.629282
_cell_length_b                    12.578735
_cell_length_c                    13.040935
_cell_angle_alpha                 83.359779
_cell_angle_beta                  89.924447
_cell_angle_gamma                 102.210896
_cell_volume                      1692.13453174

loop_
_atom_site_label
_atom_site_type_symbol
_atom_type_description
_atom_site_fract_x
_atom_site_fract_y
_atom_site_fract_z
_atom_type_partial_charge
C1    C     C_R   0.466864 0.440204 0.690055 0.892818
C2    C     C_R   0.406447 0.454824 0.968957 0.085226
C3    C     C_R   0.402216 0.483842 0.862490 0.005491
C4    C     C_R   0.741792 0.500325 0.500336 0.881165
C5    C     C_R   0.438895 0.538617 0.032798 -0.015363
C6    C     C_R   0.423517 0.645458 0.997034 0.109703
C7    C     C_R   0.390398 0.669120 0.894619 -0.231496
C8    C     C_R   0.383889 0.590128 0.826882 -0.164132
C9    C     C_R   0.496496 0.520799 0.127833 0.425968
C10   C     C_R   0.476468 0.700739 0.166043 -0.281772
C11   C     C_R   0.414660 0.404510 0.796545 -0.222067
C12   C     C_3   0.121588 0.499069 0.500952 -0.046729
C13   C     C_R   0.366839 0.097737 0.321116 0.406813
C14   C     C_R   0.653701 0.801311 0.628833 0.007608
C15   C     C_R   0.687329 0.907263 0.655509 -0.261905
C16   C     C_R   0.513484 0.560590 0.307982 0.903782
C17   C     C_R   0.629192 0.988196 0.606769 -0.206536
C18   C     C_R   0.535845 0.962863 0.531562 0.044846
C19   C     C_R   0.507411 0.854191 0.505355 0.251229
C20   C     C_R   0.475160 0.042055 0.477262 -0.078070
C21   C     C_R   0.402356 0.014673 0.389434 0.069306
C22   C     C_R   0.369400 0.905987 0.369639 -0.311001
C23   C     C_3   0.062949 0.469060 0.395081 0.355890
C24   C     C_R   0.420777 0.827115 0.427214 -0.245633
C25   C     C_R   0.486361 0.148569 0.504214 -0.073377
C26   C     C_R   0.376390 0.200261 0.354240 -0.112484
C27   C     C_R   0.258039 0.499441 0.500774 0.907417
C28   C     C_3   0.902939 0.413299 0.589239 -0.493614
C29   C     C_3   0.049273 0.416681 0.593282 0.273720
C30   C     C_3   0.918521 0.471866 0.394456 -0.498990
C31   C     C_3   0.957180 0.614923 0.519763 -0.416114
C32   C     C_3   0.877942 0.500216 0.500892 0.079343
C33   C     C_3   0.134766 0.632376 0.275502 0.101343
C34   C     C_3   0.100096 0.614321 0.521106 -0.493180
C35   C     C_3   0.108519 0.648471 0.160421 -0.333093
C36   C     C_3   0.119186 0.769224 0.121099 -0.973579
C37   C     C_3   0.686242 0.461341 0.126930 0.070374
C38   C     C_3   0.715145 0.453000 0.012854 -0.364194
C39   C     C_3   0.859282 0.471327 0.989672 -0.962773
C40   C     C_3   0.390914 0.111618 0.802767 0.080405
C41   C     C_3   0.532752 0.119820 0.830513 -0.390612
C42   C     C_3   0.558487 0.006847 0.866708 -0.976389
C43   C     C_3   0.444095 0.065398 0.164033 0.055023
C44   C     C_3   0.561618 0.162179 0.155549 -0.354657
C45   C     C_R   0.442470 0.726203 0.064310 -0.207796
C46   C     C_3   0.682280 0.129876 0.117211 -0.979520
C47   C     C_3   0.044941 0.235982 0.544144 0.138149
C48   C     C_3   0.017168 0.120970 0.603229 -0.327266
C49   C     C_3   0.986192 0.033099 0.530029 -0.975189
C50   C     C_R   0.501342 0.596915 0.198648 -0.157693
C51   C     C_R   0.381319 0.291548 0.835249 0.527374
C52   C     C_R   0.353166 0.263233 0.941978 -0.311972
C53   C     C_R   0.373231 0.343605 0.008359 -0.204945
H1    H     H_    0.844659 0.331034 0.579981 0.182229
H2    H     H_    0.758949 0.926839 0.713216 0.158560
H3    H     H_    0.395306 0.746453 0.405713 0.211763
H4    H     H_    0.080342 0.455984 0.664034 0.129663
H5    H     H_    0.862054 0.389832 0.380269 0.155955
H6    H     H_    0.065600 0.382642 0.391427 0.102186
H7    H     H_    0.939242 0.679094 0.458717 0.187893
H8    H     H_    0.927755 0.637071 0.595168 0.186636
H9    H     H_    0.231001 0.682154 0.289564 0.143765
H10   H     H_    0.061778 0.663475 0.316704 0.135537
H11   H     H_    0.177823 0.615132 0.116387 0.249991
H12   H     H_    0.154413 0.681752 0.465625 0.196224
H13   H     H_    0.009812 0.602469 0.147452 0.212136
H14   H     H_    0.047049 0.802793 0.161682 0.269139
H15   H     H_    0.100904 0.777855 0.037053 0.264067
H16   H     H_    0.217119 0.817196 0.133840 0.263742
H17   H     H_    0.481388 0.761456 0.219143 0.172453
H18   H     H_    0.732992 0.403249 0.175831 0.169841
H19   H     H_    0.730749 0.544657 0.147157 0.115426
H20   H     H_    0.667744 0.370921 0.992767 0.230297
H21   H     H_    0.676908 0.515561 0.962532 0.220104
H22   H     H_    0.906336 0.557670 0.996497 0.264049
H23   H     H_    0.894192 0.530037 0.330796 0.159433
H24   H     H_    0.875206 0.454911 0.909322 0.264424
H25   H     H_    0.903787 0.415480 0.043295 0.269791
H26   H     H_    0.370870 0.059036 0.739309 0.168292
H27   H     H_    0.323769 0.068254 0.866649 0.123645
H28   H     H_    0.595017 0.157438 0.761866 0.217966
H29   H     H_    0.558700 0.172820 0.892927 0.216855
H30   H     H_    0.508894 0.975102 0.942287 0.250877
H31   H     H_    0.663504 0.012601 0.875484 0.268716
H32   H     H_    0.522733 0.948338 0.810516 0.277795
H33   H     H_    0.355959 0.318572 0.090311 0.212117
H34   H     H_    0.375054 0.749623 0.865924 0.144107
H35   H     H_    0.358445 0.611714 0.748135 0.173287
H36   H     H_    0.347494 0.265167 0.304214 0.177071
H37   H     H_    0.413120 0.050966 0.084707 0.149364
H38   H     H_    0.472952 0.988980 0.196516 0.151641
H39   H     H_    0.540265 0.229651 0.101236 0.249809
H40   H     H_    0.583850 0.193007 0.231214 0.234681
H41   H     H_    0.763469 0.202432 0.109155 0.271960
H42   H     H_    0.666527 0.099173 0.041143 0.279183
H43   H     H_    0.708783 0.065219 0.173196 0.272183
H44   H     H_    0.536636 0.175097 0.571534 0.147806
H45   H     H_    0.426187 0.807144 0.039616 0.142747
H46   H     H_    0.661848 0.070161 0.626608 0.142164
H47   H     H_    0.124913 0.240781 0.487879 0.170125
H48   H     H_    0.958106 0.246682 0.500830 0.098901
H49   H     H_    0.102665 0.108724 0.648452 0.248254
H50   H     H_    0.934304 0.112235 0.657910 0.213711
H51   H     H_    0.899430 0.042190 0.485304 0.275005
H52   H     H_    0.967042 0.950701 0.575280 0.266757
H53   H     H_    0.068855 0.039411 0.475766 0.267957
H54   H     H_    0.137341 0.634416 0.597959 0.181901
H55   H     H_    0.318622 0.179854 0.975928 0.165933
H56   H     H_    0.869172 0.432992 0.664345 0.145178
H57   H     H_    0.305983 0.882250 0.307429 0.171888
H58   H     H_    0.698576 0.738154 0.666441 0.139878
N1    N     N_R   0.433240 0.222190 0.444680 -0.127115
N2    N     N_R   0.566070 0.776970 0.554790 -0.133233
O1    O     O_R   0.468120 0.366740 0.627160 -0.552220
O2    O     O_3   0.552022 0.430667 0.150105 -0.666863
O3    O     O_3   0.364585 0.214481 0.764652 -0.621375
O4    O     O_3   0.336752 0.085309 0.218908 -0.656496
O5    O     O_3   0.084890 0.313093 0.614916 -0.622271
O6    O     O_R   0.510770 0.544830 0.662520 -0.638342
O7    O     O_R   0.663880 0.410950 0.482330 -0.629169
O8    O     O_R   0.706530 0.589040 0.517700 -0.629680
O9    O     O_R   0.489230 0.455170 0.337480 -0.570764
O10   O     O_R   0.531880 0.633260 0.372840 -0.644918
O11   O     O_R   0.293470 0.410960 0.482300 -0.602214
O12   O     O_R   0.336120 0.589050 0.517670 -0.668189
O13   O     O_3   0.136977 0.521018 0.304750 -0.651492
Zn1   Zn    Zn3+2 0.471520 0.381090 0.476390 0.975043
Zn2   Zn    Zn3+2 0.528480 0.618910 0.523610 0.905389

loop_
_geom_bond_atom_site_label_1
_geom_bond_atom_site_label_2
_ccdc_geom_bond_type
C49   H53   S    
C47   H48   S    
C6    C45   A    
C12   C29   S    
C41   C42   S    
C31   H8    S    
C35   C36   S    
C1    C11   S    
C49   H51   S    
C36   H14   S    
C7    C8    A    
N2    Zn2   S    
C36   H16   S    
C26   H36   S    
C23   H6    S    
C12   C23   S    
C5    C6    A    
C34   H54   S    
C39   H24   S    
C28   C29   S    
C16   O10   A    
C16   C50   S    
C45   H45   S    
C38   C39   S    
C20   C25   A    
C19   N2    A    
C18   C19   A    
C1    O6    A    
O9    Zn1   S    
C16   O9    A    
N1    Zn1   S    
C44   H40   S    
C25   N1    A    
C47   O5    S    
C7    H34   S    
C46   H42   S    
C31   C32   S    
C33   H9    S    
C22   H57   S    
O12   Zn2   S    
C40   H27   S    
C53   H33   S    
C39   H22   S    
C44   H39   S    
O6    Zn2   S    
C48   H49   S    
C21   C22   A    
C34   H12   S    
C44   C46   S    
C14   H58   S    
C40   H26   S    
C43   H37   S    
C9    C50   A    
C12   C27   S    
O7    Zn1   S    
C51   C52   A    
C9    O2    S    
C23   C30   S    
C28   C32   S    
C42   H31   S    
O8    Zn2   S    
C3    C8    A    
C28   H1    S    
C49   H52   S    
C35   H13   S    
C48   H50   S    
C43   H38   S    
C47   H47   S    
C8    H35   S    
C15   H2    S    
C31   H7    S    
C43   C44   S    
C39   H25   S    
C5    C9    A    
C37   C38   S    
C30   H23   S    
C47   C48   S    
C46   H41   S    
C33   H10   S    
C41   H28   S    
C10   C45   A    
C17   C18   A    
C31   C34   S    
C13   C21   A    
C42   H32   S    
C35   H11   S    
C17   H46   S    
C4    C32   S    
C43   O4    S    
C23   O13   S    
C10   H17   S    
C25   H44   S    
C48   C49   S    
C29   H4    S    
O11   Zn1   S    
C22   C24   A    
C13   C26   A    
C2    C5    A    
C1    O1    A    
C12   C34   S    
C10   C50   A    
C26   N1    A    
C52   C53   A    
C38   H21   S    
C15   C17   A    
C40   C41   S    
C42   H30   S    
C2    C53   A    
C13   O4    S    
C27   O11   A    
C36   H15   S    
C6    C7    A    
C37   O2    S    
C28   H56   S    
C24   H3    S    
C14   N2    A    
C29   O5    S    
C51   O3    S    
C37   H18   S    
C2    C3    A    
C30   C32   S    
O1    Zn1   S    
C27   O12   A    
O10   Zn2   S    
C40   O3    S    
C41   H29   S    
C30   H5    S    
C33   O13   S    
C33   C35   S    
C4    O8    A    
C19   C24   A    
C18   C20   A    
C11   C51   A    
C3    C11   A    
C46   H43   S    
C20   C21   A    
C52   H55   S    
C37   H19   S    
C14   C15   A    
C4    O7    A    
C38   H20   S    
