data_mof_unit_60736.cif
_audit_creation_date              2012-12-10T17:49:27-0500
_audit_creation_method            fapswitch 2.2
_symmetry_space_group_name_H-M    P1
_symmetry_Int_Tables_number       1
_space_group_crystal_system       triclinic
_cell_length_a                    23.539061
_cell_length_b                    23.539062
_cell_length_c                    46.99131
_cell_angle_alpha                 90.000134
_cell_angle_beta                  89.999946
_cell_angle_gamma                 90.000016
_cell_volume                      26037.2935464

loop_
_atom_site_label
_atom_site_type_symbol
_atom_type_description
_atom_site_fract_x
_atom_site_fract_y
_atom_site_fract_z
_atom_type_partial_charge
C1    C     C_R   0.000000 0.390217 0.500000 0.890413
C2    C     C_R   0.500002 0.999999 0.354361 -0.007023
C3    C     C_R   0.500016 0.000016 0.765027 -0.096025
C4    C     C_R   0.500018 0.000016 0.734972 -0.096015
C5    C     C_R   0.999997 0.500003 0.734973 -0.096023
C6    C     C_R   0.500003 0.999997 0.265027 -0.096023
C7    C     C_R   0.999995 0.499996 0.265027 -0.096022
C8    C     C_R   0.926212 0.573689 0.235030 0.073203
C9    C     C_R   0.426312 0.926212 0.235030 0.073204
C10   C     C_R   0.073777 0.426302 0.235029 0.073204
C11   C     C_R   0.573694 0.073781 0.235030 0.073205
C12   C     C_R   0.926214 0.426310 0.764970 0.073204
C13   C     C_R   0.999999 0.500002 0.645639 -0.007026
C14   C     C_R   0.426347 0.073823 0.764969 0.073207
C15   C     C_R   0.073780 0.573695 0.764970 0.073204
C16   C     C_R   0.573690 0.926215 0.764971 0.073207
C17   C     C_R   0.426258 0.073733 0.735029 0.073201
C18   C     C_R   0.926302 0.426222 0.735029 0.073204
C19   C     C_R   0.573781 0.926304 0.735031 0.073200
C20   C     C_R   0.073692 0.573783 0.735030 0.073204
C21   C     C_R   0.426223 0.926300 0.264970 0.073205
C22   C     C_R   0.926301 0.573777 0.264971 0.073204
C23   C     C_R   0.573782 0.073693 0.264970 0.073204
C24   C     C_R   0.500012 0.000006 0.645639 -0.006999
C25   C     C_R   0.073689 0.426214 0.264970 0.073204
C26   C     C_R   0.974205 0.454982 0.369074 0.543396
C27   C     C_R   0.545018 0.974208 0.369074 0.543396
C28   C     C_R   0.025792 0.545013 0.369073 0.543395
C29   C     C_R   0.454985 0.025789 0.369073 0.543397
C30   C     C_R   0.974209 0.545019 0.630926 0.543397
C31   C     C_R   0.545024 0.025801 0.630924 0.543387
C32   C     C_R   0.025790 0.454985 0.630926 0.543398
C33   C     C_R   0.454997 0.974207 0.630928 0.543386
C34   C     C_R   0.474200 0.955000 0.869072 0.543397
C35   C     C_R   0.500005 0.000010 0.854360 -0.007027
C36   C     C_R   0.045014 0.474208 0.869073 0.543398
C37   C     C_R   0.525807 0.045018 0.869075 0.543394
C38   C     C_R   0.954982 0.525792 0.869074 0.543397
C39   C     C_R   0.474207 0.045013 0.130927 0.543397
C40   C     C_R   0.045011 0.525793 0.130927 0.543394
C41   C     C_R   0.525794 0.954983 0.130926 0.543396
C42   C     C_R   0.954981 0.474206 0.130926 0.543394
C43   C     C_R   0.975361 0.454128 0.398782 -0.051156
C44   C     C_R   0.545872 0.975363 0.398782 -0.051155
C45   C     C_R   0.024638 0.545868 0.398781 -0.051156
C46   C     C_R   0.999998 0.500001 0.854361 -0.007025
C47   C     C_R   0.454130 0.024635 0.398781 -0.051156
C48   C     C_R   0.975364 0.545872 0.601218 -0.051156
C49   C     C_R   0.545875 0.024644 0.601217 -0.051156
C50   C     C_R   0.024636 0.454130 0.601219 -0.051155
C51   C     C_R   0.454139 0.975359 0.601221 -0.051156
C52   C     C_R   0.475352 0.954141 0.898779 -0.051156
C53   C     C_R   0.045869 0.475362 0.898781 -0.051157
C54   C     C_R   0.524650 0.045870 0.898783 -0.051152
C55   C     C_R   0.954128 0.524637 0.898782 -0.051155
C56   C     C_R   0.475361 0.045868 0.101219 -0.051156
C57   C     C_R   0.500001 0.999998 0.145639 -0.007024
C58   C     C_R   0.045867 0.524639 0.101219 -0.051156
C59   C     C_R   0.524639 0.954129 0.101218 -0.051155
C60   C     C_R   0.954128 0.475361 0.101218 -0.051155
C61   C     C_R   1.000000 0.499999 0.413652 -0.262450
C62   C     C_R   0.500001 1.000000 0.413652 -0.262450
C63   C     C_R   1.000000 0.500001 0.586348 -0.262450
C64   C     C_R   0.500005 0.000001 0.586348 -0.262448
C65   C     C_R   0.500000 0.000004 0.913652 -0.262459
C66   C     C_R   0.999999 0.500000 0.913652 -0.262451
C67   C     C_R   0.500000 0.999999 0.086348 -0.262452
C68   C     C_R   0.999996 0.499999 0.145639 -0.007019
C69   C     C_R   0.999998 0.500000 0.086348 -0.262450
C70   C     C_3   0.892698 0.419787 0.350422 -0.266612
C71   C     C_3   0.580218 0.892703 0.350422 -0.266609
C72   C     C_3   0.107298 0.580208 0.350420 -0.266611
C73   C     C_3   0.419786 0.107294 0.350420 -0.266611
C74   C     C_3   0.892704 0.580219 0.649578 -0.266611
C75   C     C_3   0.580219 0.107313 0.649572 -0.266600
C76   C     C_3   0.107294 0.419786 0.649580 -0.266613
C77   C     C_3   0.419809 0.892699 0.649582 -0.266609
C78   C     C_3   0.392686 0.919827 0.850416 -0.266612
C79   C     C_1   1.000000 0.329745 0.500000 -0.189154
C80   C     C_3   0.080210 0.392702 0.850420 -0.266613
C81   C     C_3   0.607324 0.080196 0.850425 -0.266618
C82   C     C_3   0.919785 0.607299 0.850422 -0.266612
C83   C     C_3   0.392700 0.080207 0.149580 -0.266613
C84   C     C_3   0.080204 0.607300 0.149580 -0.266615
C85   C     C_3   0.607302 0.919789 0.149578 -0.266609
C86   C     C_3   0.919785 0.392698 0.149577 -0.266610
C87   C     C_1   0.670255 0.000000 0.500000 -0.189155
C88   C     C_1   0.000000 0.670255 0.500000 -0.189154
C89   C     C_R   0.609783 0.000000 0.500000 0.890411
C90   C     C_1   0.329745 1.000000 0.500000 -0.189154
C91   C     C_1   0.500000 0.829745 0.000000 -0.189154
C92   C     C_1   0.170255 0.500000 0.000000 -0.189154
C93   C     C_1   0.500000 0.170255 1.000000 -0.189154
C94   C     C_1   0.829745 0.500000 1.000000 -0.189154
C95   C     C_1   1.000000 0.278813 0.500000 0.019328
C96   C     C_1   0.721187 0.000000 0.500000 0.019329
C97   C     C_1   0.000000 0.721187 0.500000 0.019328
C98   C     C_1   0.278813 1.000000 0.500000 0.019327
C99   C     C_1   0.500000 0.778813 0.000000 0.019328
C100  C     C_R   0.000000 0.609783 0.500000 0.890413
C101  C     C_1   0.221187 0.500000 0.000000 0.019328
C102  C     C_1   0.500000 0.221187 1.000000 0.019328
C103  C     C_1   0.778813 0.500000 1.000000 0.019328
C104  C     C_1   1.000000 0.219285 0.500000 0.020418
C105  C     C_1   0.780715 0.000000 0.500000 0.020419
C106  C     C_1   1.000000 0.780715 0.500000 0.020418
C107  C     C_1   0.219285 1.000000 0.500000 0.020418
C108  C     C_1   0.500000 0.719285 0.000000 0.020418
C109  C     C_1   0.280715 0.500000 0.000000 0.020418
C110  C     C_1   0.500000 0.280715 1.000000 0.020418
C111  C     C_R   0.390217 0.000000 0.500000 0.890417
C112  C     C_1   0.719285 0.500000 1.000000 0.020418
C113  C     C_1   1.000000 0.168349 0.500000 -0.170568
C114  C     C_1   0.831651 0.000000 0.500000 -0.170568
C115  C     C_1   1.000000 0.831651 0.500000 -0.170568
C116  C     C_1   0.168349 1.000000 0.500000 -0.170568
C117  C     C_1   0.500000 0.668349 0.000000 -0.170568
C118  C     C_1   0.331651 0.500000 0.000000 -0.170568
C119  C     C_1   0.500000 0.331651 1.000000 -0.170567
C120  C     C_1   0.668349 0.500000 1.000000 -0.170568
C121  C     C_R   0.107863 1.000000 0.500000 0.878095
C122  C     C_R   0.500000 0.890217 0.000000 0.890419
C123  C     C_R   0.000000 0.107864 0.500000 0.878095
C124  C     C_R   0.892136 0.000000 0.500000 0.878096
C125  C     C_R   0.000000 0.892136 0.500000 0.878095
C126  C     C_R   0.607864 0.500000 1.000000 0.878095
C127  C     C_R   0.500000 0.607863 0.000000 0.878095
C128  C     C_R   0.392136 0.500000 0.000000 0.878095
C129  C     C_R   0.500000 0.392136 1.000000 0.878095
C130  C     C_R   1.000000 0.500000 0.444543 0.927137
C131  C     C_R   0.500000 1.000000 0.444543 0.927136
C132  C     C_R   1.000000 0.500000 0.555457 0.927135
C133  C     C_R   0.109783 0.500000 0.000000 0.890415
C134  C     C_R   0.500000 0.000000 0.555457 0.927138
C135  C     C_R   0.500000 0.000000 0.944543 0.927143
C136  C     C_R   1.000000 0.500000 0.944543 0.927137
C137  C     C_R   0.500000 1.000000 0.055457 0.927137
C138  C     C_R   1.000000 0.500000 0.055457 0.927136
C139  C     C_R   0.035856 0.464192 0.189973 0.587686
C140  C     C_R   0.535806 0.035859 0.189974 0.587685
C141  C     C_R   0.964134 0.535801 0.189974 0.587687
C142  C     C_R   0.464198 0.964135 0.189974 0.587685
C143  C     C_R   0.035858 0.535806 0.810026 0.587685
C144  C     C_R   0.500000 0.109783 0.000000 0.890415
C145  C     C_R   0.535806 0.964143 0.810026 0.587685
C146  C     C_R   0.964136 0.464197 0.810026 0.587688
C147  C     C_R   0.464217 0.035885 0.810025 0.587690
C148  C     C_R   0.535872 0.964202 0.689974 0.587685
C149  C     C_R   0.035804 0.535862 0.689974 0.587686
C150  C     C_R   0.464161 0.035822 0.689973 0.587681
C151  C     C_R   0.964192 0.464143 0.689974 0.587686
C152  C     C_R   0.535862 0.035804 0.310026 0.587686
C153  C     C_R   0.035801 0.464135 0.310026 0.587686
C154  C     C_R   0.464143 0.964191 0.310026 0.587686
C155  C     C_R   0.890217 0.500000 1.000000 0.890413
C156  C     C_R   0.964192 0.535857 0.310026 0.587686
C157  C     C_R   0.962995 0.536898 0.219925 -0.048671
C158  C     C_R   0.463101 0.962997 0.219925 -0.048672
C159  C     C_R   0.036993 0.463094 0.219925 -0.048670
C160  C     C_R   0.536903 0.036997 0.219925 -0.048672
C161  C     C_R   0.962998 0.463101 0.780075 -0.048672
C162  C     C_R   0.463124 0.037026 0.780074 -0.048674
C163  C     C_R   0.036996 0.536904 0.780075 -0.048671
C164  C     C_R   0.536907 0.963007 0.780075 -0.048671
C165  C     C_R   0.463028 0.036927 0.719924 -0.048663
C166  C     C_R   0.999998 0.499997 0.354361 -0.007021
C167  C     C_R   0.963094 0.463005 0.719925 -0.048671
C168  C     C_R   0.537008 0.963104 0.719925 -0.048668
C169  C     C_R   0.036901 0.537001 0.719925 -0.048673
C170  C     C_R   0.463005 0.963093 0.280075 -0.048672
C171  C     C_R   0.963093 0.536995 0.280075 -0.048671
C172  C     C_R   0.537000 0.036901 0.280075 -0.048672
C173  C     C_R   0.036898 0.462997 0.280074 -0.048672
C174  C     C_R   0.999995 0.499996 0.234973 -0.096022
C175  C     C_R   0.500002 0.999997 0.234973 -0.096022
C176  C     C_R   0.999997 0.500003 0.765027 -0.096023
H1    H     H_    0.846581 0.601853 0.225576 0.189289
H2    H     H_    0.897769 0.346820 0.774515 0.180983
H3    H     H_    0.080896 0.418297 0.925952 0.201066
H4    H     H_    0.516217 0.111102 0.926657 0.190433
H5    H     H_    0.581723 0.080882 0.925955 0.201075
H6    H     H_    0.888896 0.516190 0.926654 0.190434
H7    H     H_    0.919101 0.581702 0.925953 0.201066
H8    H     H_    0.483806 0.111103 0.073347 0.190433
H9    H     H_    0.418295 0.080894 0.074048 0.201066
H10   H     H_    0.111102 0.516196 0.073347 0.190433
H11   H     H_    0.080893 0.581706 0.074049 0.201066
H12   H     H_    0.516194 0.888896 0.073345 0.190432
H13   H     H_    0.398216 0.153465 0.774423 0.189285
H14   H     H_    0.581705 0.919104 0.074047 0.201067
H15   H     H_    0.888896 0.483807 0.073345 0.190434
H16   H     H_    0.919103 0.418296 0.074046 0.201067
H17   H     H_    0.346868 0.102300 0.774514 0.180988
H18   H     H_    0.153411 0.601858 0.774426 0.189290
H19   H     H_    0.102224 0.653185 0.774516 0.180982
H20   H     H_    0.601834 0.846577 0.774426 0.189291
H21   H     H_    0.653173 0.897752 0.774518 0.180981
H22   H     H_    0.346641 0.101932 0.725573 0.189298
H23   H     H_    0.397852 0.153235 0.725482 0.180972
H24   H     H_    0.898135 0.346593 0.725574 0.189290
H25   H     H_    0.897768 0.653179 0.225485 0.180982
H26   H     H_    0.846811 0.397782 0.725484 0.180982
H27   H     H_    0.653405 0.898118 0.725577 0.189291
H28   H     H_    0.602203 0.846806 0.725485 0.180979
H29   H     H_    0.101858 0.653413 0.725575 0.189289
H30   H     H_    0.153184 0.602225 0.725485 0.180983
H31   H     H_    0.346594 0.898133 0.274426 0.189290
H32   H     H_    0.397784 0.846809 0.274516 0.180982
H33   H     H_    0.898136 0.653408 0.274426 0.189290
H34   H     H_    0.846810 0.602219 0.274516 0.180981
H35   H     H_    0.653412 0.101860 0.274425 0.189290
H36   H     H_    0.398150 0.846581 0.225575 0.189290
H37   H     H_    0.602223 0.153185 0.274516 0.180982
H38   H     H_    0.101853 0.346583 0.274425 0.189289
H39   H     H_    0.153179 0.397771 0.274515 0.180982
H40   H     H_    0.884967 0.458983 0.337781 0.167581
H41   H     H_    0.870090 0.422329 0.371184 0.167290
H42   H     H_    0.874315 0.383653 0.338393 0.194040
H43   H     H_    0.541022 0.884971 0.337780 0.167580
H44   H     H_    0.577676 0.870094 0.371183 0.167290
H45   H     H_    0.616353 0.874322 0.338393 0.194040
H46   H     H_    0.115028 0.541011 0.337778 0.167581
H47   H     H_    0.346822 0.897767 0.225485 0.180982
H48   H     H_    0.129907 0.577665 0.371181 0.167291
H49   H     H_    0.125679 0.616341 0.338390 0.194040
H50   H     H_    0.458982 0.115026 0.337779 0.167580
H51   H     H_    0.422327 0.129903 0.371181 0.167291
H52   H     H_    0.383651 0.125674 0.338390 0.194040
H53   H     H_    0.884971 0.541023 0.662220 0.167579
H54   H     H_    0.870095 0.577677 0.628817 0.167290
H55   H     H_    0.874324 0.616354 0.661608 0.194040
H56   H     H_    0.541023 0.115045 0.662214 0.167591
H57   H     H_    0.577674 0.129917 0.628810 0.167290
H58   H     H_    0.153407 0.398137 0.225574 0.189290
H59   H     H_    0.616353 0.125698 0.661600 0.194036
H60   H     H_    0.115026 0.458983 0.662221 0.167579
H61   H     H_    0.129904 0.422327 0.628819 0.167291
H62   H     H_    0.125674 0.383652 0.661609 0.194040
H63   H     H_    0.459009 0.884970 0.662222 0.167594
H64   H     H_    0.422348 0.870090 0.628821 0.167293
H65   H     H_    0.383679 0.874315 0.661614 0.194038
H66   H     H_    0.384968 0.959026 0.837775 0.167580
H67   H     H_    0.370076 0.922374 0.871176 0.167287
H68   H     H_    0.374296 0.883698 0.838385 0.194040
H69   H     H_    0.102218 0.346811 0.225483 0.180981
H70   H     H_    0.041013 0.384972 0.837779 0.167579
H71   H     H_    0.077668 0.370093 0.871181 0.167291
H72   H     H_    0.116343 0.374321 0.838390 0.194040
H73   H     H_    0.615046 0.040996 0.837785 0.167578
H74   H     H_    0.629930 0.077650 0.871187 0.167293
H75   H     H_    0.625715 0.116324 0.838395 0.194041
H76   H     H_    0.958981 0.615030 0.837780 0.167579
H77   H     H_    0.922327 0.629907 0.871183 0.167290
H78   H     H_    0.883650 0.625680 0.838393 0.194040
H79   H     H_    0.384971 0.041010 0.162222 0.167580
H80   H     H_    0.601856 0.153413 0.225575 0.189290
H81   H     H_    0.370091 0.077664 0.128819 0.167290
H82   H     H_    0.374318 0.116340 0.161610 0.194040
H83   H     H_    0.041007 0.615030 0.162221 0.167582
H84   H     H_    0.077663 0.629909 0.128819 0.167292
H85   H     H_    0.116337 0.625682 0.161610 0.194040
H86   H     H_    0.615031 0.958985 0.162220 0.167580
H87   H     H_    0.629910 0.922334 0.128817 0.167288
H88   H     H_    0.625685 0.883655 0.161606 0.194040
H89   H     H_    0.958981 0.384967 0.162219 0.167581
H90   H     H_    0.922329 0.370090 0.128816 0.167290
H91   H     H_    0.653184 0.102226 0.225484 0.180982
H92   H     H_    0.883651 0.374316 0.161606 0.194040
H93   H     H_    0.983807 0.388896 0.426654 0.190434
H94   H     H_    0.918296 0.419104 0.425953 0.201067
H95   H     H_    0.611105 0.983813 0.426654 0.190434
H96   H     H_    0.580901 0.918300 0.425953 0.201065
H97   H     H_    0.016194 0.611102 0.426653 0.190434
H98   H     H_    0.081705 0.580894 0.425952 0.201066
H99   H     H_    0.388896 0.016187 0.426653 0.190433
H100  H     H_    0.419101 0.081699 0.425952 0.201064
H101  H     H_    0.983814 0.611105 0.573346 0.190433
H102  H     H_    0.846583 0.398147 0.774425 0.189289
H103  H     H_    0.918301 0.580901 0.574046 0.201065
H104  H     H_    0.611106 0.016200 0.573342 0.190433
H105  H     H_    0.580895 0.081710 0.574044 0.201070
H106  H     H_    0.016187 0.388896 0.573346 0.190433
H107  H     H_    0.081700 0.419100 0.574048 0.201064
H108  H     H_    0.388901 0.983796 0.573350 0.190434
H109  H     H_    0.419115 0.918288 0.574052 0.201067
H110  H     H_    0.483780 0.888903 0.926651 0.190433
H111  H     H_    0.418275 0.919126 0.925948 0.201072
H112  H     H_    0.111103 0.483809 0.926653 0.190434
N1    N     N_R   0.999995 0.499997 0.176028 -0.328490
N2    N     N_3   0.388827 0.888521 0.219982 -0.376898
N3    N     N_3   0.111466 0.388816 0.219981 -0.376897
N4    N     N_3   0.611179 0.111472 0.219982 -0.376899
N5    N     N_3   0.888523 0.388825 0.780017 -0.376897
N6    N     N_3   0.388877 0.111529 0.780016 -0.376894
N7    N     N_3   0.111470 0.611180 0.780018 -0.376897
N8    N     N_3   0.611166 0.888515 0.780019 -0.376899
N9    N     N_3   0.388586 0.111235 0.719980 -0.376908
N10   N     N_3   0.888815 0.388534 0.719982 -0.376897
N11   N     N_3   0.611462 0.888808 0.719983 -0.376903
N12   N     N_R   0.500002 0.999997 0.176028 -0.328491
N13   N     N_3   0.111179 0.611472 0.719982 -0.376896
N14   N     N_3   0.388535 0.888813 0.280018 -0.376899
N15   N     N_3   0.888815 0.611467 0.280019 -0.376898
N16   N     N_3   0.611471 0.111180 0.280018 -0.376898
N17   N     N_3   0.111175 0.388524 0.280017 -0.376897
N18   N     N_3   0.952389 0.405763 0.413385 -0.399200
N19   N     N_3   0.594239 0.952395 0.413384 -0.399200
N20   N     N_3   0.047611 0.594234 0.413383 -0.399199
N21   N     N_3   0.405762 0.047605 0.413383 -0.399199
N22   N     N_3   0.952395 0.594240 0.586615 -0.399198
N23   N     N_R   0.999997 0.500001 0.823972 -0.328492
N24   N     N_3   0.594238 0.047617 0.586612 -0.399202
N25   N     N_3   0.047605 0.405762 0.586616 -0.399199
N26   N     N_3   0.405773 0.952381 0.586620 -0.399203
N27   N     N_3   0.452368 0.905779 0.913380 -0.399194
N28   N     N_3   0.094236 0.452392 0.913383 -0.399200
N29   N     N_3   0.547631 0.094230 0.913387 -0.399196
N30   N     N_3   0.905762 0.547608 0.913385 -0.399199
N31   N     N_3   0.452389 0.094235 0.086617 -0.399197
N32   N     N_3   0.094233 0.547612 0.086617 -0.399200
N33   N     N_3   0.547611 0.905764 0.086615 -0.399198
N34   N     N_R   0.500009 0.000013 0.823972 -0.328492
N35   N     N_3   0.905763 0.452390 0.086615 -0.399200
N36   N     N_R   0.500015 0.000010 0.676028 -0.328480
N37   N     N_R   0.999998 0.500002 0.676028 -0.328492
N38   N     N_R   0.500002 0.999998 0.323972 -0.328491
N39   N     N_R   0.999997 0.499997 0.323972 -0.328490
N40   N     N_3   0.888522 0.611175 0.219983 -0.376897
O1    O     O_R   0.953170 0.417210 0.499940 -0.614082
O2    O     O_R   0.082790 0.453170 0.999940 -0.614082
O3    O     O_R   0.546830 0.082790 0.999940 -0.614083
O4    O     O_R   0.917210 0.546830 0.999940 -0.614082
O5    O     O_R   0.453170 0.082790 0.000060 -0.614081
O6    O     O_R   0.082790 0.546830 0.000060 -0.614082
O7    O     O_R   0.546830 0.917210 0.000060 -0.614082
O8    O     O_R   0.917210 0.453170 0.000060 -0.614082
O9    O     O_R   0.953160 0.500010 0.458010 -0.622169
O10   O     O_R   0.499990 0.953160 0.458010 -0.622168
O11   O     O_R   0.046840 0.499990 0.458010 -0.622169
O12   O     O_R   0.582790 0.953170 0.499940 -0.614081
O13   O     O_R   0.500010 0.046840 0.458010 -0.622168
O14   O     O_R   0.953160 0.499990 0.541990 -0.622168
O15   O     O_R   0.499990 0.046840 0.541990 -0.622171
O16   O     O_R   0.046840 0.500010 0.541990 -0.622168
O17   O     O_R   0.500010 0.953160 0.541990 -0.622170
O18   O     O_R   0.453160 0.000010 0.958010 -0.622174
O19   O     O_R   0.999990 0.453160 0.958010 -0.622169
O20   O     O_R   0.546840 0.999990 0.958010 -0.622174
O21   O     O_R   0.000010 0.546840 0.958010 -0.622169
O22   O     O_R   0.453160 0.999990 0.041990 -0.622170
O23   O     O_R   0.046830 0.582790 0.499940 -0.614082
O24   O     O_R   0.999990 0.546840 0.041990 -0.622170
O25   O     O_R   0.546840 0.000010 0.041990 -0.622169
O26   O     O_R   0.000010 0.453160 0.041990 -0.622170
O27   O     O_2   0.069829 0.429720 0.174577 -0.523146
O28   O     O_2   0.570277 0.069833 0.174578 -0.523143
O29   O     O_2   0.930160 0.570274 0.174578 -0.523144
O30   O     O_2   0.429726 0.930161 0.174578 -0.523142
O31   O     O_2   0.069832 0.570279 0.825422 -0.523142
O32   O     O_2   0.570267 0.930159 0.825423 -0.523142
O33   O     O_2   0.930163 0.429724 0.825422 -0.523142
O34   O     O_R   0.417210 0.046830 0.499940 -0.614082
O35   O     O_2   0.429750 0.069866 0.825421 -0.523142
O36   O     O_2   0.569842 0.929725 0.674578 -0.523159
O37   O     O_2   0.070278 0.569834 0.674578 -0.523141
O38   O     O_2   0.430189 0.070295 0.674577 -0.523161
O39   O     O_2   0.929718 0.430171 0.674578 -0.523143
O40   O     O_2   0.569834 0.070278 0.325422 -0.523143
O41   O     O_2   0.070274 0.430162 0.325422 -0.523144
O42   O     O_2   0.430171 0.929717 0.325422 -0.523144
O43   O     O_2   0.929719 0.569831 0.325423 -0.523145
O44   O     O_R   0.081480 0.000000 0.475630 -0.604482
O45   O     O_R   0.953170 0.582790 0.500060 -0.614082
O46   O     O_R   1.000000 0.081480 0.475630 -0.604481
O47   O     O_R   0.918520 0.000000 0.475630 -0.604481
O48   O     O_R   1.000000 0.918520 0.475630 -0.604482
O49   O     O_R   0.081480 0.000000 0.524370 -0.604482
O50   O     O_R   0.000000 0.918520 0.524370 -0.604481
O51   O     O_R   0.918520 0.000000 0.524370 -0.604482
O52   O     O_R   0.000000 0.081480 0.524370 -0.604482
O53   O     O_R   0.581480 0.500000 0.975630 -0.604482
O54   O     O_R   0.500000 0.581480 0.975630 -0.604481
O55   O     O_R   0.418520 0.500000 0.975630 -0.604481
O56   O     O_R   0.582790 0.046830 0.500060 -0.614083
O57   O     O_R   0.500000 0.418520 0.975630 -0.604482
O58   O     O_R   0.581480 0.500000 0.024370 -0.604481
O59   O     O_R   0.500000 0.418520 0.024370 -0.604482
O60   O     O_R   0.418520 0.500000 0.024370 -0.604482
O61   O     O_R   0.500000 0.581480 0.024370 -0.604482
O62   O     O_3   0.951268 0.409790 0.354197 -0.560694
O63   O     O_3   0.590212 0.951274 0.354197 -0.560693
O64   O     O_3   0.048728 0.590204 0.354195 -0.560695
O65   O     O_3   0.409792 0.048723 0.354196 -0.560693
O66   O     O_3   0.951275 0.590212 0.645803 -0.560691
O67   O     O_R   0.046830 0.417210 0.500060 -0.614082
O68   O     O_3   0.590216 0.048741 0.645800 -0.560702
O69   O     O_3   0.048724 0.409792 0.645804 -0.560693
O70   O     O_3   0.409809 0.951269 0.645808 -0.560704
O71   O     O_3   0.451254 0.909814 0.854193 -0.560691
O72   O     O_3   0.090206 0.451273 0.854196 -0.560693
O73   O     O_3   0.548755 0.090206 0.854199 -0.560690
O74   O     O_3   0.909789 0.548728 0.854197 -0.560692
O75   O     O_3   0.451271 0.090205 0.145804 -0.560692
O76   O     O_3   0.090202 0.548730 0.145805 -0.560695
O77   O     O_3   0.548732 0.909791 0.145803 -0.560693
O78   O     O_R   0.417210 0.953170 0.500060 -0.614081
O79   O     O_3   0.909789 0.451269 0.145802 -0.560694
O80   O     O_R   0.453170 0.917210 0.999940 -0.614081
Zn1   Zn    Zn3+2 0.937490 0.500000 0.500000 0.962514
Zn2   Zn    Zn3+2 0.000000 0.000000 0.531500 1.000156
Zn3   Zn    Zn3+2 0.500000 0.500000 0.968500 1.000157
Zn4   Zn    Zn3+2 0.500000 0.500000 0.031500 1.000156
Zn5   Zn    Zn3+2 0.500000 0.937490 0.500000 0.962514
Zn6   Zn    Zn3+2 0.062510 0.500000 0.500000 0.962515
Zn7   Zn    Zn3+2 0.500000 0.062510 0.500000 0.962513
Zn8   Zn    Zn3+2 0.437490 0.000000 0.000000 0.962511
Zn9   Zn    Zn3+2 0.000000 0.437490 0.000000 0.962514
Zn10  Zn    Zn3+2 0.562510 0.000000 0.000000 0.962510
Zn11  Zn    Zn3+2 0.000000 0.562510 0.000000 0.962514
Zn12  Zn    Zn3+2 1.000000 0.000000 0.468500 1.000156

loop_
_geom_bond_atom_site_label_1
_geom_bond_atom_site_label_2
_ccdc_geom_bond_type
O80   Zn8   S    
C71   H45   S    
O52   Zn2   S    
C134  O17   A    
C92   C133  S    
C86   H92   S    
C57   N12   S    
C146  O33   S    
H98   N20   S    
C140  N12   A    
C51   N26   S    
C70   H42   S    
C73   O65   S    
C2    C29   A    
C15   C163  A    
C21   C170  A    
C72   H48   S    
C111  O78   A    
C153  C173  A    
C154  C170  A    
C34   C35   A    
C130  O9    A    
C36   C53   A    
C12   C161  A    
C28   O64   S    
C38   C55   A    
C127  O61   A    
C148  O36   S    
C91   C122  S    
C144  O3    A    
C85   H86   S    
C88   C97   T    
C28   C166  A    
C1    O1    A    
O54   Zn3   S    
C139  C159  A    
C86   O79   S    
O50   Zn2   S    
C13   N37   S    
C142  C158  A    
C8    C157  A    
C54   C65   A    
C109  C118  T    
C17   N9    S    
C15   C20   A    
C146  C161  A    
C25   N17   S    
C142  O30   S    
C40   C58   A    
C116  C121  S    
C24   N36   S    
C13   C30   A    
C147  N34   A    
C139  O27   S    
O55   Zn3   S    
C73   H51   S    
O10   Zn5   S    
C48   C63   A    
C31   O68   S    
C2    N38   S    
H5    N29   S    
C71   H44   S    
C4    C168  A    
C103  C112  S    
C93   C102  T    
C123  O46   A    
H39   N17   S    
C39   C56   A    
C80   H71   S    
H58   N3    S    
C74   O66   S    
C65   C135  S    
C3    C164  A    
C66   C136  S    
C141  C157  A    
C11   N4    S    
C153  O41   S    
C72   H49   S    
C87   C89   S    
H27   N11   S    
C1    C79   S    
C5    C176  A    
H104  N24   S    
C86   H90   S    
C139  N1    A    
H37   N16   S    
C43   C61   A    
H103  N22   S    
C155  O8    A    
O20   Zn10  S    
C12   N5    S    
C77   O70   S    
C121  O49   A    
O44   Zn12  S    
C51   C64   A    
C20   N13   S    
C149  N37   A    
C74   H55   S    
C147  C162  A    
O2    Zn9   S    
C154  O42   S    
C127  O54   A    
C78   H67   S    
O24   Zn11  S    
C106  C115  T    
H35   N16   S    
H102  N5    S    
C9    C21   A    
C9    N2    S    
C9    C158  A    
C151  C167  A    
C128  O60   A    
C11   C23   A    
C82   O74   S    
O8    Zn9   S    
C40   O76   S    
O5    Zn8   S    
C41   C57   A    
C25   C173  A    
C128  O55   A    
O25   Zn10  S    
O1    Zn1   S    
O13   Zn7   S    
C122  O7    A    
H38   N17   S    
C52   C65   A    
C149  O37   S    
C132  O16   A    
C52   N27   S    
C13   C32   A    
H105  N24   S    
C47   C62   A    
C71   H43   S    
C6    C172  A    
H69   N3    S    
C99   C108  S    
C32   O69   S    
C29   C47   A    
C77   H65   S    
C135  O20   A    
C44   N19   S    
C30   C48   A    
H91   N4    S    
O14   Zn1   S    
C152  C172  A    
C90   C98   T    
C59   C67   A    
C83   H82   S    
H111  N27   S    
H29   N13   S    
C3    C162  A    
C143  O31   S    
C27   C44   A    
O67   Zn6   S    
C94   C155  S    
C147  O35   S    
C77   H64   S    
C8    C22   A    
C82   H77   S    
C36   C46   A    
H3    N28   S    
H95   N19   S    
C33   O70   S    
C29   O65   S    
C152  O40   S    
C157  C174  A    
H99   N21   S    
C152  N38   A    
C49   C64   A    
C78   O71   S    
C50   C63   A    
C14   C17   A    
C90   C111  S    
C124  O47   A    
C74   H53   S    
C125  O50   A    
C85   O77   S    
O49   Zn2   S    
H34   N15   S    
C161  C176  A    
C89   O56   A    
C153  N39   A    
H2    N5    S    
C80   H72   S    
C76   H60   S    
C48   N22   S    
C93   C144  S    
C10   C25   A    
H9    N31   S    
C75   O68   S    
C71   O63   S    
C160  C175  A    
C80   H70   S    
C72   O64   S    
C3    C4    A    
H25   N40   S    
C6    C170  A    
H19   N7    S    
C69   C138  S    
H6    N30   S    
C135  O18   A    
C108  C117  T    
C143  N23   A    
C110  C119  T    
C137  O25   A    
O12   Zn5   S    
O17   Zn5   S    
C156  O43   S    
H14   N33   S    
C140  C160  A    
H10   N32   S    
H94   N18   S    
C60   C69   A    
C119  C129  S    
O15   Zn7   S    
C124  O51   A    
C129  O57   A    
C75   H56   S    
C67   C137  S    
C34   O71   S    
C38   C46   A    
C136  O21   A    
C155  O4    A    
C158  C175  A    
C111  O34   A    
H109  N26   S    
H47   N2    S    
H112  N28   S    
C35   N34   S    
C91   C99   T    
C68   N1    S    
O53   Zn3   S    
O51   Zn2   S    
C138  O26   A    
C96   C105  S    
O78   Zn5   S    
C7    C171  A    
O23   Zn6   S    
C151  O39   S    
C84   H83   S    
C81   H74   S    
C56   N31   S    
O46   Zn12  S    
C16   N8    S    
O3    Zn10  S    
C83   O75   S    
H33   N15   S    
C85   H87   S    
C126  O53   A    
C81   O73   S    
C73   H50   S    
C120  C126  S    
C140  O28   S    
C14   N6    S    
C6    C175  A    
C101  C109  S    
O34   Zn7   S    
C7    C174  A    
O9    Zn1   S    
C4    C165  A    
C76   H62   S    
C21   N14   S    
C143  C163  A    
C23   N16   S    
C133  O6    A    
C50   N25   S    
C137  O22   A    
C38   O74   S    
C76   H61   S    
C159  C174  A    
H23   N9    S    
C2    C27   A    
C49   N24   S    
C22   C171  A    
C20   C169  A    
C36   O72   S    
O61   Zn4   S    
H31   N14   S    
C145  N34   A    
C31   C49   A    
H97   N20   S    
C145  O32   S    
C11   C160  A    
C64   C134  S    
C70   H41   S    
C132  O14   A    
C144  O5    A    
H107  N25   S    
C39   O75   S    
C70   O62   S    
C100  O45   A    
C37   O73   S    
C16   C164  A    
C98   C107  S    
C83   H79   S    
C150  O38   S    
C14   C162  A    
C79   C95   T    
C30   O66   S    
C113  C123  S    
C18   C167  A    
H110  N27   S    
C117  C127  S    
C88   C100  S    
C92   C101  T    
C97   C106  S    
H20   N8    S    
C94   C103  T    
C18   N10   S    
O45   Zn1   S    
C148  C168  A    
C149  C169  A    
C84   H85   S    
C102  C110  S    
C41   O77   S    
C19   C168  A    
C85   H88   S    
C55   N30   S    
C55   C66   A    
C112  C120  T    
H13   N6    S    
C82   H76   S    
C62   C131  S    
C60   N35   S    
C115  C125  S    
C46   N23   S    
C73   H52   S    
C58   C69   A    
C10   N3    S    
H108  N26   S    
C33   C51   A    
C34   C52   A    
C24   C33   A    
C138  O24   A    
C47   N21   S    
C131  O10   A    
C22   N15   S    
C24   C31   A    
H32   N14   S    
C136  O19   A    
C17   C165  A    
C150  N36   A    
C16   C19   A    
C45   C61   A    
C53   N28   S    
C83   H81   S    
C58   N32   S    
C154  N38   A    
H106  N25   S    
C78   H68   S    
C141  O29   S    
H93   N18   S    
C142  N12   A    
C40   C68   A    
C77   H63   S    
C5    C169  A    
C166  N39   S    
C82   H78   S    
O58   Zn4   S    
C86   H89   S    
C129  O59   A    
C10   C159  A    
C26   O62   S    
H28   N11   S    
H96   N19   S    
C74   H54   S    
C42   O79   S    
C15   N7    S    
C78   H66   S    
C146  N23   A    
O59   Zn4   S    
C35   C37   A    
H101  N22   S    
O21   Zn11  S    
C39   C57   A    
C125  O48   A    
C23   C172  A    
C121  O44   A    
C43   N18   S    
C75   H59   S    
C54   N29   S    
C131  O13   A    
C151  N37   A    
C114  C124  S    
C84   O76   S    
H21   N8    S    
O6    Zn11  S    
C59   N33   S    
C42   C68   A    
H11   N32   S    
C118  C128  S    
C163  C176  A    
C26   C43   A    
H4    N29   S    
C107  C116  T    
C28   C45   A    
H26   N10   S    
H7    N30   S    
C105  C114  T    
C41   C59   A    
C42   C60   A    
C133  O2    A    
O57   Zn3   S    
C44   C62   A    
C63   C132  S    
C150  C165  A    
C104  C113  T    
H1    N40   S    
H24   N10   S    
C72   H46   S    
C87   C96   T    
C123  O52   A    
C53   C66   A    
C32   C50   A    
C130  O11   A    
C61   C130  S    
C81   H75   S    
C37   C54   A    
H18   N7    S    
H22   N9    S    
C89   O12   A    
O16   Zn6   S    
H30   N13   S    
C126  O58   A    
O7    Zn10  S    
H16   N35   S    
H80   N4    S    
O26   Zn9   S    
H36   N2    S    
C95   C104  S    
C26   C166  A    
O22   Zn8   S    
C100  O23   A    
C84   H84   S    
C134  O15   A    
C81   H73   S    
H100  N21   S    
C80   O72   S    
O47   Zn12  S    
C141  N1    A    
C145  C164  A    
C56   C67   A    
C156  C171  A    
C1    O67   A    
C70   H40   S    
C76   O69   S    
H8    N31   S    
C27   O63   S    
O11   Zn6   S    
C7    C173  A    
O60   Zn4   S    
C19   N11   S    
H12   N33   S    
C75   H57   S    
H15   N35   S    
C5    C167  A    
O18   Zn8   S    
C8    N40   S    
C156  N39   A    
O48   Zn12  S    
C45   N20   S    
C12   C18   A    
O19   Zn9   S    
O4    Zn11  S    
H17   N6    S    
C148  N36   A    
O56   Zn7   S    
C122  O80   A    
