data_mof_unit_47484.cif
_audit_creation_date              2012-12-11T18:07:18-0500
_audit_creation_method            fapswitch 2.2
_symmetry_space_group_name_H-M    P1
_symmetry_Int_Tables_number       1
_space_group_crystal_system       triclinic
_cell_length_a                    8.274667
_cell_length_b                    12.771055
_cell_length_c                    26.916949
_cell_angle_alpha                 96.360999
_cell_angle_beta                  92.653605
_cell_angle_gamma                 81.385227
_cell_volume                      2793.7981175

loop_
_atom_site_label
_atom_site_type_symbol
_atom_type_description
_atom_site_fract_x
_atom_site_fract_y
_atom_site_fract_z
_atom_type_partial_charge
Ba1   Ba    Ba6+2 0.859560 0.448380 0.523550 1.648035
Ba2   Ba    Ba6+2 0.330270 0.551530 0.476440 1.673856
C1    C     C_3   0.652371 0.076374 0.667529 0.480804
C2    C     C_R   0.889280 0.592384 0.178959 0.620424
C3    C     C_2   0.724939 0.522356 0.269938 -0.079584
C4    C     C_3   0.074255 0.230414 0.656922 0.351336
C5    C     C_3   0.695733 0.516345 0.324320 -0.033281
C6    C     C_1   0.989243 0.469191 0.338002 -0.010482
C7    C     C_2   0.016832 0.456570 0.288052 0.313702
C8    C     C_2   0.876191 0.492468 0.251849 0.135585
C9    C     C_R   0.980404 0.501164 0.098346 -0.079819
C10   C     C_R   0.968108 0.403552 0.116616 -0.039179
C11   C     C_R   0.998490 0.309795 0.084205 -0.008618
C12   C     C_3   0.616485 0.189422 0.649353 0.384942
C13   C     C_R   0.929662 0.596323 0.128694 -0.045215
C14   C     C_2   0.851752 0.525850 0.354985 -0.364646
C15   C     C_2   0.351327 0.482293 0.642411 -0.304411
C16   C     C_3   0.092174 0.218082 0.712599 -0.321721
C17   C     C_R   0.150507 0.408707 0.970596 0.021741
C18   C     C_R   0.094468 0.606037 0.980455 -0.036220
C19   C     C_R   0.139402 0.507993 0.950018 0.007518
C20   C     C_R   0.233377 0.316055 0.942389 0.106243
C21   C     C_R   0.269549 0.319467 0.892562 -0.009162
C22   C     C_R   0.240471 0.414264 0.870002 -0.060871
C23   C     C_3   0.484202 0.718049 0.627502 0.294615
C24   C     C_R   0.180702 0.509270 0.899046 -0.085915
C25   C     C_R   0.166807 0.605821 0.877446 -0.076321
C26   C     C_R   0.200753 0.605103 0.826078 0.626188
C27   C     C_R   0.281620 0.416585 0.819802 0.594694
C28   C     C_3   0.217231 0.223928 0.419046 0.273322
C29   C     C_2   0.456091 0.483648 0.730983 -0.060802
C30   C     C_3   0.498572 0.488389 0.676874 -0.041760
C31   C     C_1   0.207641 0.529001 0.658299 0.039582
C32   C     C_2   0.168076 0.535040 0.706050 -0.108630
C33   C     C_2   0.298638 0.509953 0.745459 0.203630
C34   C     C_3   0.429848 0.763011 0.679727 -0.306882
C35   C     C_R   0.084579 0.406946 0.018661 0.018716
C36   C     C_R   0.035727 0.503750 0.048860 0.060862
C37   C     C_R   0.034664 0.602944 0.029446 0.027122
C38   C     C_R   0.051120 0.312002 0.035948 -0.100379
C39   C     C_R   0.913882 0.692631 0.107358 0.013171
C40   C     C_3   0.218742 0.104516 0.407786 -0.297522
C41   C     C_R   0.117459 0.702003 0.960292 0.317360
C42   C     C_R   0.134662 0.701258 0.908637 -0.074993
C43   C     C_R   0.957354 0.694697 0.058023 -0.006585
C44   C     C_R   0.754526 0.820788 0.476948 -0.273139
C45   C     C_3   0.020402 0.780314 0.335616 0.261446
C46   C     C_R   0.432351 0.187504 0.518677 -0.298308
C47   C     C_R   0.407340 0.008960 0.534254 -0.086345
C48   C     C_R   0.343661 0.116443 0.536719 0.031278
C49   C     C_R   0.577121 0.151765 0.493551 0.076252
C50   C     C_R   0.639007 0.040794 0.487255 -0.050494
C51   C     C_R   0.553873 0.969201 0.509185 -0.074188
C52   C     C_3   0.987951 0.768725 0.574631 0.297778
C53   C     C_R   0.615804 0.859411 0.504579 0.044360
C54   C     C_R   0.842526 0.889347 0.456541 -0.021625
C55   C     C_R   0.783393 0.998858 0.460657 -0.083546
C56   C     C_3   0.106825 0.771084 0.286027 0.380820
C57   C     C_3   0.969083 0.889093 0.582032 -0.358503
C58   C     C_3   0.711101 0.295805 0.372897 0.310141
C59   C     C_3   0.750252 0.248867 0.319288 -0.112243
C60   C     C_3   0.540986 0.816228 0.361709 0.321636
C61   C     C_3   0.543812 0.921490 0.340673 -0.337649
C62   C     C_R   0.920346 0.402431 0.166358 0.719478
H1    H     H_    0.671263 0.181059 0.611802 -0.027355
H2    H     H_    0.821362 0.323917 0.391390 0.027174
H3    H     H_    0.610069 0.363371 0.372342 0.029755
H4    H     H_    0.613657 0.019180 0.636718 0.020697
H5    H     H_    0.774274 0.312117 0.296931 0.086618
H6    H     H_    0.644411 0.213597 0.301284 0.128088
H7    H     H_    0.379337 0.685435 0.607409 0.013163
H8    H     H_    0.588781 0.653253 0.630265 0.035885
H9    H     H_    0.323146 0.826277 0.677041 0.161026
H10   H     H_    0.392660 0.700241 0.700055 0.058644
H11   H     H_    0.531496 0.796325 0.701184 0.186243
H12   H     H_    0.271810 0.077204 0.370762 0.158460
H13   H     H_    0.212083 0.236862 0.727069 0.197873
H14   H     H_    0.043111 0.699438 0.348159 -0.027268
H15   H     H_    0.887103 0.802430 0.329565 0.029182
H16   H     H_    0.240073 0.759895 0.292925 0.083257
H17   H     H_    0.077692 0.699761 0.262098 0.025172
H18   H     H_    0.658939 0.794720 0.381843 -0.053827
H19   H     H_    0.437756 0.827181 0.387748 0.087283
H20   H     H_    0.647462 0.915173 0.315524 0.182412
H21   H     H_    0.557213 0.984957 0.371628 0.051407
H22   H     H_    0.945193 0.238411 0.645090 0.090004
H23   H     H_    0.292473 0.061001 0.436336 0.056771
H24   H     H_    0.428986 0.943235 0.318942 0.185815
H25   H     H_    0.980220 0.234000 0.095870 0.156349
H26   H     H_    0.553587 0.466300 0.758572 0.107568
H27   H     H_    0.329257 0.247179 0.872081 0.163584
H28   H     H_    0.058191 0.238435 0.011979 0.102009
H29   H     H_    0.622246 0.544630 0.244726 0.142506
H30   H     H_    0.863257 0.766751 0.128300 0.170755
H31   H     H_    0.123333 0.304612 0.651710 0.034612
H32   H     H_    0.140896 0.775891 0.893681 0.159696
H33   H     H_    0.041808 0.557511 0.716772 0.116330
H34   H     H_    0.092072 0.085675 0.406886 0.135573
H35   H     H_    0.925131 0.769049 0.042388 0.165411
H36   H     H_    0.854268 0.587364 0.386186 0.074482
H37   H     H_    0.367856 0.451883 0.603392 0.078980
H38   H     H_    0.338307 0.957665 0.551110 0.115228
H39   H     H_    0.852834 0.049594 0.443756 0.100254
H40   H     H_    0.800270 0.736442 0.473790 0.055738
H41   H     H_    0.383539 0.271390 0.522028 0.063196
H42   H     H_    0.995691 0.273347 0.733336 0.113179
H43   H     H_    0.086660 0.135780 0.720171 0.151852
H44   H     H_    0.343651 0.240786 0.425471 -0.000866
H45   H     H_    0.871458 0.742583 0.560727 -0.003731
H46   H     H_    0.143927 0.251999 0.452756 0.057121
H47   H     H_    0.924787 0.146570 0.281479 0.273851
H48   H     H_    0.861112 0.099615 0.331814 0.225528
H49   H     H_    0.401279 0.267192 0.677221 0.206135
H50   H     H_    0.417129 0.269961 0.615859 0.097946
H51   H     H_    0.317837 0.999827 0.732002 0.356740
H52   H     H_    0.893350 0.067502 0.650414 0.139445
H53   H     H_    0.854792 0.085844 0.712284 0.225328
H54   H     H_    0.833383 0.978761 0.227456 0.371583
H55   H     H_    0.368867 0.287564 0.308568 0.343715
H56   H     H_    0.081908 0.741317 0.546373 0.092522
H57   H     H_    0.339419 0.240718 0.002497 0.209789
H58   H     H_    0.236782 0.162946 0.958369 0.212130
H59   H     H_    0.980586 0.928460 0.968686 0.334389
H60   H     H_    0.844254 0.920598 0.594688 0.098831
H61   H     H_    0.986470 0.920453 0.546367 0.102532
H62   H     H_    0.062663 0.915992 0.609493 0.163183
N1    N     N_R   0.899374 0.495543 0.198508 -0.417485
N2    N     N_R   0.257111 0.510596 0.797702 -0.429309
N3    N     N_3   0.893975 0.167533 0.318842 -0.424844
N4    N     N_3   0.440842 0.220731 0.644492 -0.456416
N5    N     N_3   0.825842 0.045085 0.678119 -0.473820
N6    N     N_3   0.310160 0.223233 0.964609 -0.476760
O1    O     O_2   0.907040 0.557650 0.617910 -0.454914
O2    O     O_2   0.180405 0.882751 0.463193 -0.491271
O3    O     O_3   0.082110 0.856961 0.370154 -0.595649
O4    O     O_3   0.139040 0.557570 0.557730 -0.503615
O5    O     O_3   0.571310 0.369620 0.475470 -0.488013
O6    O     O_2   0.348200 0.764910 0.523260 -0.478050
O7    O     O_3   0.533833 0.799843 0.603864 -0.624864
O8    O     O_2   0.355143 0.581823 0.326649 -0.444274
O9    O     O_3   0.520501 0.737272 0.322356 -0.592727
O10   O     O_2   0.897224 0.318881 0.180994 -0.526237
O11   O     O_2   0.340604 0.334488 0.795773 -0.559428
O12   O     O_3   0.660218 0.216674 0.397513 -0.654192
O13   O     O_2   0.843468 0.674977 0.205076 -0.548378
O14   O     O_2   0.183706 0.688762 0.807046 -0.568165
O15   O     O_3   0.684960 0.360550 0.588460 -0.483884
O16   O     O_2   0.833305 0.427858 0.673248 -0.508893
O17   O     O_3   0.032655 0.728703 0.620355 -0.615853
O18   O     O_3   0.686372 0.266131 0.682017 -0.606228
O19   O     O_2   0.841490 0.235060 0.476710 -0.477324
O20   O     O_3   0.099640 0.305100 0.564190 -0.500914
O21   O     O_2   0.002100 0.115882 0.540717 -0.507856
O22   O     O_2   0.635358 0.969825 0.747584 -0.275731
O23   O     O_3   0.155331 0.140857 0.628474 -0.576188
O24   O     O_2   0.525298 0.159139 0.756688 -0.230258
O25   O     O_3   0.358344 0.027467 0.702684 -0.526669
O26   O     O_2   0.129534 0.976486 0.280423 -0.297930
O27   O     O_2   0.123339 0.860967 0.201607 -0.225627
O28   O     O_3   0.851018 0.918333 0.248144 -0.517868
O29   O     O_2   0.148288 0.265930 0.244812 -0.241689
O30   O     O_2   0.237288 0.421296 0.215408 -0.279516
O31   O     O_3   0.362097 0.359592 0.297563 -0.500838
O32   O     O_2   0.242084 0.789491 0.047559 -0.223380
O33   O     O_2   0.307306 0.856944 0.970876 -0.260157
O34   O     O_2   0.282660 0.442310 0.382060 -0.427864
O35   O     O_3   0.014818 0.913668 0.003273 -0.491476
O36   O     O_3   0.050670 0.442340 0.442260 -0.503072
O37   O     O_3   0.504750 0.639360 0.411530 -0.487727
O38   O     O_3   0.151103 0.271502 0.377094 -0.596896
O39   O     O_3   0.618400 0.630290 0.524520 -0.477717
O40   O     O_3   0.090070 0.694820 0.435810 -0.485166
P1    P     P_3+3 0.072810 0.589830 0.610360 0.995079
P2    P     P_3+3 0.661990 0.251250 0.462170 0.971551
P3    P     P_3+3 0.146939 0.167696 0.565788 0.943274
P4    P     P_3+3 0.116900 0.410080 0.389630 1.045479
P5    P     P_3+3 0.046044 0.832436 0.431306 0.929683
P6    P     P_3+3 0.672704 0.386752 0.654296 0.937912
P7    P     P_3+3 0.533116 0.764381 0.539254 0.946018
P8    P     P_3+3 0.519763 0.615729 0.346853 1.008376
S1    S     S_3+6 0.542619 0.059223 0.721246 -0.043430
S2    S     S_3+6 0.055017 0.885595 0.253048 -0.031881
S3    S     S_3+6 0.192781 0.374742 0.260899 -0.020869
S4    S     S_3+6 0.175837 0.816261 0.996835 -0.053607

loop_
_geom_bond_atom_site_label_1
_geom_bond_atom_site_label_2
_ccdc_geom_bond_type
C59   H6    S    
O40   P5    S    
C60   H19   S    
C26   O14   D    
C52   H56   S    
C61   H24   S    
C49   P2    S    
O9    P8    S    
H54   O28   S    
C1    H4    S    
C45   H15   S    
C19   C24   A    
O39   P7    S    
O38   P4    S    
C48   P3    S    
C57   H62   S    
Ba1   P1    S    
C24   C25   A    
C35   C36   A    
C15   C31   D    
C54   P5    S    
H51   O25   S    
C1    N5    S    
C23   O7    S    
C22   C24   A    
C32   C33   S    
C35   C38   A    
C20   N6    S    
C40   H34   S    
C36   C37   A    
C10   C62   A    
C59   H5    S    
C27   O11   D    
O22   S1    D    
C41   S4    S    
C32   H33   S    
C54   C55   A    
Ba1   O20   S    
Ba1   Ba2   S    
H58   N6    S    
C15   H37   S    
C16   H43   S    
C28   O38   S    
C11   C38   A    
C17   C35   A    
Ba2   P4    S    
C22   C27   A    
O20   P3    S    
C9    C13   A    
C25   C42   A    
H47   N3    S    
C46   C49   A    
O35   S4    S    
C58   H3    S    
C6    C7    D    
C44   C53   A    
C21   C22   A    
C23   H7    S    
H48   N3    S    
O33   S4    D    
Ba1   O4    S    
C31   P1    S    
C7    C8    S    
Ba2   O34   S    
O37   P8    S    
O17   P1    S    
C4    O23   S    
C56   H16   S    
Ba2   O39   S    
C37   C43   A    
H59   O35   S    
C62   N1    Am   
C46   C48   A    
C60   H18   S    
C58   H2    S    
C6    C14   D    
O19   P2    D    
C61   H21   S    
H50   N4    S    
C30   P6    S    
O25   S1    S    
Ba1   O1    S    
O6    P7    D    
O28   S2    S    
C52   O17   S    
C11   H25   S    
C52   C57   S    
C51   C53   A    
C55   H39   S    
C4    C16   S    
Ba1   P2    S    
H49   N4    S    
O31   S3    S    
C49   C50   A    
Ba2   O6    S    
C17   C20   A    
O3    P5    S    
C43   H35   S    
C56   H17   S    
H55   O31   S    
C47   H38   S    
C3    C5    S    
C18   C37   A    
C14   H36   S    
C23   C34   S    
Ba1   O36   S    
C44   H40   S    
Ba1   O39   S    
Ba2   O4    S    
C52   H45   S    
C58   C59   S    
O29   S3    D    
C9    C36   A    
C41   C42   A    
C16   H42   S    
C60   C61   S    
C7    S3    S    
C34   H11   S    
O30   S3    D    
C1    S1    S    
C39   H30   S    
C9    C10   A    
C29   H26   S    
C12   O18   S    
C31   C32   D    
C45   O3    S    
C23   H8    S    
C38   H28   S    
O26   S2    D    
C13   C39   A    
C1    C12   S    
C34   H10   S    
C5    C14   S    
C28   H46   S    
C47   C48   A    
C21   H27   S    
Ba1   O15   S    
C60   O9    S    
C44   C54   A    
C8    N1    S    
Ba2   O36   S    
C18   C41   A    
Ba1   O5    S    
C50   C51   A    
C12   N4    S    
O23   P3    S    
C57   H60   S    
O36   P4    S    
O4    P1    S    
O16   P6    D    
C42   H32   S    
C2    N1    Am   
C17   C19   A    
C18   C19   A    
Ba2   O5    S    
O34   P4    D    
C29   C30   S    
C3    H29   S    
O24   S1    D    
C6    P4    S    
C59   N3    S    
C57   H61   S    
O21   P3    D    
C40   H12   S    
C4    H22   S    
O18   P6    S    
C61   H20   S    
C56   S2    S    
C2    C13   A    
O5    P2    S    
O27   S2    D    
C58   O12   S    
C45   C56   S    
O15   P6    S    
H52   N5    S    
C62   O10   D    
C16   H13   S    
C47   C51   A    
C2    O13   D    
O8    P8    D    
C12   H1    S    
C5    P8    S    
Ba1   O19   S    
C29   C33   D    
O2    P5    D    
C33   N2    S    
H53   N5    S    
O7    P7    S    
C50   C55   A    
Ba2   O37   S    
C28   H44   S    
C3    C8    D    
C53   P7    S    
C10   C11   A    
C4    H31   S    
C27   N2    Am   
O12   P2    S    
C25   C26   A    
C15   C30   S    
C39   C43   A    
C20   C21   A    
C28   C40   S    
C40   H23   S    
H57   N6    S    
C45   H14   S    
C46   H41   S    
O1    P1    D    
C34   H9    S    
O32   S4    D    
C26   N2    Am   
Ba2   O40   S    
