data_mof_unit_42990.cif
_audit_creation_date              2012-10-26T20:13:55-0400
_audit_creation_method            fapswitch 2.2
_symmetry_space_group_name_H-M    P1
_symmetry_Int_Tables_number       1
_space_group_crystal_system       triclinic
_cell_length_a                    8.731348
_cell_length_b                    10.833318
_cell_length_c                    9.55489
_cell_angle_alpha                 90.40109
_cell_angle_beta                  97.830701
_cell_angle_gamma                 90.160684
_cell_volume                      895.335713657

loop_
_atom_site_label
_atom_site_type_symbol
_atom_type_description
_atom_site_fract_x
_atom_site_fract_y
_atom_site_fract_z
_atom_type_partial_charge
C1    C     C_R   0.496431 0.262419 0.499065 0.547709
C2    C     C_R   0.632480 0.524787 0.943073 0.161996
C3    C     C_3   0.726538 0.639965 0.949151 -0.281196
C4    C     C_R   0.203921 0.499305 0.463887 0.551559
C5    C     C_3   0.724210 0.642375 0.107693 -0.276171
C6    C     C_R   0.497390 0.737773 0.499892 0.551696
C7    C     C_R   0.796102 0.500014 0.536169 0.546153
C8    C     C_2   0.038138 0.497355 0.444174 -0.151889
C9    C     C_2   0.961957 0.500742 0.556133 -0.152191
C10   C     C_R   0.467944 0.065020 0.619702 0.111922
C11   C     C_R   0.479881 0.129467 0.495789 -0.023738
C12   C     C_R   0.470699 0.934792 0.368320 -0.162647
C13   C     C_R   0.469818 0.063521 0.367611 -0.170220
C14   C     C_R   0.481859 0.871019 0.497211 -0.009591
C15   C     C_R   0.469393 0.937855 0.620600 -0.001020
C16   C     C_3   0.565817 0.934254 0.762271 -0.242058
C17   C     C_3   0.563690 0.074480 0.761169 0.104565
C18   C     C_R   0.632086 0.525867 0.090284 0.159430
C19   C     C_R   0.374119 0.461713 0.058306 -0.007317
C20   C     C_R   0.374064 0.461815 0.909697 0.015049
Cu1   Cu    Cu3+1 0.499990 0.499980 0.640670 0.962829
Cu2   Cu    Cu3+1 0.500010 0.500020 0.359330 0.938562
H1    H     H_    0.978582 0.492498 0.336813 0.117773
H2    H     H_    0.501892 0.893241 0.843745 0.157774
H3    H     H_    0.682945 0.895913 0.757169 0.092350
H4    H     H_    0.678255 0.119516 0.759091 0.115472
H5    H     H_    0.271353 0.431973 0.100221 0.120480
H6    H     H_    0.549412 0.126648 0.951905 0.315897
H7    H     H_    0.271264 0.432091 0.841810 0.125482
H8    H     H_    0.843500 0.623467 0.919300 0.125907
H9    H     H_    0.662354 0.717101 0.893711 0.141152
H10   H     H_    0.840357 0.628840 0.168848 0.124741
H11   H     H_    0.657778 0.721147 0.143764 0.145033
H12   H     H_    0.021586 0.504683 0.663662 0.116330
H13   H     H_    0.469455 0.110652 0.267953 0.148386
H14   H     H_    0.470555 0.886050 0.268935 0.139024
N1    N     N_R   0.500980 0.500930 0.148050 -0.235887
N2    N     N_R   0.500990 0.500890 0.852140 -0.230489
O1    O     O_R   0.500000 0.319640 0.618810 -0.467282
O2    O     O_R   0.500020 0.319680 0.381230 -0.506474
O3    O     O_R   0.274830 0.499980 0.591380 -0.508645
O4    O     O_R   0.274850 0.500020 0.353800 -0.511153
O5    O     O_R   0.499980 0.680320 0.618770 -0.501750
O6    O     O_R   0.500000 0.680360 0.381190 -0.508020
O7    O     O_R   0.725150 0.499980 0.646200 -0.504502
O8    O     O_R   0.725170 0.500020 0.408620 -0.499454
O9    O     O_3   0.478040 0.124139 0.861738 -0.685580

loop_
_geom_bond_atom_site_label_1
_geom_bond_atom_site_label_2
_ccdc_geom_bond_type
C3    H8    S    
H6    O9    S    
C2    C18   A    
C19   H5    S    
C2    N2    A    
C19   C20   A    
Cu1   O1    S    
C4    C8    S    
C6    O5    A    
C5    H10   S    
Cu2   O2    S    
C2    C3    S    
C6    C14   S    
C16   H2    S    
C6    O6    A    
Cu1   Cu2   S    
C3    H9    S    
C11   C13   A    
Cu2   O4    S    
C4    O4    A    
Cu1   O3    S    
C17   H4    S    
C7    O7    A    
Cu2   O8    S    
C18   N1    A    
C12   C14   A    
C13   H13   S    
Cu1   O7    S    
C20   H7    S    
C9    H12   S    
C12   H14   S    
C4    O3    A    
C1    O1    A    
C10   C17   S    
C15   C16   S    
C7    O8    A    
C8    H1    S    
C20   N2    A    
C12   C13   A    
C10   C11   A    
C16   H3    S    
C7    C9    S    
C14   C15   A    
C16   C17   S    
C5    C18   S    
C19   N1    A    
C1    O2    A    
C10   C15   A    
Cu1   O5    S    
Cu2   N1    S    
Cu2   O6    S    
Cu1   N2    S    
C17   O9    S    
C5    H11   S    
C8    C9    D    
C3    C5    S    
C1    C11   S    
