data_mof_unit_61991.cif
_audit_creation_date              2012-10-26T20:55:09-0400
_audit_creation_method            fapswitch 2.2
_symmetry_space_group_name_H-M    P1
_symmetry_Int_Tables_number       1
_space_group_crystal_system       triclinic
_cell_length_a                    10.817619
_cell_length_b                    15.819861
_cell_length_c                    17.084814
_cell_angle_alpha                 94.494126
_cell_angle_beta                  90.609648
_cell_angle_gamma                 91.352929
_cell_volume                      2913.7484403

loop_
_atom_site_label
_atom_site_type_symbol
_atom_type_description
_atom_site_fract_x
_atom_site_fract_y
_atom_site_fract_z
_atom_type_partial_charge
Br1   Br    Br    0.352409 0.347310 0.715823 -0.307284
Br2   Br    Br    0.831371 0.477727 0.665313 -0.366369
Br3   Br    Br    0.145888 0.589161 0.348751 -0.347764
Br4   Br    Br    0.398162 0.331079 0.903685 -0.228065
Br5   Br    Br    0.567370 0.315818 0.241770 -0.321911
Br6   Br    Br    0.653280 0.664755 0.745992 -0.302462
Br7   Br    Br    0.675524 0.643555 0.935898 -0.247267
Br8   Br    Br    0.129672 0.384250 0.353267 -0.340744
Br9   Br    Br    0.711150 0.101430 0.567582 -0.259472
Br10  Br    Br    0.667185 0.910569 0.652838 -0.237299
Br11  Br    Br    0.839841 0.351910 0.376479 -0.316405
C1    C     C_R   0.496515 0.491104 0.348526 0.601931
C2    C     C_R   0.512381 0.422514 0.209757 0.149717
C3    C     C_R   0.466389 0.427357 0.854467 0.204398
C4    C     C_R   0.259702 0.501056 0.498792 0.557221
C5    C     C_R   0.450264 0.435456 0.774006 0.142644
C6    C     C_R   0.532887 0.489432 0.900824 0.180183
C7    C     C_R   0.503991 0.506395 0.738856 -0.043255
C8    C     C_R   0.570969 0.569120 0.787327 0.149539
C9    C     C_R   0.584551 0.560217 0.868124 0.193798
C10   C     C_R   0.443126 0.749278 0.456838 0.095772
C11   C     C_R   0.431669 0.838191 0.459075 -0.020634
C12   C     C_3   0.877027 0.497101 0.496154 -0.069606
C13   C     C_R   0.502485 0.890134 0.515684 0.186409
C14   C     C_R   0.576995 0.849036 0.568934 0.169202
C15   C     C_R   0.584284 0.760404 0.563343 0.056040
C16   C     C_R   0.499999 0.508537 0.651907 0.585125
C17   C     C_R   0.568667 0.154861 0.525871 0.213367
C18   C     C_R   0.559101 0.243798 0.538364 0.135253
C19   C     C_R   0.486334 0.108605 0.473414 0.208953
C20   C     C_R   0.409952 0.244003 0.435805 0.056988
C21   C     C_R   0.407603 0.154640 0.427626 -0.125244
C22   C     C_R   0.739655 0.498895 0.496348 0.599911
C23   C     C_3   0.927304 0.525204 0.581219 0.014507
C24   C     C_3   0.068441 0.414504 0.459763 0.049779
C25   C     C_3   0.926110 0.407705 0.469493 0.048073
C26   C     C_3   0.072059 0.513575 0.587766 -0.095567
C27   C     C_3   0.068199 0.578044 0.451153 0.135553
C28   C     C_3   0.121300 0.503037 0.499328 -0.072901
C29   C     C_2   0.134987 0.588598 0.635987 0.306271
C30   C     C_2   0.383772 0.654065 0.123058 0.326854
C31   C     C_2   0.628673 0.287307 0.605230 0.348547
C32   C     C_2   0.337664 0.872923 0.407181 0.309729
C33   C     C_2   0.104878 0.437648 0.633626 0.265771
C34   C     C_3   0.927499 0.559783 0.437157 -0.258160
C35   C     C_2   0.083573 0.666262 0.493700 0.299360
C36   C     C_R   0.483374 0.491929 0.262688 0.004538
C37   C     C_R   0.440228 0.566598 0.233094 -0.101093
C38   C     C_R   0.429271 0.574361 0.152438 0.016494
C39   C     C_R   0.465032 0.506773 0.100156 0.170559
C40   C     C_R   0.503730 0.430710 0.129243 -0.020719
Cu1   Cu    Cu3+1 0.493900 0.415220 0.496180 1.055494
Cu2   Cu    Cu3+1 0.506100 0.584780 0.503820 1.032698
H1    H     H_    0.105697 0.360524 0.489038 0.127034
H2    H     H_    0.906335 0.365255 0.517085 0.147832
H3    H     H_    0.910370 0.531432 0.376274 0.225477
H4    H     H_    0.235065 0.593029 0.640097 0.138600
H5    H     H_    0.377058 0.661032 0.060494 0.166104
H6    H     H_    0.679116 0.345332 0.599780 0.167993
H7    H     H_    0.299801 0.934975 0.421261 0.151368
H8    H     H_    0.152201 0.383715 0.607003 0.133742
H9    H     H_    0.007358 0.695458 0.525559 0.124222
H10   H     H_    0.875362 0.619748 0.440297 0.126318
H11   H     H_    0.905977 0.593500 0.590674 0.183916
H12   H     H_    0.527176 0.377377 0.088929 0.206252
H13   H     H_    0.414652 0.619544 0.273260 0.204993
H14   H     H_    0.644462 0.730015 0.602406 0.195302
H15   H     H_    0.351586 0.278224 0.398153 0.194058
H16   H     H_    0.345970 0.121448 0.384636 0.157347
H17   H     H_    0.389328 0.708693 0.414720 0.216891
N1    N     N_2   0.458700 0.515536 0.018471 -0.215067
N2    N     N_2   0.545266 0.481047 0.981833 -0.160612
N3    N     N_R   0.515260 0.712130 0.509560 -0.282888
N4    N     N_2   0.498132 0.981292 0.524211 -0.141137
N5    N     N_2   0.486186 0.017607 0.461985 -0.227329
N6    N     N_R   0.484730 0.287850 0.490450 -0.274745
O1    O     O_R   0.494300 0.420530 0.382500 -0.441002
O2    O     O_2   0.352947 0.713154 0.168402 -0.409574
O3    O     O_2   0.629706 0.257571 0.669072 -0.388071
O4    O     O_2   0.298719 0.831345 0.348432 -0.412176
O5    O     O_2   0.085644 0.438114 0.704054 -0.347632
O6    O     O_2   0.181480 0.706051 0.494094 -0.453940
O7    O     O_R   0.504600 0.563720 0.388950 -0.527596
O8    O     O_R   0.312540 0.428400 0.496760 -0.513444
O9    O     O_R   0.322840 0.571590 0.503210 -0.467893
O10   O     O_R   0.495400 0.436280 0.611050 -0.497248
O11   O     O_R   0.505700 0.579470 0.617500 -0.473835
O12   O     O_R   0.677160 0.428410 0.496790 -0.498105
O13   O     O_R   0.687460 0.571600 0.503240 -0.510055
O14   O     O_2   0.075958 0.642190 0.673843 -0.413557

loop_
_geom_bond_atom_site_label_1
_geom_bond_atom_site_label_2
_ccdc_geom_bond_type
C12   C34   S    
C18   C31   S    
C23   C26   S    
C24   C25   S    
C6    C9    A    
C18   N6    A    
Br6   C8    S    
C35   H9    S    
C15   H14   S    
C17   C18   A    
C22   O12   A    
C30   H5    S    
C26   C29   S    
C27   C28   S    
C10   N3    A    
C15   N3    A    
C7    C8    A    
C40   H12   S    
Cu1   O8    S    
C27   C34   S    
C2    C40   A    
C36   C37   A    
C34   H3    S    
C12   C22   S    
Br5   C2    S    
C4    O9    A    
Br2   C23   S    
C31   O3    D    
C35   O6    D    
C10   C11   A    
C24   H1    S    
C3    C6    A    
C1    C36   S    
C30   C38   S    
C20   H15   S    
N4    N5    D    
Cu1   O12   S    
C13   C14   A    
Br3   C27   S    
C33   O5    D    
C30   O2    D    
C2    C36   A    
C14   C15   A    
C34   H10   S    
C1    O7    A    
Br8   C24   S    
C16   O10   A    
C24   C28   S    
C39   N1    S    
C22   O13   A    
C20   C21   A    
C12   C23   S    
C1    O1    A    
C23   H11   S    
C39   C40   A    
Cu2   O11   S    
Br1   C5    S    
C16   O11   A    
C4    C28   S    
C4    O8    A    
C32   H7    S    
Br10  C14   S    
C37   C38   A    
C12   C25   S    
Cu2   O13   S    
C38   C39   A    
C11   C13   A    
Cu1   O1    S    
Cu1   Cu2   S    
Br11  C25   S    
C29   H4    S    
Cu2   N3    S    
C7    C16   S    
Cu1   N6    S    
C31   H6    S    
C21   H16   S    
C33   H8    S    
C8    C9    A    
C10   H17   S    
Cu2   O7    S    
C37   H13   S    
C26   C33   S    
C17   C19   A    
C32   O4    D    
N1    N2    D    
C26   C28   S    
C25   H2    S    
C19   C21   A    
C19   N5    S    
C13   N4    S    
C20   N6    A    
Cu1   O10   S    
C3    C5    A    
Br4   C3    S    
C27   C35   S    
C6    N2    S    
C5    C7    A    
Br7   C9    S    
Cu2   O9    S    
C29   O14   D    
C11   C32   S    
Br9   C17   S    
