data_mof_unit_9218.cif
_audit_creation_date              2012-12-11T15:59:39-0500
_audit_creation_method            fapswitch 2.2
_symmetry_space_group_name_H-M    P1
_symmetry_Int_Tables_number       1
_space_group_crystal_system       triclinic
_cell_length_a                    10.733906
_cell_length_b                    10.754526
_cell_length_c                    17.054894
_cell_angle_alpha                 99.587446
_cell_angle_beta                  99.929706
_cell_angle_gamma                 60.684749
_cell_volume                      1683.19645764

loop_
_atom_site_label
_atom_site_type_symbol
_atom_type_description
_atom_site_fract_x
_atom_site_fract_y
_atom_site_fract_z
_atom_type_partial_charge
C1    C     C_R   0.354811 0.771952 0.399498 0.536697
C2    C     C_R   0.819682 0.349442 0.323379 -0.013802
C3    C     C_R   0.348097 0.834449 0.162704 0.024678
C4    C     C_R   0.406198 0.374402 0.356338 0.573756
C5    C     C_R   0.431129 0.880505 0.223465 0.029863
C6    C     C_R   0.422488 0.873991 0.304187 0.003164
C7    C     C_R   0.279272 0.750484 0.259501 -0.151255
C8    C     C_R   0.282524 0.761142 0.181475 -0.160863
C9    C     C_R   0.522699 0.931959 0.207623 -0.032949
C10   C     C_R   0.601074 0.974262 0.269172 -0.082671
C11   C     C_R   0.593210 0.965238 0.347860 -0.074001
C12   C     C_R   0.842304 0.211041 0.194291 0.016382
C13   C     C_R   0.497650 0.925202 0.365688 -0.088108
C14   C     C_R   0.342734 0.811615 0.321160 0.010369
C15   C     C_R   0.352071 0.350641 0.836576 -0.003265
C16   C     C_R   0.775192 0.377785 0.403027 0.538421
C17   C     C_R   0.493032 0.271220 0.812768 0.030635
C18   C     C_R   0.513977 0.267805 0.732727 0.019701
C19   C     C_R   0.269288 0.467686 0.715231 -0.154431
C20   C     C_R   0.244203 0.455052 0.789856 -0.152030
C21   C     C_R   0.611210 0.185188 0.865512 -0.082352
C22   C     C_R   0.735307 0.074086 0.836339 -0.077314
C23   C     C_R   0.857908 0.216295 0.278416 0.018192
C24   C     C_R   0.753288 0.060790 0.756474 -0.121763
C25   C     C_R   0.647875 0.159829 0.706150 -0.110199
C26   C     C_R   0.398958 0.369400 0.683242 -0.008896
C27   C     C_1   0.819709 0.341774 0.708749 -0.044481
C28   C     C_R   0.381129 0.715615 0.631577 0.536800
C29   C     C_1   0.846841 0.313841 0.776551 -0.028365
C30   C     C_1   0.358412 0.765535 0.713786 -0.039536
C31   C     C_1   0.325589 0.812226 0.780677 -0.035228
C32   C     C_R   0.889039 0.309881 0.086274 0.538069
C33   C     C_R   0.322077 0.302495 0.119177 0.539332
C34   C     C_R   0.782314 0.471279 0.285564 -0.138292
C35   C     C_R   0.296437 0.892107 0.085834 0.563536
C36   C     C_R   0.886969 0.297338 0.858908 0.557335
C37   C     C_R   0.312127 0.297592 0.897124 0.534906
C38   C     C_R   0.280800 0.881252 0.857745 0.556701
C39   C     C_R   0.411728 0.377287 0.599697 0.548176
C40   C     C_R   0.774081 0.380369 0.629551 0.541398
C41   C     C_1   0.374768 0.362155 0.271913 -0.045495
C42   C     C_1   0.349807 0.343304 0.201077 -0.043693
C43   C     C_R   0.820569 0.332279 0.158379 -0.056812
C44   C     C_2   0.742032 0.598182 0.169467 0.597278
C45   C     C_R   0.779858 0.464873 0.204270 -0.025729
C46   C     C_R   0.853001 0.083361 0.149461 -0.070103
C47   C     C_R   0.902128 0.958934 0.186549 -0.119371
C48   C     C_R   0.935444 0.960641 0.269095 -0.127421
C49   C     C_R   0.910948 0.088707 0.315096 -0.095966
Cr1   Cr    Cr6+3 0.608100 0.610860 0.522250 1.015248
Cr2   Cr    Cr6+3 0.288890 0.599990 0.488420 1.017603
Cr3   Cr    Cr6+3 0.603040 0.289190 0.489390 0.971795
Cr4   Cr    Cr6+3 0.053960 0.052250 0.967380 0.993328
Cr5   Cr    Cr6+3 0.059890 0.373160 0.992710 1.056346
Cr6   Cr    Cr6+3 0.373370 0.061690 0.991710 1.029713
H1    H     H_    0.747779 0.575922 0.318826 0.171598
H2    H     H_    0.677637 0.145725 0.647404 0.172521
H3    H     H_    0.821147 0.078708 0.085807 0.125368
H4    H     H_    0.913426 0.861195 0.151234 0.145093
H5    H     H_    0.974067 0.863979 0.297870 0.144190
H6    H     H_    0.227449 0.691692 0.271242 0.145115
H7    H     H_    0.548869 0.928370 0.149036 0.198947
H8    H     H_    0.225122 0.719620 0.135663 0.134443
H9    H     H_    0.606326 0.570649 0.078982 0.282373
H10   H     H_    0.935687 0.086657 0.379267 0.133508
H11   H     H_    0.668598 0.013808 0.255419 0.138139
H12   H     H_    0.657570 0.994568 0.395544 0.134149
H13   H     H_    0.485013 0.934210 0.428181 0.143060
H14   H     H_    0.181998 0.548353 0.680114 0.149977
H15   H     H_    0.605924 0.199134 0.929430 0.116322
H16   H     H_    0.137219 0.520233 0.808430 0.142488
H17   H     H_    0.820119 0.001620 0.876468 0.126255
H18   H     H_    0.852523 0.977553 0.734192 0.124487
O1    O     O_R   0.749810 0.499790 0.438040 -0.513943
O2    O     O_R   0.411730 0.181020 0.091530 -0.541842
O3    O     O_R   0.365010 0.944360 0.063320 -0.503824
O4    O     O_R   0.477660 0.726260 0.439290 -0.507647
O5    O     O_R   0.159380 0.906670 0.876210 -0.521382
O6    O     O_R   0.930820 0.177420 0.886730 -0.508162
O7    O     O_R   0.910360 0.395420 0.895720 -0.505542
O8    O     O_R   0.186010 0.361730 0.919870 -0.504739
O9    O     O_R   0.400000 0.173010 0.914630 -0.520341
O10   O     O_R   0.354140 0.936940 0.899340 -0.481042
O11   O     O_3   0.162410 0.162370 0.983930 -0.249369
O12   O     O_R   0.298970 0.468800 0.557390 -0.495951
O13   O     O_R   0.260150 0.743000 0.412270 -0.530161
O14   O     O_R   0.297740 0.466550 0.394720 -0.478272
O15   O     O_R   0.488080 0.253500 0.386430 -0.512394
O16   O     O_R   0.722670 0.303800 0.421940 -0.523075
O17   O     O_R   0.751130 0.502220 0.613520 -0.500419
O18   O     O_R   0.478890 0.728510 0.601960 -0.478319
O19   O     O_R   0.261470 0.745430 0.587750 -0.513639
O20   O     O_2   0.797993 0.671929 0.200842 -0.512957
O21   O     O_R   0.649702 0.636764 0.098869 -0.681316
O22   O     O_R   0.489400 0.255930 0.561910 -0.522794
O23   O     O_R   0.723890 0.306050 0.584610 -0.539407
O24   O     O_3   0.500010 0.500010 0.500020 -0.305591
O25   O     O_R   0.171100 0.914680 0.053100 -0.520882
O26   O     O_R   0.941680 0.184840 0.050710 -0.518606
O27   O     O_R   0.922080 0.403420 0.072610 -0.462798
O28   O     O_R   0.196880 0.369150 0.083850 -0.488658

loop_
_geom_bond_atom_site_label_1
_geom_bond_atom_site_label_2
_ccdc_geom_bond_type
Cr2   O24   S    
C34   H1    S    
C38   O10   A    
C27   C29   T    
C1    O4    A    
C41   C42   T    
Cr5   O28   S    
C19   C20   A    
C18   C26   A    
Cr5   O27   S    
Cr2   O12   S    
Cr5   O11   S    
C7    C8    A    
C4    O14   A    
Cr4   O26   S    
C29   C36   S    
C49   H10   S    
Cr4   O11   S    
C33   O28   A    
C33   C42   S    
Cr4   O6    S    
C12   C43   A    
Cr1   O1    S    
C30   C31   T    
C26   C39   S    
C23   C49   A    
C4    C41   S    
Cr3   O24   S    
Cr3   O22   S    
C19   C26   A    
C15   C37   S    
C44   O20   D    
Cr1   O17   S    
C7    C14   A    
C7    H6    S    
C11   H12   S    
C20   H16   S    
C35   O25   A    
C2    C16   S    
C9    C10   A    
Cr6   O2    S    
C2    C34   A    
C16   O16   A    
C21   C22   A    
C46   H3    S    
C37   O8    A    
Cr3   O16   S    
C18   C25   A    
C25   H2    S    
C40   O23   A    
Cr2   O13   S    
C22   H17   S    
C33   O2    A    
C48   H5    S    
Cr5   O7    S    
C10   H11   S    
C15   C20   A    
C35   O3    A    
C9    H7    S    
Cr3   O15   S    
C24   C25   A    
C12   C46   A    
C3    C8    A    
C36   O7    A    
Cr2   O14   S    
C38   O5    A    
C17   C21   A    
C32   O27   A    
C5    C9    A    
Cr2   O19   S    
C6    C14   A    
C47   C48   A    
C12   C23   A    
C3    C35   S    
C27   C40   S    
C17   C18   A    
C28   O19   A    
C34   C45   A    
Cr6   O9    S    
C43   C45   A    
C39   O22   A    
Cr6   O3    S    
C48   C49   A    
C16   O1    A    
C37   O9    A    
C19   H14   S    
C39   O12   A    
Cr6   O10   S    
Cr1   O4    S    
C44   C45   S    
C1    O13   A    
C15   C17   A    
C46   C47   A    
Cr1   O24   S    
C3    C5    A    
C36   O6    A    
C32   O26   A    
C4    O15   A    
Cr4   O25   S    
C31   C38   S    
C21   H15   S    
C28   C30   S    
Cr4   O5    S    
H9    O21   S    
C6    C13   A    
C11   C13   A    
C5    C6    A    
C32   C43   S    
Cr3   O23   S    
C28   O18   A    
C22   C24   A    
C24   H18   S    
C44   O21   S    
C10   C11   A    
C8    H8    S    
C47   H4    S    
Cr1   O18   S    
C2    C23   A    
C1    C14   S    
C40   O17   A    
Cr6   O11   S    
Cr5   O8    S    
C13   H13   S    
