data_mof_unit_32567.cif
_audit_creation_date              2012-12-10T18:23:53-0500
_audit_creation_method            fapswitch 2.2
_symmetry_space_group_name_H-M    P1
_symmetry_Int_Tables_number       1
_space_group_crystal_system       triclinic
_cell_length_a                    22.58403
_cell_length_b                    22.221654
_cell_length_c                    14.646404
_cell_angle_alpha                 90.011373
_cell_angle_beta                  88.635785
_cell_angle_gamma                 89.983684
_cell_volume                      7348.27988299

loop_
_atom_site_label
_atom_site_type_symbol
_atom_type_description
_atom_site_fract_x
_atom_site_fract_y
_atom_site_fract_z
_atom_type_partial_charge
C1    C     C_R   0.420413 0.919111 0.500724 0.819032
C2    C     C_R   0.579714 0.080787 0.499319 0.814685
C3    C     C_R   0.580014 0.919579 0.499346 0.817659
C4    C     C_R   0.419804 0.080274 0.500775 0.816634
C5    C     C_R   0.920413 0.419111 0.500724 0.819032
C6    C     C_R   0.079714 0.580788 0.499319 0.814685
C7    C     C_R   0.080014 0.419579 0.499346 0.817659
C8    C     C_R   0.919804 0.580274 0.500775 0.816635
C9    C     C_1   0.337155 0.162548 0.504800 0.139586
C10   C     C_1   0.661400 0.836147 0.497898 0.133831
C11   C     C_1   0.660461 0.165063 0.496970 0.142355
C12   C     C_1   0.340262 0.834321 0.503979 0.135637
C13   C     C_1   0.837155 0.662548 0.504800 0.139586
C14   C     C_1   0.161400 0.336147 0.497898 0.133831
C15   C     C_1   0.160461 0.665063 0.496970 0.142355
C16   C     C_1   0.840262 0.334322 0.503979 0.135637
C17   C     C_1   0.499181 0.999454 0.194609 0.290176
C18   C     C_1   0.501568 0.000256 0.805254 0.255558
C19   C     C_1   0.999181 0.499454 0.194609 0.290176
C20   C     C_1   0.001568 0.500256 0.805254 0.255558
C21   C     C_3   0.558187 0.006164 0.971558 0.248704
C22   C     C_3   0.444317 0.993517 0.028082 0.339489
C23   C     C_3   0.522667 0.051146 0.032009 0.295487
C24   C     C_3   0.479722 0.948484 0.967721 0.362856
C25   C     C_3   0.058187 0.506164 0.971558 0.248704
C26   C     C_3   0.944317 0.493517 0.028082 0.339490
C27   C     C_3   0.022667 0.551146 0.032009 0.295487
C28   C     C_3   0.979723 0.448484 0.967721 0.362855
C29   C     C_3   0.695954 0.721543 0.506403 0.254325
C30   C     C_3   0.302007 0.276876 0.498196 0.255469
C31   C     C_3   0.290824 0.736027 0.434857 0.252450
C32   C     C_3   0.710113 0.263185 0.566839 0.251955
C33   C     C_3   0.195954 0.221543 0.506403 0.254325
C34   C     C_3   0.802007 0.776876 0.498196 0.255469
C35   C     C_3   0.790825 0.236027 0.434857 0.252451
C36   C     C_3   0.210113 0.763185 0.566839 0.251955
C37   C     C_3   0.243499 0.211982 0.430543 0.242281
C38   C     C_3   0.754461 0.786313 0.574063 0.241310
C39   C     C_3   0.772568 0.194319 0.514765 0.242199
C40   C     C_3   0.228332 0.804897 0.486861 0.239865
C41   C     C_3   0.743499 0.711982 0.430543 0.242281
C42   C     C_3   0.254461 0.286313 0.574063 0.241309
C43   C     C_3   0.272568 0.694319 0.514765 0.242200
C44   C     C_3   0.728332 0.304897 0.486860 0.239866
C45   C     C_1   0.375000 0.124952 0.502970 -0.161081
C46   C     C_1   0.624148 0.874294 0.497978 -0.167968
C47   C     C_1   0.623352 0.126695 0.497674 -0.163907
C48   C     C_1   0.377116 0.872917 0.502677 -0.169123
C49   C     C_1   0.875000 0.624952 0.502970 -0.161081
C50   C     C_1   0.124148 0.374294 0.497978 -0.167967
C51   C     C_1   0.123352 0.626695 0.497674 -0.163907
C52   C     C_1   0.877116 0.372917 0.502677 -0.169123
C53   C     C_3   0.242867 0.218024 0.580869 0.254883
C54   C     C_3   0.755088 0.780189 0.423633 0.252374
C55   C     C_3   0.725714 0.252538 0.418041 0.254553
C56   C     C_3   0.275251 0.746694 0.583575 0.255557
C57   C     C_3   0.742867 0.718024 0.580869 0.254883
C58   C     C_3   0.255088 0.280189 0.423634 0.252374
C59   C     C_3   0.225714 0.752538 0.418041 0.254553
C60   C     C_3   0.775251 0.246694 0.583575 0.255558
C61   C     C_3   0.291133 0.207949 0.505043 -0.134129
C62   C     C_3   0.706930 0.790343 0.499441 -0.131450
C63   C     C_3   0.706751 0.210228 0.497915 -0.130574
C64   C     C_3   0.294146 0.789003 0.503645 -0.129466
C65   C     C_3   0.791134 0.707949 0.505043 -0.134129
C66   C     C_3   0.206930 0.290343 0.499441 -0.131449
C67   C     C_3   0.206752 0.710228 0.497915 -0.130574
C68   C     C_3   0.794145 0.289003 0.503645 -0.129466
C69   C     C_3   0.533118 0.953841 0.031918 0.296358
C70   C     C_3   0.468831 0.045444 0.968410 0.283638
C71   C     C_3   0.033118 0.453841 0.031918 0.296358
C72   C     C_3   0.968831 0.545444 0.968410 0.283638
C73   C     C_3   0.497900 0.998881 0.092754 -0.299012
C74   C     C_3   0.504018 0.000438 0.906874 -0.342575
C75   C     C_3   0.997900 0.498881 0.092754 -0.299013
C76   C     C_3   0.004018 0.500438 0.906874 -0.342575
Cu1   Cu    Cu3+1 0.500000 1.000000 0.590220 0.987041
Cu2   Cu    Cu3+1 0.500000 0.000000 0.409780 0.998653
Cu3   Cu    Cu3+1 0.000000 0.500000 0.590220 0.987041
Cu4   Cu    Cu3+1 0.000000 0.500000 0.409780 0.998653
N1    N     N_1   0.499980 0.000000 0.274190 -0.160847
N2    N     N_1   0.500020 0.000000 0.725810 -0.160229
N3    N     N_1   0.999980 0.500000 0.274190 -0.160847
N4    N     N_1   0.000020 0.500000 0.725810 -0.160229
O1    O     O_R   0.439540 0.939530 0.576170 -0.566402
O2    O     O_R   0.560460 0.060470 0.423830 -0.556385
O3    O     O_R   0.560460 0.939530 0.423830 -0.556769
O4    O     O_R   0.439540 0.060470 0.576170 -0.553993
O5    O     O_R   0.939540 0.439530 0.576170 -0.566402
O6    O     O_R   0.060460 0.560470 0.423830 -0.556385
O7    O     O_R   0.060460 0.439530 0.423830 -0.556769
O8    O     O_R   0.939540 0.560470 0.576170 -0.553993
O9    O     O_R   0.439530 0.939530 0.423800 -0.574496
O10   O     O_R   0.560470 0.060470 0.576200 -0.585452
O11   O     O_R   0.560470 0.939530 0.576200 -0.580924
O12   O     O_R   0.439530 0.060470 0.423800 -0.583961
O13   O     O_R   0.939530 0.439530 0.423800 -0.574496
O14   O     O_R   0.060470 0.560470 0.576200 -0.585452
O15   O     O_R   0.060470 0.439530 0.576200 -0.580924
O16   O     O_R   0.939530 0.560470 0.423800 -0.583961
O17   O     O_3   0.435999 0.092641 0.929365 -0.590014
C77   C     C_3   0.410757 0.130817 0.996978 0.107048
H1    H     H_    0.430337 0.176323 0.988074 0.140962
H2    H     H_    0.419086 0.116651 0.068469 0.129221
C78   C     C_3   0.344063 0.135409 0.982802 -0.312542
H3    H     H_    0.335946 0.153840 0.913655 0.230272
H4    H     H_    0.323954 0.089883 0.986944 0.241242
C79   C     C_3   0.314286 0.176062 0.054193 -0.988498
H5    H     H_    0.323188 0.159612 0.124160 0.262230
H6    H     H_    0.265717 0.175952 0.044511 0.265099
H7    H     H_    0.330876 0.222874 0.046728 0.264496
O18   O     O_3   0.561384 0.903240 0.070467 -0.595919
C80   C     C_3   0.614681 0.889765 0.022634 0.114388
H8    H     H_    0.649680 0.921984 0.042837 0.200632
H9    H     H_    0.609026 0.891575 0.947476 0.121403
C81   C     C_3   0.634895 0.826319 0.047426 -0.358208
H10   H     H_    0.645886 0.824749 0.120978 0.237140
H11   H     H_    0.598533 0.793765 0.035549 0.222164
C82   C     C_3   0.689133 0.807672 0.989921 -0.976989
H12   H     H_    0.678181 0.806483 0.916393 0.261891
H13   H     H_    0.703624 0.762091 0.010514 0.261403
H14   H     H_    0.726177 0.839682 0.000024 0.270641
O19   O     O_3   0.935999 0.592641 0.929365 -0.590014
C83   C     C_3   0.910757 0.630817 0.996978 0.107046
H15   H     H_    0.930337 0.676323 0.988074 0.140962
H16   H     H_    0.919086 0.616651 0.068469 0.129222
C84   C     C_3   0.844063 0.635409 0.982802 -0.312541
H17   H     H_    0.835946 0.653841 0.913655 0.230272
H18   H     H_    0.823954 0.589883 0.986944 0.241242
C85   C     C_3   0.814286 0.676062 0.054193 -0.988498
H19   H     H_    0.823188 0.659612 0.124160 0.262230
H20   H     H_    0.765717 0.675952 0.044511 0.265100
H21   H     H_    0.830876 0.722874 0.046728 0.264496
O20   O     O_3   0.061384 0.403240 0.070467 -0.595919
C86   C     C_3   0.114681 0.389765 0.022634 0.114388
H22   H     H_    0.149681 0.421985 0.042837 0.200632
H23   H     H_    0.109026 0.391575 0.947476 0.121403
C87   C     C_3   0.134896 0.326319 0.047426 -0.358209
H24   H     H_    0.145886 0.324749 0.120978 0.237140
H25   H     H_    0.098533 0.293765 0.035549 0.222164
C88   C     C_3   0.189134 0.307672 0.989921 -0.976988
H26   H     H_    0.178181 0.306483 0.916393 0.261890
H27   H     H_    0.203625 0.262091 0.010514 0.261404
H28   H     H_    0.226177 0.339682 0.000024 0.270640
O21   O     O_3   0.241703 0.169649 0.358656 -0.620970
C89   C     C_3   0.197338 0.185541 0.296643 0.074438
H29   H     H_    0.212085 0.224278 0.254194 0.185074
H30   H     H_    0.154825 0.197657 0.332081 0.177659
C90   C     C_3   0.186260 0.132149 0.233549 -0.361533
H31   H     H_    0.228434 0.118915 0.198433 0.228984
H32   H     H_    0.170090 0.093173 0.274632 0.216007
C91   C     C_3   0.140592 0.147550 0.162044 -0.927343
H33   H     H_    0.097556 0.159409 0.195699 0.263128
H34   H     H_    0.133898 0.108072 0.116979 0.259474
H35   H     H_    0.156168 0.185981 0.119406 0.256278
O22   O     O_3   0.755688 0.828571 0.646085 -0.626224
C92   C     C_3   0.799613 0.812693 0.708805 0.067069
H36   H     H_    0.844295 0.811128 0.675367 0.173467
H37   H     H_    0.790336 0.768155 0.739929 0.193885
C93   C     C_3   0.799849 0.859439 0.785237 -0.355585
H38   H     H_    0.812626 0.903998 0.756445 0.222071
H39   H     H_    0.754577 0.863218 0.816035 0.227698
C94   C     C_3   0.842804 0.842115 0.859717 -0.934621
H40   H     H_    0.829715 0.798382 0.890971 0.261677
H41   H     H_    0.841973 0.877079 0.913904 0.257852
H42   H     H_    0.888595 0.838560 0.830823 0.261370
O23   O     O_3   0.789446 0.133905 0.529087 -0.621228
C95   C     C_3   0.851501 0.129369 0.536573 0.075227
H43   H     H_    0.869405 0.163541 0.584170 0.173377
H44   H     H_    0.873570 0.135262 0.468722 0.182242
C96   C     C_3   0.866310 0.066653 0.572387 -0.354066
H45   H     H_    0.845674 0.060575 0.641431 0.215527
H46   H     H_    0.847771 0.032062 0.526244 0.227769
C97   C     C_3   0.933015 0.057260 0.578031 -0.948030
H47   H     H_    0.954069 0.060370 0.508893 0.260313
H48   H     H_    0.942094 0.011915 0.606310 0.260534
H49   H     H_    0.952638 0.091573 0.623420 0.265639
O24   O     O_3   0.211248 0.865245 0.472386 -0.622010
C98   C     C_3   0.149130 0.869526 0.465416 0.077164
H50   H     H_    0.127228 0.862942 0.533239 0.182714
H51   H     H_    0.131331 0.835632 0.417290 0.174634
C99   C     C_3   0.133778 0.932440 0.430955 -0.355477
H52   H     H_    0.152151 0.966766 0.477710 0.227928
H53   H     H_    0.154226 0.939268 0.361944 0.217123
C100  C     C_3   0.066962 0.941378 0.425861 -0.946075
H54   H     H_    0.047487 0.907400 0.379755 0.266539
H55   H     H_    0.057478 0.986943 0.398725 0.259599
H56   H     H_    0.046030 0.937361 0.494983 0.260143
O25   O     O_3   0.741703 0.669649 0.358656 -0.620970
C101  C     C_3   0.697338 0.685541 0.296643 0.074438
H57   H     H_    0.712085 0.724278 0.254194 0.185074
H58   H     H_    0.654825 0.697657 0.332081 0.177659
C102  C     C_3   0.686260 0.632149 0.233549 -0.361533
H59   H     H_    0.728433 0.618915 0.198433 0.228984
H60   H     H_    0.670090 0.593173 0.274632 0.216007
C103  C     C_3   0.640591 0.647550 0.162045 -0.927343
H61   H     H_    0.597556 0.659409 0.195699 0.263128
H62   H     H_    0.633898 0.608071 0.116979 0.259474
H63   H     H_    0.656168 0.685981 0.119406 0.256278
O26   O     O_3   0.255688 0.328571 0.646085 -0.626225
C104  C     C_3   0.299613 0.312693 0.708805 0.067070
H64   H     H_    0.344295 0.311128 0.675367 0.173467
H65   H     H_    0.290336 0.268155 0.739929 0.193884
C105  C     C_3   0.299849 0.359439 0.785237 -0.355583
H66   H     H_    0.312626 0.403998 0.756445 0.222070
H67   H     H_    0.254577 0.363218 0.816036 0.227698
C106  C     C_3   0.342804 0.342115 0.859717 -0.934618
H68   H     H_    0.329715 0.298382 0.890971 0.261677
H69   H     H_    0.341973 0.377079 0.913904 0.257852
H70   H     H_    0.388595 0.338560 0.830823 0.261370
O27   O     O_3   0.289446 0.633905 0.529087 -0.621228
C107  C     C_3   0.351501 0.629370 0.536573 0.075226
H71   H     H_    0.369405 0.663541 0.584170 0.173377
H72   H     H_    0.373570 0.635262 0.468722 0.182242
C108  C     C_3   0.366310 0.566653 0.572387 -0.354066
H73   H     H_    0.345674 0.560575 0.641431 0.215527
H74   H     H_    0.347771 0.532062 0.526244 0.227769
C109  C     C_3   0.433015 0.557260 0.578031 -0.948032
H75   H     H_    0.454069 0.560370 0.508893 0.260313
H76   H     H_    0.442094 0.511915 0.606310 0.260535
H77   H     H_    0.452638 0.591573 0.623419 0.265639
O28   O     O_3   0.711248 0.365245 0.472386 -0.622010
C110  C     C_3   0.649130 0.369526 0.465416 0.077164
H78   H     H_    0.627228 0.362942 0.533239 0.182714
H79   H     H_    0.631331 0.335632 0.417290 0.174634
C111  C     C_3   0.633778 0.432440 0.430955 -0.355478
H80   H     H_    0.652151 0.466765 0.477710 0.227928
H81   H     H_    0.654226 0.439268 0.361944 0.217123
C112  C     C_3   0.566962 0.441378 0.425861 -0.946075
H82   H     H_    0.547487 0.407400 0.379754 0.266539
H83   H     H_    0.557478 0.486943 0.398725 0.259599
H84   H     H_    0.546030 0.437361 0.494983 0.260143
O29   O     O_3   0.638139 0.697383 0.510999 -0.581052
C113  C     C_3   0.640672 0.633841 0.510884 0.089327
H85   H     H_    0.672638 0.616030 0.560800 0.175487
H86   H     H_    0.653314 0.616641 0.442107 0.174442
C114  C     C_3   0.579714 0.609125 0.535983 -0.843805
H87   H     H_    0.547185 0.624016 0.484972 0.258130
H88   H     H_    0.581051 0.559195 0.537071 0.216868
H89   H     H_    0.565392 0.625563 0.604629 0.250431
O30   O     O_3   0.359617 0.301599 0.494179 -0.579815
C115  C     C_3   0.356499 0.365164 0.493175 0.084077
H90   H     H_    0.342590 0.382916 0.561125 0.174344
H91   H     H_    0.325116 0.382283 0.441886 0.174405
C116  C     C_3   0.417547 0.390350 0.469711 -0.839646
H92   H     H_    0.433056 0.373449 0.401907 0.251115
H93   H     H_    0.415708 0.440243 0.467469 0.216055
H94   H     H_    0.449461 0.376352 0.522195 0.256945
O31   O     O_3   0.336489 0.725439 0.369254 -0.581462
C117  C     C_3   0.320625 0.677567 0.311227 0.088378
H95   H     H_    0.286536 0.692267 0.262813 0.183115
H96   H     H_    0.303316 0.637923 0.349814 0.172798
C118  C     C_3   0.374965 0.657736 0.255753 -0.818743
H97   H     H_    0.409997 0.641915 0.301984 0.244275
H98   H     H_    0.363000 0.620381 0.209321 0.204605
H99   H     H_    0.392365 0.695938 0.214237 0.260528
O32   O     O_3   0.664539 0.273612 0.632659 -0.584691
C119  C     C_3   0.680326 0.321516 0.690703 0.090152
H100  H     H_    0.696972 0.361401 0.652026 0.173537
H101  H     H_    0.714901 0.307163 0.738559 0.185857
C120  C     C_3   0.626133 0.340624 0.747110 -0.824658
H102  H     H_    0.609095 0.301998 0.788038 0.257028
H103  H     H_    0.638106 0.377653 0.794126 0.208267
H104  H     H_    0.590820 0.356630 0.701529 0.244661
O33   O     O_3   0.138139 0.197383 0.510999 -0.581052
C121  C     C_3   0.140672 0.133841 0.510884 0.089326
H105  H     H_    0.172639 0.116030 0.560800 0.175487
H106  H     H_    0.153313 0.116641 0.442107 0.174442
C122  C     C_3   0.079714 0.109125 0.535983 -0.843806
H107  H     H_    0.047185 0.124016 0.484972 0.258131
H108  H     H_    0.081051 0.059195 0.537071 0.216868
H109  H     H_    0.065392 0.125563 0.604630 0.250431
O34   O     O_3   0.859617 0.801599 0.494179 -0.579815
C123  C     C_3   0.856499 0.865164 0.493175 0.084078
H110  H     H_    0.842590 0.882916 0.561125 0.174344
H111  H     H_    0.825116 0.882283 0.441886 0.174405
C124  C     C_3   0.917547 0.890350 0.469710 -0.839648
H112  H     H_    0.933056 0.873449 0.401907 0.251115
H113  H     H_    0.915708 0.940243 0.467469 0.216055
H114  H     H_    0.949461 0.876351 0.522195 0.256946
O35   O     O_3   0.836489 0.225439 0.369254 -0.581461
C125  C     C_3   0.820625 0.177567 0.311227 0.088377
H115  H     H_    0.786536 0.192267 0.262813 0.183116
H116  H     H_    0.803315 0.137923 0.349814 0.172798
C126  C     C_3   0.874965 0.157736 0.255753 -0.818742
H117  H     H_    0.909997 0.141915 0.301985 0.244275
H118  H     H_    0.863000 0.120381 0.209322 0.204605
H119  H     H_    0.892365 0.195938 0.214237 0.260527
O36   O     O_3   0.164539 0.773613 0.632659 -0.584690
C127  C     C_3   0.180326 0.821516 0.690703 0.090152
H120  H     H_    0.196972 0.861401 0.652027 0.173537
H121  H     H_    0.214901 0.807163 0.738559 0.185857
C128  C     C_3   0.126133 0.840624 0.747110 -0.824656
H122  H     H_    0.109095 0.801998 0.788038 0.257028
H123  H     H_    0.138106 0.877652 0.794126 0.208267
H124  H     H_    0.090820 0.856630 0.701529 0.244661
O37   O     O_3   0.756924 0.814836 0.342755 -0.581620
C129  C     C_3   0.807206 0.799108 0.288525 0.089616
H125  H     H_    0.812945 0.749545 0.281876 0.173165
H126  H     H_    0.847984 0.818170 0.317665 0.180533
C130  C     C_3   0.800616 0.825128 0.193285 -0.836799
H127  H     H_    0.795021 0.874724 0.197214 0.261058
H128  H     H_    0.840719 0.814822 0.150809 0.204106
H129  H     H_    0.761407 0.805168 0.160534 0.255292
O38   O     O_3   0.240338 0.183099 0.661526 -0.581021
C131  C     C_3   0.190397 0.199716 0.716031 0.086911
H130  H     H_    0.149556 0.179703 0.688483 0.181541
H131  H     H_    0.184298 0.249348 0.720452 0.171588
C132  C     C_3   0.197829 0.175957 0.812525 -0.834842
H132  H     H_    0.237507 0.196358 0.843442 0.248074
H133  H     H_    0.158235 0.187649 0.855354 0.207563
H134  H     H_    0.202982 0.126258 0.811226 0.262535
O39   O     O_3   0.304272 0.747370 0.667950 -0.581005
C133  C     C_3   0.280939 0.701803 0.725765 0.081287
H135  H     H_    0.294963 0.656637 0.701542 0.173257
H136  H     H_    0.231716 0.702797 0.730407 0.171191
C134  C     C_3   0.304463 0.710446 0.821265 -0.835619
H137  H     H_    0.290993 0.755207 0.848379 0.254304
H138  H     H_    0.286344 0.674941 0.867385 0.205657
H139  H     H_    0.353555 0.707316 0.819432 0.253882
O40   O     O_3   0.697194 0.252101 0.333220 -0.579148
C135  C     C_3   0.720745 0.298008 0.276153 0.083334
H140  H     H_    0.770022 0.299137 0.275460 0.174770
H141  H     H_    0.704051 0.342720 0.298294 0.174442
C136  C     C_3   0.701082 0.287526 0.178844 -0.824696
H142  H     H_    0.651959 0.287511 0.176544 0.257142
H143  H     H_    0.718585 0.323877 0.133725 0.209764
H144  H     H_    0.718188 0.243646 0.153305 0.244970
O41   O     O_3   0.256924 0.314836 0.342755 -0.581619
C137  C     C_3   0.307206 0.299108 0.288525 0.089615
H145  H     H_    0.312945 0.249546 0.281876 0.173165
H146  H     H_    0.347985 0.318171 0.317665 0.180533
C138  C     C_3   0.300616 0.325128 0.193285 -0.836800
H147  H     H_    0.295021 0.374724 0.197214 0.261058
H148  H     H_    0.340719 0.314822 0.150810 0.204106
H149  H     H_    0.261407 0.305168 0.160534 0.255292
O42   O     O_3   0.740338 0.683099 0.661526 -0.581021
C139  C     C_3   0.690397 0.699716 0.716031 0.086913
H150  H     H_    0.649556 0.679703 0.688483 0.181541
H151  H     H_    0.684298 0.749348 0.720452 0.171588
C140  C     C_3   0.697829 0.675957 0.812525 -0.834842
H152  H     H_    0.737507 0.696358 0.843442 0.248074
H153  H     H_    0.658235 0.687649 0.855354 0.207562
H154  H     H_    0.702982 0.626258 0.811226 0.262535
O43   O     O_3   0.804272 0.247370 0.667950 -0.581005
C141  C     C_3   0.780939 0.201803 0.725765 0.081286
H155  H     H_    0.794963 0.156637 0.701542 0.173257
H156  H     H_    0.731716 0.202797 0.730407 0.171190
C142  C     C_3   0.804463 0.210447 0.821265 -0.835618
H157  H     H_    0.790992 0.255207 0.848379 0.254304
H158  H     H_    0.786344 0.174942 0.867385 0.205656
H159  H     H_    0.853555 0.207316 0.819432 0.253882
O44   O     O_3   0.197194 0.752101 0.333220 -0.579148
C143  C     C_3   0.220745 0.798008 0.276153 0.083334
H160  H     H_    0.270022 0.799138 0.275460 0.174769
H161  H     H_    0.204051 0.842720 0.298294 0.174442
C144  C     C_3   0.201081 0.787526 0.178844 -0.824695
H162  H     H_    0.151959 0.787511 0.176544 0.257142
H163  H     H_    0.218584 0.823877 0.133725 0.209764
H164  H     H_    0.218187 0.743646 0.153305 0.244970
O45   O     O_3   0.544595 0.104467 0.071415 -0.596356
C145  C     C_3   0.562989 0.146320 0.003749 0.127347
H165  H     H_    0.534895 0.187112 0.011220 0.133825
H166  H     H_    0.558576 0.130206 0.932192 0.137870
C146  C     C_3   0.627278 0.164220 0.019725 -0.320260
H167  H     H_    0.630622 0.184017 0.089073 0.232726
H168  H     H_    0.655987 0.123672 0.016275 0.245816
C147  C     C_3   0.649459 0.209928 0.949054 -0.971278
H169  H     H_    0.648316 0.190339 0.879311 0.259676
H170  H     H_    0.695813 0.222626 0.963701 0.265529
H171  H     H_    0.621656 0.251153 0.951895 0.262834
O46   O     O_3   0.452004 0.895669 0.936109 -0.557710
C148  C     C_3   0.493203 0.858291 0.889509 0.070212
H172  H     H_    0.516234 0.829887 0.939919 0.168461
H173  H     H_    0.526557 0.884179 0.848461 0.108163
C149  C     C_3   0.460035 0.817224 0.824502 -0.294521
H174  H     H_    0.427684 0.789408 0.864262 0.224519
H175  H     H_    0.435278 0.845152 0.775290 0.244431
C150  C     C_3   0.502512 0.775848 0.771501 -0.928640
H176  H     H_    0.534273 0.802793 0.729271 0.263748
H177  H     H_    0.476978 0.746315 0.725608 0.268550
H178  H     H_    0.527510 0.747117 0.819259 0.247098
O47   O     O_3   0.619914 0.013730 0.956230 -0.617725
C151  C     C_3   0.634761 0.030932 0.865823 0.055083
H179  H     H_    0.673607 0.061441 0.869231 0.165265
H180  H     H_    0.599837 0.057488 0.832101 0.133705
C152  C     C_3   0.653053 0.975642 0.809334 -0.374604
H181  H     H_    0.686737 0.949605 0.846818 0.217159
H182  H     H_    0.614099 0.946179 0.799314 0.203466
C153  C     C_3   0.679234 0.993436 0.716215 -0.851340
H183  H     H_    0.690607 0.952288 0.676449 0.272602
H184  H     H_    0.720150 0.020442 0.724503 0.238331
H185  H     H_    0.646735 0.020154 0.677672 0.275228
O48   O     O_3   0.383139 0.982704 0.043843 -0.563667
C154  C     C_3   0.362902 0.002685 0.130627 0.054500
H186  H     H_    0.319373 0.024884 0.121502 0.160961
H187  H     H_    0.391604 0.037076 0.162340 0.112612
C155  C     C_3   0.353440 0.948637 0.194156 -0.326620
H188  H     H_    0.324214 0.915325 0.160900 0.227192
H189  H     H_    0.396558 0.926491 0.206802 0.230333
C156  C     C_3   0.324801 0.967532 0.285179 -0.874989
H190  H     H_    0.353224 0.000675 0.320154 0.277691
H191  H     H_    0.318952 0.927447 0.329757 0.264399
H192  H     H_    0.280610 0.987894 0.274123 0.242823
O49   O     O_3   0.044595 0.604467 0.071415 -0.596356
C157  C     C_3   0.062989 0.646320 0.003749 0.127347
H193  H     H_    0.034895 0.687112 0.011220 0.133826
H194  H     H_    0.058576 0.630206 0.932192 0.137870
C158  C     C_3   0.127278 0.664220 0.019725 -0.320261
H195  H     H_    0.130622 0.684017 0.089073 0.232726
H196  H     H_    0.155987 0.623672 0.016275 0.245817
C159  C     C_3   0.149459 0.709928 0.949055 -0.971278
H197  H     H_    0.148316 0.690339 0.879311 0.259676
H198  H     H_    0.195813 0.722626 0.963701 0.265529
H199  H     H_    0.121656 0.751153 0.951895 0.262834
O50   O     O_3   0.952004 0.395669 0.936109 -0.557710
C160  C     C_3   0.993203 0.358291 0.889509 0.070213
H200  H     H_    0.016234 0.329887 0.939919 0.168461
H201  H     H_    0.026557 0.384179 0.848461 0.108163
C161  C     C_3   0.960035 0.317224 0.824502 -0.294522
H202  H     H_    0.927684 0.289407 0.864262 0.224519
H203  H     H_    0.935278 0.345152 0.775290 0.244431
C162  C     C_3   0.002512 0.275848 0.771501 -0.928641
H204  H     H_    0.034273 0.302793 0.729271 0.263748
H205  H     H_    0.976978 0.246315 0.725608 0.268551
H206  H     H_    0.027511 0.247117 0.819259 0.247098
O51   O     O_3   0.119914 0.513731 0.956230 -0.617725
C163  C     C_3   0.134761 0.530932 0.865823 0.055084
H207  H     H_    0.173607 0.561441 0.869231 0.165265
H208  H     H_    0.099837 0.557488 0.832101 0.133705
C164  C     C_3   0.153053 0.475642 0.809334 -0.374603
H209  H     H_    0.186737 0.449606 0.846818 0.217159
H210  H     H_    0.114099 0.446179 0.799314 0.203466
C165  C     C_3   0.179234 0.493436 0.716215 -0.851339
H211  H     H_    0.190607 0.452288 0.676449 0.272602
H212  H     H_    0.220150 0.520442 0.724503 0.238331
H213  H     H_    0.146735 0.520154 0.677672 0.275229
O52   O     O_3   0.883139 0.482704 0.043843 -0.563667
C166  C     C_3   0.862902 0.502685 0.130627 0.054499
H214  H     H_    0.819373 0.524884 0.121502 0.160961
H215  H     H_    0.891604 0.537076 0.162340 0.112612
C167  C     C_3   0.853439 0.448637 0.194157 -0.326621
H216  H     H_    0.824214 0.415325 0.160900 0.227192
H217  H     H_    0.896557 0.426491 0.206802 0.230333
C168  C     C_3   0.824801 0.467532 0.285179 -0.874989
H218  H     H_    0.853224 0.500675 0.320154 0.277691
H219  H     H_    0.818952 0.427447 0.329757 0.264399
H220  H     H_    0.780610 0.487894 0.274123 0.242823

loop_
_geom_bond_atom_site_label_1
_geom_bond_atom_site_label_2
_ccdc_geom_bond_type
C135  H141  S    
O51   C163  S    
C92   H36   S    
C127  C128  S    
C110  H78   S    
C152  C153  S    
O21   C89   S    
C110  C111  S    
C138  H147  S    
C96   H46   S    
C125  H115  S    
C144  H162  S    
C7    O15   A    
Cu3   O15   S    
C161  H202  S    
C94   H41   S    
C138  H149  S    
C135  C136  S    
C117  H96   S    
O46   C148  S    
C123  H110  S    
C31   C59   S    
C99   H52   S    
C4    O12   A    
Cu1   O4    S    
Cu2   O12   S    
C30   O30   S    
C70   C74   S    
C106  H70   S    
C115  H91   S    
C8    O8    A    
C15   C51   T    
C43   O27   S    
C149  C150  S    
C117  C118  S    
C82   H13   S    
C116  H92   S    
C33   C53   S    
C113  H86   S    
Cu4   N3    S    
C27   C75   S    
C18   N2    T    
C147  H169  S    
C165  H211  S    
C162  H206  S    
C21   C23   S    
C115  C116  S    
C137  H145  S    
C93   C94   S    
C86   H22   S    
C148  C149  S    
C153  H184  S    
C133  H135  S    
C130  H127  S    
C3    O3    A    
C113  C114  S    
C134  H139  S    
C108  H73   S    
C112  H82   S    
C38   C57   S    
C82   H12   S    
C131  H130  S    
C60   O43   S    
C97   H49   S    
C29   O29   S    
C87   H25   S    
C83   C84   S    
C95   H43   S    
C34   C54   S    
C92   C93   S    
C122  H108  S    
C157  H194  S    
C146  C147  S    
C28   C71   S    
C129  H125  S    
O47   C151  S    
C6    O14   A    
C120  H103  S    
C89   H29   S    
C130  H129  S    
C86   H23   S    
C161  C162  S    
C103  H61   S    
C87   C88   S    
C151  H180  S    
C1    C48   S    
C2    C47   S    
C3    C46   S    
C79   H7    S    
C41   O25   S    
C25   C76   S    
O50   C160  S    
C88   H27   S    
C85   H19   S    
C126  H118  S    
O49   C157  S    
C44   C55   S    
C14   C50   T    
Cu1   N2    S    
C39   C60   S    
C159  H198  S    
C154  C155  S    
C81   H11   S    
C168  H218  S    
O48   C154  S    
O37   C129  S    
C107  H71   S    
C27   O49   S    
C102  H59   S    
C30   C61   S    
C120  H102  S    
C3    O11   A    
C158  H195  S    
C146  H167  S    
C147  H171  S    
C5    O5    A    
C53   O38   S    
C80   H9    S    
Cu2   O3    S    
C142  H157  S    
Cu4   O13   S    
C156  H190  S    
C100  H54   S    
C70   O17   S    
O19   C83   S    
C164  H210  S    
C79   H5    S    
C78   H4    S    
O31   C117  S    
C31   C43   S    
C9    C61   S    
C159  H197  S    
C112  H84   S    
C11   C63   S    
C166  H215  S    
C42   C53   S    
Cu3   N4    S    
C12   C64   S    
C100  H55   S    
C145  H165  S    
Cu1   O10   S    
C31   O31   S    
O32   C119  S    
C136  H143  S    
C97   H47   S    
C59   C67   S    
C141  H156  S    
C95   C96   S    
C55   C63   S    
C56   C64   S    
C25   C71   S    
O29   C113  S    
C22   O48   S    
Cu1   O1    S    
C114  H87   S    
C17   C73   S    
C104  H65   S    
C23   C70   S    
O25   C101  S    
C103  H63   S    
C19   N3    T    
C160  H201  S    
C149  H175  S    
C33   C66   S    
O36   C127  S    
C4    C45   S    
C140  H153  S    
C146  H168  S    
C14   C66   S    
C36   O36   S    
C34   O34   S    
C2    O10   A    
C108  C109  S    
C150  H178  S    
C6    O6    A    
C58   O41   S    
C21   C69   S    
C93   H39   S    
C168  H220  S    
C84   H18   S    
C128  H122  S    
C109  H76   S    
C164  H209  S    
C107  C108  S    
C102  C103  S    
C15   C67   S    
C26   C75   S    
C158  C159  S    
C121  H106  S    
C166  C167  S    
C1    O9    A    
C5    O13   A    
O40   C135  S    
C142  H159  S    
C139  H151  S    
C20   N4    T    
C155  H189  S    
C116  H94   S    
C44   O28   S    
C156  H192  S    
C163  H207  S    
C109  H77   S    
C83   H16   S    
C143  C144  S    
C29   C41   S    
C159  H199  S    
C7    C50   S    
C91   H34   S    
C152  H182  S    
C121  C122  S    
C120  H104  S    
C110  H79   S    
O20   C86   S    
C4    O4    A    
C21   O47   S    
C139  C140  S    
C125  H116  S    
C25   O51   S    
C161  H203  S    
C119  H100  S    
C8    O16   A    
C95   H44   S    
C79   H6    S    
C123  H111  S    
C77   H1    S    
C99   H53   S    
Cu3   O5    S    
C44   C68   S    
C105  H66   S    
C125  C126  S    
C144  H163  S    
C143  H160  S    
C124  H114  S    
C106  H69   S    
C38   C62   S    
C167  H216  S    
C22   C70   S    
C9    C45   T    
O17   C77   S    
C123  C124  S    
C26   C72   S    
C11   C47   T    
C12   C48   T    
C71   O20   S    
C147  H170  S    
O44   C143  S    
C150  H176  S    
C162  H205  S    
Cu1   Cu2   S    
C101  H57   S    
C137  H146  S    
C141  C142  S    
C26   O52   S    
C128  H124  S    
C148  H173  S    
C69   O18   S    
C57   O42   S    
C140  H154  S    
C133  H136  S    
C77   C78   S    
C127  H120  S    
O41   C137  S    
C134  H138  S    
O52   C166  S    
C101  C102  S    
C137  C138  S    
C131  H131  S    
C69   C73   S    
C163  C164  S    
C98   C99   S    
C133  C134  S    
C138  H148  S    
C135  H140  S    
C92   H37   S    
C122  H107  S    
C10   C62   S    
C129  H126  S    
O24   C98   S    
C89   H30   S    
C130  H128  S    
O42   C139  S    
C96   C97   S    
C131  C132  S    
C106  H68   S    
C94   H42   S    
C103  H62   S    
O23   C95   S    
C54   C62   S    
C117  H95   S    
C132  H132  S    
C33   C37   S    
C35   O35   S    
C33   O33   S    
C129  C130  S    
C35   C39   S    
C166  H214  S    
C126  H117  S    
C36   C56   S    
C118  H99   S    
C89   C90   S    
C165  H212  S    
O27   C107  S    
C105  C106  S    
C7    O7    A    
C115  H90   S    
C29   C57   S    
C116  H93   S    
C72   O19   S    
C22   C24   S    
C88   H28   S    
C85   H21   S    
C113  H85   S    
C32   C60   S    
C84   H17   S    
C28   C76   S    
C28   O50   S    
C56   O39   S    
C80   H8    S    
C32   O32   S    
C101  H58   S    
C16   C52   T    
C57   C65   S    
C154  H186  S    
C153  H183  S    
C144  H164  S    
C78   H3    S    
C143  H161  S    
Cu4   O7    S    
C90   H32   S    
C112  H83   S    
C90   H31   S    
Cu2   N1    S    
O39   C133  S    
C118  H97   S    
C145  H166  S    
C59   O44   S    
C19   C75   S    
C55   O40   S    
C17   N1    T    
C136  H142  S    
C97   H48   S    
C87   H24   S    
C98   H50   S    
C60   C68   S    
O38   C131  S    
C122  H109  S    
C157  H193  S    
C30   C42   S    
C88   H26   S    
C8    C49   S    
C99   C100  S    
C27   C72   S    
C145  C146  S    
C86   C87   S    
C96   H45   S    
C104  H64   S    
Cu3   O14   S    
C85   H20   S    
C94   H40   S    
C38   O22   S    
C72   C76   S    
C151  H179  S    
C153  H185  S    
C160  H200  S    
C109  H75   S    
C36   C67   S    
C13   C65   S    
C140  H152  S    
O22   C92   S    
C132  H134  S    
C24   O46   S    
C126  H119  S    
C108  H74   S    
C150  H177  S    
Cu2   O9    S    
C114  H88   S    
O30   C115  S    
C81   H10   S    
C20   C76   S    
C168  H219  S    
C58   C66   S    
O26   C104  S    
C102  H60   S    
C157  C158  S    
C10   C46   T    
C91   H35   S    
C5    C52   S    
C16   C68   S    
C6    C51   S    
C158  H196  S    
O33   C121  S    
C37   C58   S    
C80   C81   S    
Cu2   O2    S    
C142  H158  S    
C40   C59   S    
Cu4   O16   S    
Cu4   O6    S    
C155  C156  S    
C134  H137  S    
C53   C61   S    
C23   C73   S    
C34   C65   S    
O18   C80   S    
C156  H191  S    
C163  H208  S    
C24   C69   S    
C164  C165  S    
C1    O1    A    
C78   C79   S    
C35   C55   S    
C36   C40   S    
C90   C91   S    
C162  H204  S    
C118  H98   S    
C100  H56   S    
C41   C65   S    
O35   C125  S    
C21   C74   S    
Cu1   O11   S    
C136  H144  S    
C119  H101  S    
O34   C123  S    
C32   C44   S    
C91   H33   S    
C77   H2    S    
C54   O37   S    
Cu3   O8    S    
C13   C49   T    
C40   O24   S    
C43   C67   S    
C105  H67   S    
C111  H80   S    
C111  H81   S    
C124  H113  S    
C104  C105  S    
C114  H89   S    
C119  C120  S    
C167  H217  S    
C23   O45   S    
C151  C152  S    
C160  C161  S    
C149  H174  S    
C82   H14   S    
C29   C62   S    
C34   C38   S    
C31   C64   S    
C32   C63   S    
C107  H72   S    
C37   C61   S    
C25   C27   S    
C111  C112  S    
C39   C63   S    
O45   C145  S    
C26   C28   S    
C40   C64   S    
C81   C82   S    
C93   H38   S    
C167  C168  S    
C42   O26   S    
C84   C85   S    
C128  H123  S    
C148  H172  S    
C71   C75   S    
C154  H187  S    
C24   C74   S    
C141  H155  S    
C132  H133  S    
C35   C68   S    
C30   C58   S    
C2    O2    A    
C127  H121  S    
C39   O23   S    
O28   C110  S    
C41   C54   S    
C165  H213  S    
C121  H105  S    
Cu3   Cu4   S    
C43   C56   S    
C18   C74   S    
C139  H150  S    
C42   C66   S    
C155  H188  S    
C22   C73   S    
C37   O21   S    
O43   C141  S    
C124  H112  S    
C152  H181  S    
C83   H15   S    
C98   H51   S    
