data_mof_unit_32205.cif
_audit_creation_date              2012-12-10T20:41:44-0500
_audit_creation_method            fapswitch 2.2
_symmetry_space_group_name_H-M    P1
_symmetry_Int_Tables_number       1
_space_group_crystal_system       triclinic
_cell_length_a                    15.096473
_cell_length_b                    15.262419
_cell_length_c                    9.903889
_cell_angle_alpha                 89.71671
_cell_angle_beta                  88.973212
_cell_angle_gamma                 90.541551
_cell_volume                      2281.44397626

loop_
_atom_site_label
_atom_site_type_symbol
_atom_type_description
_atom_site_fract_x
_atom_site_fract_y
_atom_site_fract_z
_atom_type_partial_charge
C1    C     C_R   0.383382 0.877268 0.500608 1.000974
C2    C     C_R   0.385038 0.124606 0.498964 0.980429
C3    C     C_R   0.876630 0.383189 0.501416 0.979383
C4    C     C_R   0.883646 0.623668 0.498867 1.013260
C5    C     C_3   0.306671 0.241823 0.760842 0.271213
C6    C     C_3   0.180710 0.886529 0.604766 0.157077
C7    C     C_3   0.711828 0.642593 0.693368 0.119305
C8    C     C_3   0.828829 0.224561 0.730826 0.188774
C9    C     C_R   0.464696 0.931391 0.072088 0.270664
C10   C     C_R   0.922790 0.504423 0.074786 0.296992
C11   C     C_R   0.541536 0.064933 0.070078 0.011863
C12   C     C_R   0.076087 0.488850 0.069776 -0.094019
C13   C     C_R   0.540226 0.065764 0.926627 -0.025362
C14   C     C_R   0.075963 0.489218 0.926082 -0.060817
C15   C     C_R   0.466823 0.930245 0.930165 0.255728
C16   C     C_R   0.922655 0.503551 0.932894 0.292772
C17   C     C_3   0.376155 0.891309 0.923266 -0.446415
C18   C     C_3   0.856865 0.575156 0.933665 -0.459888
C19   C     C_3   0.370985 0.898136 0.076129 -0.418560
C20   C     C_3   0.859977 0.577874 0.084854 -0.397727
C21   C     C_R   0.623108 0.115814 0.498257 0.899656
C22   C     C_R   0.621113 0.882211 0.499631 0.946793
C23   C     C_R   0.119884 0.619624 0.499513 0.948720
C24   C     C_R   0.123898 0.384808 0.499098 0.913107
C25   C     C_R   0.303034 0.242754 0.609961 -0.089680
C26   C     C_R   0.247110 0.815084 0.585305 -0.130176
C27   C     C_R   0.735711 0.675459 0.555614 -0.024569
C28   C     C_R   0.819816 0.243315 0.581693 -0.087115
C29   C     C_R   0.329004 0.200288 0.492328 -0.175644
C30   C     C_R   0.321615 0.807034 0.502578 -0.223476
C31   C     C_R   0.817562 0.690710 0.491039 -0.243739
C32   C     C_R   0.807265 0.318993 0.504192 -0.130164
C33   C     C_R   0.298757 0.236302 0.367167 0.395945
C34   C     C_R   0.336507 0.728026 0.431784 0.413872
C35   C     C_R   0.826551 0.765994 0.404551 0.408249
C36   C     C_R   0.738357 0.320507 0.408721 0.464858
C37   C     C_R   0.758602 0.827288 0.405015 -0.214561
C38   C     C_R   0.681042 0.249436 0.403256 -0.222045
C39   C     C_R   0.230338 0.297038 0.371036 -0.214801
C40   C     C_R   0.267294 0.666930 0.427200 -0.221334
C41   C     C_R   0.688553 0.819156 0.497391 -0.076176
C42   C     C_R   0.691802 0.178383 0.489968 -0.128170
C43   C     C_R   0.200283 0.330871 0.494480 -0.118880
C44   C     C_R   0.189203 0.681987 0.501097 -0.138608
C45   C     C_R   0.679147 0.743615 0.572336 0.029212
C46   C     C_R   0.767487 0.170606 0.565846 0.035084
C47   C     C_R   0.247622 0.311155 0.608337 -0.001718
C48   C     C_R   0.184646 0.750272 0.592899 0.052892
C49   C     C_3   0.653505 0.722170 0.714881 0.175930
C50   C     C_3   0.779173 0.138882 0.706713 0.098670
C51   C     C_3   0.248619 0.324500 0.756648 0.194612
C52   C     C_3   0.111709 0.813424 0.622127 0.204265
H1    H     H_    0.323436 0.948395 0.112228 0.259307
H2    H     H_    0.362600 0.833245 0.125683 0.244237
H3    H     H_    0.891675 0.638289 0.123400 0.260227
H4    H     H_    0.795791 0.560303 0.133903 0.266611
H5    H     H_    0.763753 0.885010 0.340833 0.201101
H6    H     H_    0.624629 0.251635 0.337233 0.204151
H7    H     H_    0.200821 0.317847 0.277488 0.215789
H8    H     H_    0.274570 0.607057 0.369888 0.193933
H9    H     H_    0.581685 0.708219 0.730363 0.142121
H10   H     H_    0.716335 0.129723 0.765039 0.162019
H11   H     H_    0.181958 0.319121 0.805423 0.151335
H12   H     H_    0.058311 0.811898 0.546402 0.184014
H13   H     H_    0.374616 0.251060 0.800034 0.160861
H14   H     H_    0.192778 0.926423 0.696245 0.188259
H15   H     H_    0.771211 0.642840 0.752681 0.140157
H16   H     H_    0.898523 0.217956 0.763375 0.132771
H17   H     H_    0.574919 0.117418 0.122126 0.190011
H18   H     H_    0.137933 0.481697 0.122036 0.182600
H19   H     H_    0.570785 0.119930 0.872177 0.161061
H20   H     H_    0.137240 0.482788 0.870531 0.215681
H21   H     H_    0.327742 0.932303 0.869881 0.265719
H22   H     H_    0.378099 0.822411 0.887432 0.220252
H23   H     H_    0.882628 0.636351 0.886065 0.264836
H24   H     H_    0.791817 0.549210 0.901766 0.272004
N1    N     N_R   0.499140 0.000000 0.142800 -0.114760
N2    N     N_R   0.999140 0.500000 0.142800 -0.137045
N3    N     N_R   0.499160 1.000000 0.857150 -0.099246
N4    N     N_R   0.999160 0.500000 0.857150 -0.127740
O1    O     O_R   0.408400 0.908380 0.614690 -0.633321
O2    O     O_R   0.408400 0.091620 0.614690 -0.595651
O3    O     O_R   0.908400 0.408380 0.614690 -0.583752
O4    O     O_R   0.908400 0.591620 0.614690 -0.617093
O5    O     O_R   0.408370 0.908370 0.385350 -0.581546
O6    O     O_R   0.408370 0.091630 0.385350 -0.532244
O7    O     O_R   0.908370 0.408370 0.385350 -0.580369
O8    O     O_R   0.908370 0.591630 0.385350 -0.569707
O9    O     O_R   0.591610 0.091610 0.614650 -0.638230
O10   O     O_R   0.591610 0.908390 0.614650 -0.567587
O11   O     O_R   0.091610 0.591610 0.614650 -0.571492
O12   O     O_R   0.091610 0.408390 0.614650 -0.632089
O13   O     O_R   0.591590 0.091600 0.385310 -0.635964
O14   O     O_R   0.591590 0.908400 0.385310 -0.626353
O15   O     O_R   0.091590 0.591600 0.385310 -0.608432
O16   O     O_R   0.091590 0.408400 0.385310 -0.641866
Zn1   Zn    Zn3+2 0.500010 0.000000 0.653130 1.048586
Zn2   Zn    Zn3+2 0.000010 0.500000 0.653130 1.057576
Zn3   Zn    Zn3+2 0.499980 0.000000 0.346870 1.061845
Zn4   Zn    Zn3+2 0.999980 0.500000 0.346870 1.034540
S1    S     S_3+6 0.345876 0.215112 0.205213 0.087575
O17   O     O_2   0.320910 0.124000 0.162765 -0.205528
O18   O     O_2   0.313159 0.278981 0.102005 -0.228009
O19   O     O_3   0.456654 0.224661 0.212051 -0.562244
H25   H     H_    0.467587 0.285100 0.244112 0.373908
S2    S     S_3+6 0.442443 0.697237 0.370013 0.033698
O20   O     O_2   0.503007 0.695696 0.488080 -0.324555
O21   O     O_2   0.438751 0.607372 0.308718 -0.236043
O22   O     O_3   0.483519 0.768198 0.254603 -0.579982
H26   H     H_    0.544975 0.748737 0.236333 0.391557
S3    S     S_3+6 0.919953 0.796817 0.303687 0.033025
O23   O     O_2   0.891527 0.802681 0.159254 -0.313272
O24   O     O_2   0.949325 0.886496 0.347099 -0.177678
O25   O     O_3   0.005966 0.729232 0.313836 -0.576843
H27   H     H_    0.043732 0.743011 0.233554 0.410097
S4    S     S_3+6 0.715937 0.409706 0.300530 0.076905
O26   O     O_2   0.767575 0.397446 0.171300 -0.250743
O27   O     O_2   0.618805 0.411116 0.269208 -0.259813
O28   O     O_3   0.744439 0.505151 0.371717 -0.563517
H28   H     H_    0.700687 0.548093 0.339514 0.392421
S5    S     S_3+6 0.701854 0.791599 0.841239 0.048334
O29   O     O_2   0.796331 0.813604 0.802976 -0.186848
O30   O     O_2   0.650710 0.874637 0.858139 -0.281434
O31   O     O_3   0.699851 0.736568 0.988833 -0.569063
H29   H     H_    0.719278 0.779717 0.056806 0.399683
S6    S     S_3+6 0.847874 0.044210 0.713186 0.110713
O32   O     O_2   0.806970 0.972571 0.630977 -0.219083
O33   O     O_2   0.939154 0.064460 0.657746 -0.215946
O34   O     O_3   0.854627 0.010475 0.874431 -0.442781
H30   H     H_    0.881414 0.060576 0.922666 0.358518
S7    S     S_3+6 0.309362 0.423090 0.794873 0.038425
O35   O     O_2   0.405666 0.413466 0.756819 -0.227638
O36   O     O_2   0.272135 0.498490 0.716565 -0.310162
O37   O     O_3   0.300080 0.443618 0.961065 -0.532074
H31   H     H_    0.329545 0.501232 0.973219 0.395264
S8    S     S_3+6 0.071309 0.802898 0.792398 0.071050
O38   O     O_2   0.016453 0.720719 0.805382 -0.293480
O39   O     O_2   0.147380 0.798534 0.888135 -0.304335
O40   O     O_3   0.008425 0.889928 0.830118 -0.421103
H32   H     H_    0.987352 0.879441 0.924152 0.427189
S9    S     S_3+6 0.248668 0.149326 0.832482 0.069963
O41   O     O_2   0.196139 0.102706 0.726656 -0.266794
O42   O     O_2   0.316173 0.088525 0.888646 -0.291264
O43   O     O_3   0.179624 0.181282 0.957586 -0.505207
H33   H     H_    0.155513 0.126152 0.997333 0.408798
S10   S     S_3+6 0.161648 0.949904 0.454981 0.090001
O44   O     O_2   0.079008 0.002555 0.475177 -0.125774
O45   O     O_2   0.237689 0.011663 0.428031 -0.313242
O46   O     O_3   0.148983 0.883959 0.320897 -0.504279
H34   H     H_    0.209839 0.869149 0.290537 0.348174
S11   S     S_3+6 0.651521 0.541006 0.692840 0.097179
O47   O     O_2   0.575145 0.544740 0.597893 -0.176168
O48   O     O_2   0.712725 0.469722 0.648200 -0.204960
O49   O     O_3   0.613394 0.518078 0.849733 -0.473041
H35   H     H_    0.571274 0.565554 0.871398 0.371167
S12   S     S_3+6 0.761845 0.291765 0.838869 0.062415
O50   O     O_2   0.757384 0.250762 0.977152 -0.288772
O51   O     O_2   0.801847 0.381296 0.848021 -0.239794
O52   O     O_3   0.658858 0.299063 0.777751 -0.517882
H36   H     H_    0.623547 0.327203 0.850470 0.429526

loop_
_geom_bond_atom_site_label_1
_geom_bond_atom_site_label_2
_ccdc_geom_bond_type
C13   N3    A    
C18   H23   S    
C40   H8    S    
C23   O11   A    
S3    O23   D    
O46   H34   S    
C20   H4    S    
S7    O37   S    
O34   H30   S    
O25   H27   S    
C10   N2    A    
O12   Zn2   S    
C21   O9    A    
C28   C46   A    
S6    O32   D    
C21   O13   A    
C23   O15   A    
C2    C29   S    
C33   S1    S    
C32   C36   A    
S12   O50   D    
C35   C37   A    
C38   C42   A    
C48   C52   S    
S9    O42   D    
C42   C46   A    
C6    S10   S    
C22   C41   S    
C20   H3    S    
S2    O20   D    
C1    O1    A    
C29   C33   A    
C7    C27   S    
S4    O26   D    
O7    Zn4   S    
S11   O49   S    
S5    O31   S    
C11   N1    A    
C17   C19   S    
C38   H6    S    
C37   C41   A    
S12   O51   D    
C9    C19   S    
C15   N3    A    
C10   C20   S    
O3    Zn2   S    
C12   N2    A    
C18   H24   S    
S11   O47   D    
C2    O6    A    
C50   S6    S    
C14   N4    A    
O13   Zn3   S    
O10   Zn1   S    
C26   C48   A    
C27   C45   A    
C39   H7    S    
S1    O18   D    
C17   H21   S    
C22   O14   A    
S8    O40   S    
C24   O12   A    
O19   H25   S    
S10   O45   D    
C25   C29   A    
C49   H9    S    
C30   C34   A    
C27   C31   A    
C34   S2    S    
S1    O17   D    
C28   C32   A    
C51   H11   S    
C7    C49   S    
S8    O39   D    
C52   H12   S    
S9    O43   S    
C51   S7    S    
O15   Zn4   S    
O43   H33   S    
C39   C43   A    
C13   H19   S    
S6    O34   S    
C3    O7    A    
C23   C44   S    
O9    Zn1   S    
C16   N4    A    
O5    Zn3   S    
S10   O46   S    
C5    S9    S    
O52   H36   S    
C4    O4    A    
C45   C49   S    
O28   H28   S    
C49   S5    S    
C11   H17   S    
C22   O10   A    
S3    O24   D    
C33   C39   A    
O6    Zn3   S    
O49   H35   S    
O8    Zn4   S    
C7    S11   S    
C19   H2    S    
C5    H13   S    
C12   C14   A    
C8    H16   S    
S1    O19   S    
C3    O3    A    
C17   H22   S    
C52   S8    S    
O2    Zn1   S    
C5    C25   S    
C2    O2    A    
C1    O5    A    
C40   C44   A    
S7    O35   D    
C36   S4    S    
C8    C50   S    
C35   S3    S    
S10   O44   D    
C15   C17   S    
C12   H18   S    
C25   C47   A    
S6    O33   D    
N4    Zn2   S    
C14   H20   S    
N3    Zn1   S    
S12   O52   S    
C5    C51   S    
S8    O38   D    
S7    O36   D    
C47   C51   S    
O40   H32   S    
S5    O29   D    
C26   C30   A    
O37   H31   S    
C4    O8    A    
C46   C50   S    
S4    O28   S    
O4    Zn2   S    
C24   O16   A    
C9    N1    A    
C10   C16   A    
S9    O41   D    
N2    Zn4   S    
C11   C13   A    
C19   H1    S    
C6    C26   S    
S2    O21   D    
O14   Zn3   S    
C50   H10   S    
O16   Zn4   S    
C31   C35   A    
C36   C38   A    
C1    C30   S    
O1    Zn1   S    
S4    O27   D    
N1    Zn3   S    
S3    O25   S    
C18   C20   S    
S11   O48   D    
O11   Zn2   S    
C9    C15   A    
C3    C32   S    
C8    S12   S    
S5    O30   D    
C4    C31   S    
C7    H15   S    
C21   C42   S    
C6    H14   S    
C8    C28   S    
C16   C18   S    
C24   C43   S    
C41   C45   A    
C34   C40   A    
C6    C52   S    
O22   H26   S    
C43   C47   A    
C37   H5    S    
C44   C48   A    
O31   H29   S    
S2    O22   S    
