data_mof_unit_40578.cif
_audit_creation_date              2012-12-10T18:08:18-0500
_audit_creation_method            fapswitch 2.2
_symmetry_space_group_name_H-M    P1
_symmetry_Int_Tables_number       1
_space_group_crystal_system       triclinic
_cell_length_a                    12.655097
_cell_length_b                    13.098968
_cell_length_c                    14.136628
_cell_angle_alpha                 90.749067
_cell_angle_beta                  101.426626
_cell_angle_gamma                 82.612583
_cell_volume                      2277.71090952

loop_
_atom_site_label
_atom_site_type_symbol
_atom_type_description
_atom_site_fract_x
_atom_site_fract_y
_atom_site_fract_z
_atom_type_partial_charge
C1    C     C_R   0.439177 0.691248 0.491578 0.837397
C2    C     C_R   0.528803 0.038040 0.532527 0.002030
C3    C     C_R   0.602893 0.010885 0.620940 -0.002140
C4    C     C_R   0.500570 0.500067 0.670369 0.881634
C5    C     C_R   0.602517 0.916541 0.666539 0.461348
C6    C     C_R   0.537963 0.845483 0.619549 -0.272259
C7    C     C_R   0.538339 0.128488 0.483520 0.174915
C8    C     C_R   0.667505 0.176557 0.622747 -0.268709
C9    C     C_R   0.400198 0.800966 0.482590 -0.086060
C10   C     C_R   0.087622 0.373411 0.337653 0.120905
C11   C     C_R   0.803662 0.627700 0.612296 0.655325
C12   C     C_1   0.498016 0.498938 0.227731 -0.204212
C13   C     C_R   0.900161 0.670788 0.615739 -0.376160
C14   C     C_R   0.975108 0.625939 0.563366 -0.249231
C15   C     C_R   0.956341 0.535608 0.511154 0.032899
C16   C     C_R   0.560552 0.309177 0.510765 0.854605
C17   C     C_R   0.851271 0.507398 0.495059 0.089921
C18   C     C_R   0.037521 0.476048 0.471331 -0.078967
C19   C     C_R   0.007179 0.409530 0.392529 0.086642
C20   C     C_R   0.899408 0.382155 0.375606 0.167136
C21   C     C_R   0.825449 0.429363 0.429662 -0.191682
C22   C     C_R   0.148996 0.477840 0.509673 0.257356
C23   C     C_R   0.674224 0.079677 0.663511 -0.171113
C24   C     C_R   0.193839 0.395609 0.370208 -0.056445
C25   C     C_R   0.499323 0.499615 0.329601 0.875815
C26   C     C_1   0.501001 0.499655 0.772055 -0.227282
C27   C     C_1   0.500233 0.499202 0.857293 -0.028139
C28   C     C_1   0.499309 0.498854 0.957155 0.003269
C29   C     C_1   0.498560 0.498674 0.042393 -0.000116
C30   C     C_1   0.497952 0.498669 0.142338 -0.014445
C31   C     C_3   0.862073 0.295661 0.310722 -0.899376
C32   C     C_3   0.064443 0.322854 0.240400 -0.924746
C33   C     C_3   0.190087 0.497021 0.615193 -0.829613
C34   C     C_R   0.596479 0.201901 0.534925 -0.042285
C35   C     C_3   0.791943 0.658327 0.770957 0.091375
C36   C     C_3   0.719581 0.633310 0.838974 -0.782052
C37   C     C_3   0.608812 0.919471 0.827804 0.069957
C38   C     C_3   0.685645 0.913118 0.925584 -0.834552
C39   C     C_3   0.501570 0.143916 0.375200 -0.947330
C40   C     C_R   0.306653 0.835411 0.413767 -0.185578
C41   C     C_R   0.279549 0.939893 0.392132 -0.157533
C42   C     C_R   0.350388 0.008901 0.432583 -0.167433
C43   C     C_R   0.448218 0.974011 0.497540 0.086163
C44   C     C_R   0.463236 0.872398 0.533075 0.000238
H1    H     H_    0.713348 0.233424 0.662182 0.164184
H2    H     H_    0.255897 0.372263 0.328749 0.154528
H3    H     H_    0.780912 0.277566 0.318904 0.224117
H4    H     H_    0.853267 0.316798 0.233776 0.249747
H5    H     H_    0.918711 0.223892 0.330441 0.245814
H6    H     H_    0.046811 0.243065 0.247613 0.248812
H7    H     H_    0.997324 0.370257 0.191368 0.251578
H8    H     H_    0.135488 0.316768 0.204443 0.227817
H9    H     H_    0.249342 0.430414 0.646397 0.252117
H10   H     H_    0.227535 0.569519 0.624353 0.243123
H11   H     H_    0.125956 0.499972 0.658702 0.214495
H12   H     H_    0.048885 0.660400 0.566318 0.184327
H13   H     H_    0.817581 0.735383 0.788807 0.195832
H14   H     H_    0.865680 0.599547 0.785152 0.106216
H15   H     H_    0.706871 0.551220 0.831360 0.248148
H16   H     H_    0.759659 0.645620 0.914760 0.195923
H17   H     H_    0.640005 0.682783 0.822481 0.263359
H18   H     H_    0.547353 0.865928 0.828269 0.142105
H19   H     H_    0.566782 0.000008 0.817592 0.137826
H20   H     H_    0.746498 0.967460 0.927266 0.250844
H21   H     H_    0.638913 0.933764 0.983305 0.213065
H22   H     H_    0.728681 0.833896 0.939541 0.255828
H23   H     H_    0.918505 0.736149 0.660842 0.163225
H24   H     H_    0.565802 0.175202 0.345218 0.229435
H25   H     H_    0.489145 0.070190 0.337724 0.255545
H26   H     H_    0.426260 0.199443 0.357801 0.243845
H27   H     H_    0.747347 0.403861 0.419338 0.213121
H28   H     H_    0.730232 0.061493 0.731402 0.185221
H29   H     H_    0.255814 0.781494 0.375567 0.155455
H30   H     H_    0.326363 0.089512 0.414731 0.156667
H31   H     H_    0.205754 0.967000 0.341183 0.142296
H32   H     H_    0.541863 0.771510 0.654167 0.195058
N1    N     N_R   0.222200 0.444680 0.454480 -0.114058
N2    N     N_R   0.776970 0.554780 0.545050 -0.152312
O1    O     O_R   0.366740 0.627160 0.478260 -0.608484
O2    O     O_3   0.668994 0.891621 0.755200 -0.617083
O3    O     O_R   0.544830 0.662520 0.507340 -0.564311
O4    O     O_R   0.410930 0.482320 0.611740 -0.601016
O5    O     O_R   0.589030 0.517680 0.640820 -0.551073
O6    O     O_R   0.455170 0.337480 0.492660 -0.597666
O7    O     O_R   0.633260 0.372840 0.521740 -0.640381
O8    O     O_R   0.410970 0.482320 0.359180 -0.604601
O9    O     O_R   0.589070 0.517680 0.388260 -0.610291
O10   O     O_3   0.733745 0.658922 0.674128 -0.587909
Zn1   Zn    Zn3+2 0.381090 0.476390 0.480580 0.922764
Zn2   Zn    Zn3+2 0.618910 0.523610 0.519420 0.965274

loop_
_geom_bond_atom_site_label_1
_geom_bond_atom_site_label_2
_ccdc_geom_bond_type
C33   H11   S    
C15   C18   A    
C14   H12   S    
C41   C42   A    
C3    C23   A    
C19   C20   A    
C25   O9    A    
C36   H15   S    
C37   H18   S    
N2    Zn2   S    
N1    Zn1   S    
C26   C27   T    
C29   C30   S    
O4    Zn1   S    
C21   H27   S    
C35   H14   S    
C28   C29   T    
C10   C19   A    
C5    C6    A    
C1    O3    A    
C16   O6    A    
C8    C23   A    
C40   H29   S    
C18   C19   A    
C39   H24   S    
O5    Zn2   S    
C8    H1    S    
C32   H8    S    
C2    C7    A    
C16   C34   S    
C38   H22   S    
C17   N2    A    
C2    C43   A    
C31   H3    S    
C13   C14   A    
C31   H5    S    
C37   H19   S    
C38   H20   S    
C33   H9    S    
C37   O2    S    
C42   H30   S    
C1    C9    S    
C10   C24   A    
C9    C40   A    
C17   C21   A    
C35   C36   S    
C43   C44   A    
C32   H7    S    
C37   C38   S    
C11   N2    A    
C41   H31   S    
C35   O10   S    
C38   H21   S    
C11   O10   S    
C39   H25   S    
C8    C34   A    
C5    O2    S    
C32   H6    S    
O3    Zn2   S    
C40   C41   A    
C31   H4    S    
C16   O7    A    
C1    O1    A    
C7    C34   A    
C42   C43   A    
C36   H17   S    
C3    C5    A    
C13   H23   S    
C33   H10   S    
C15   C17   A    
C22   C33   S    
C9    C44   A    
C12   C30   T    
C18   C22   A    
C23   H28   S    
C22   N1    A    
C36   H16   S    
O8    Zn1   S    
C4    C26   S    
O7    Zn2   S    
C6    H32   S    
C12   C25   S    
C35   H13   S    
C24   H2    S    
C2    C3    A    
C11   C13   A    
C4    O5    A    
C25   O8    A    
C39   H26   S    
O1    Zn1   S    
C10   C32   S    
C24   N1    A    
C4    O4    A    
C20   C21   A    
O6    Zn1   S    
O9    Zn2   S    
C27   C28   S    
C7    C39   S    
C14   C15   A    
C6    C44   A    
C20   C31   S    
