data_mof_unit_8847.cif
_audit_creation_date              2012-12-11T17:12:41-0500
_audit_creation_method            fapswitch 2.2
_symmetry_space_group_name_H-M    P1
_symmetry_Int_Tables_number       1
_space_group_crystal_system       triclinic
_cell_length_a                    17.110518
_cell_length_b                    6.884976
_cell_length_c                    14.43429
_cell_angle_alpha                 89.872963
_cell_angle_beta                  109.933892
_cell_angle_gamma                 90.057859
_cell_volume                      1598.55580637

loop_
_atom_site_label
_atom_site_type_symbol
_atom_type_description
_atom_site_fract_x
_atom_site_fract_y
_atom_site_fract_z
_atom_type_partial_charge
O1    O     O_R   0.314130 0.635770 0.168990 -0.540315
O2    O     O_R   0.685870 0.364230 0.831010 -0.540379
O3    O     O_R   0.185870 0.135770 0.331010 -0.540953
O4    O     O_R   0.814130 0.864230 0.668990 -0.540163
O5    O     O_R   0.146800 0.302460 0.139760 -0.538312
O6    O     O_R   0.853200 0.697540 0.860240 -0.536981
O7    O     O_R   0.353200 0.802460 0.360240 -0.538829
O8    O     O_R   0.646800 0.197540 0.639760 -0.537316
C1    C     C_R   0.113890 0.475875 0.113022 0.727760
C2    C     C_R   0.886079 0.524138 0.887035 0.727357
C3    C     C_R   0.386228 0.975745 0.386804 0.730551
C4    C     C_R   0.614129 0.024136 0.612579 0.732156
O9    O     O_R   0.311100 0.305780 0.157130 -0.543781
O10   O     O_R   0.688900 0.694220 0.842870 -0.542506
O11   O     O_R   0.188900 0.805780 0.342870 -0.544759
O12   O     O_R   0.811100 0.194220 0.657130 -0.546152
O13   O     O_R   0.351340 0.139640 0.348510 -0.535127
O14   O     O_R   0.648660 0.860360 0.651490 -0.536560
O15   O     O_R   0.148660 0.639640 0.151490 -0.534446
O16   O     O_R   0.851340 0.360360 0.848510 -0.535573
C5    C     C_R   0.331179 0.476377 0.133941 0.727781
C6    C     C_R   0.668481 0.523754 0.865847 0.728381
C7    C     C_R   0.168531 0.975807 0.365846 0.730764
C8    C     C_R   0.831882 0.024127 0.634586 0.728803
C9    C     C_1   0.533896 0.008811 0.532539 -0.192340
C10   C     C_1   0.466787 0.990847 0.466309 -0.190051
C11   C     C_1   0.966418 0.508940 0.966922 -0.188188
C12   C     C_1   0.033499 0.491161 0.033239 -0.184671
O17   O     O_3   0.263010 0.470920 0.312770 -0.371599
O18   O     O_3   0.736990 0.529080 0.687230 -0.371521
O19   O     O_3   0.236990 0.970920 0.187230 -0.370157
O20   O     O_3   0.763010 0.029080 0.812770 -0.369729
V1    V     V_3+5 0.247590 0.194450 0.238360 1.404379
V2    V     V_3+5 0.752410 0.805550 0.761640 1.409464
V3    V     V_3+5 0.252410 0.694450 0.261640 1.403443
V4    V     V_3+5 0.747590 0.305550 0.738360 1.403713
C13   C     C_R   0.120746 0.991468 0.433947 -0.149301
C14   C     C_R   0.881179 0.006486 0.568217 -0.152390
C15   C     C_R   0.379655 0.493938 0.066765 -0.145676
C16   C     C_R   0.619680 0.507374 0.932950 -0.149217
C17   C     C_R   0.911439 0.837575 0.435144 0.460830
C18   C     C_R   0.095259 0.137634 0.575515 0.458681
C19   C     C_R   0.595806 0.374677 0.078590 0.468060
C20   C     C_R   0.404784 0.636297 0.923779 0.469906
C21   C     C_R   0.855005 0.883474 0.484446 -0.003197
C22   C     C_R   0.147965 0.110824 0.519160 -0.009772
C23   C     C_R   0.647511 0.394172 0.020587 -0.012236
C24   C     C_R   0.351860 0.609677 0.980047 -0.008065
C25   C     C_R   0.960307 0.091299 0.596902 -0.246239
C26   C     C_R   0.043480 0.898161 0.408529 -0.243716
C27   C     C_R   0.540476 0.592326 0.903761 -0.225050
C28   C     C_R   0.459080 0.411237 0.096272 -0.237989
C29   C     C_R   0.014909 0.054980 0.544695 -0.029365
C30   C     C_R   0.989941 0.929343 0.462579 -0.027904
C31   C     C_R   0.486350 0.560101 0.957134 -0.021323
C32   C     C_R   0.513749 0.447868 0.044255 -0.024863
H1    H     H_    0.023776 0.807347 0.343364 0.170599
H2    H     H_    0.979737 0.182644 0.661869 0.170265
H3    H     H_    0.478965 0.322880 0.162444 0.162559
H4    H     H_    0.519913 0.676961 0.836326 0.167110
C33   C     C_3   0.233951 0.203658 0.553369 -0.353130
C34   C     C_3   0.301822 0.050568 0.596399 -0.321436
C35   C     C_3   0.387480 0.142939 0.641627 -0.735944
H5    H     H_    0.390555 0.229237 0.707431 0.222965
H6    H     H_    0.435345 0.027121 0.665334 0.223751
H7    H     H_    0.401499 0.238506 0.587215 0.225009
H8    H     H_    0.287794 0.967328 0.654602 0.219195
H9    H     H_    0.303445 0.947411 0.538102 0.178424
H10   H     H_    0.245069 0.282856 0.492123 0.187845
H11   H     H_    0.239159 0.315884 0.610209 0.203925
C36   C     C_3   0.765832 0.809844 0.443453 -0.371862
C37   C     C_3   0.706834 0.976520 0.394441 -0.310731
C38   C     C_3   0.617752 0.906379 0.344372 -0.728503
H12   H     H_    0.612736 0.824551 0.276542 0.225989
H13   H     H_    0.597825 0.812137 0.394744 0.217754
H14   H     H_    0.575381 0.033429 0.322970 0.229445
H15   H     H_    0.707369 0.088036 0.450171 0.177446
H16   H     H_    0.728658 0.044199 0.337760 0.225189
H17   H     H_    0.759056 0.695182 0.387565 0.205654
H18   H     H_    0.746812 0.741337 0.502009 0.184528
C39   C     C_3   0.265635 0.701157 0.945125 -0.352220
C40   C     C_3   0.198066 0.547194 0.903056 -0.325805
C41   C     C_3   0.112383 0.638566 0.856153 -0.736022
H19   H     H_    0.109689 0.722499 0.789584 0.223427
H20   H     H_    0.064663 0.522278 0.833270 0.222522
H21   H     H_    0.097849 0.736140 0.909251 0.225033
H22   H     H_    0.212685 0.462498 0.845976 0.218457
H23   H     H_    0.196171 0.445728 0.962104 0.178698
H24   H     H_    0.254337 0.780958 0.005952 0.187688
H25   H     H_    0.260288 0.812643 0.887663 0.204248
C42   C     C_3   0.731512 0.292376 0.053775 -0.341326
C43   C     C_3   0.803509 0.434795 0.097689 -0.309632
C44   C     C_3   0.886193 0.326688 0.137631 -0.750590
H26   H     H_    0.885097 0.221179 0.195499 0.224160
H27   H     H_    0.898575 0.246665 0.077374 0.232006
H28   H     H_    0.937294 0.432060 0.170416 0.222189
H29   H     H_    0.806525 0.540282 0.040728 0.180765
H30   H     H_    0.793836 0.517252 0.158888 0.223617
H31   H     H_    0.734291 0.179369 0.109886 0.215706
H32   H     H_    0.740258 0.211438 0.991760 0.187863
O21   O     O_3   0.888848 0.705861 0.358205 -0.567673
C45   C     C_3   0.912451 0.518492 0.397958 -0.310855
H33   H     H_    0.885646 0.481933 0.456165 0.143707
H34   H     H_    0.981305 0.503585 0.427697 0.161203
H35   H     H_    0.888109 0.410143 0.338484 0.174922
O22   O     O_3   0.122764 0.243236 0.662152 -0.564763
C46   C     C_3   0.166485 0.118608 0.740941 -0.309631
H36   H     H_    0.167195 0.962275 0.721101 0.128517
H37   H     H_    0.232093 0.167233 0.772117 0.160458
H38   H     H_    0.138361 0.129203 0.799578 0.161072
O23   O     O_3   0.626467 0.283587 0.169510 -0.562280
C47   C     C_3   0.654338 0.427455 0.243298 -0.296127
H39   H     H_    0.602687 0.473088 0.268406 0.147949
H40   H     H_    0.681911 0.557257 0.219776 0.142503
H41   H     H_    0.703762 0.365707 0.307717 0.155915
O24   O     O_3   0.377224 0.739739 0.836214 -0.563449
C48   C     C_3   0.332463 0.614530 0.758532 -0.317476
H42   H     H_    0.331477 0.458753 0.779521 0.128956
H43   H     H_    0.267047 0.664613 0.727623 0.163033
H44   H     H_    0.359959 0.623009 0.699266 0.161866

loop_
_geom_bond_atom_site_label_1
_geom_bond_atom_site_label_2
_ccdc_geom_bond_type
C2    C11   S    
C33   H11   S    
C16   C23   A    
C31   C32   A    
C35   H6    S    
O1    C5    A    
C44   H26   S    
C21   C36   S    
C38   H13   S    
C38   H12   S    
O3    C7    A    
O23   C47   S    
C36   H17   S    
C39   C40   S    
C43   H30   S    
C14   C25   A    
C29   C30   A    
O24   C48   S    
O7    C3    A    
O5    C1    A    
C26   C30   A    
O13   V1    S    
C34   H8    S    
O20   V4    S    
C48   H43   S    
C18   C29   A    
C18   C22   A    
O4    C8    A    
C25   C29   A    
O22   C46   S    
O3    V1    S    
C33   H10   S    
C40   H22   S    
O17   V1    S    
C24   C39   S    
C45   H35   S    
O8    V4    S    
O11   V3    S    
C36   H18   S    
C14   C21   A    
C37   H16   S    
C37   H15   S    
C1    O15   A    
C2    O16   A    
O5    V1    S    
O2    C6    A    
C8    C14   S    
C46   H36   S    
O19   V1    S    
C42   H32   S    
C39   H24   S    
O11   C7    A    
C15   C28   A    
C35   H7    S    
O12   C8    A    
C46   H37   S    
C45   H33   S    
C19   O23   S    
C47   H40   S    
C47   H39   S    
C43   H29   S    
O4    V2    S    
O18   V2    S    
C22   C33   S    
O21   C45   S    
C48   H44   S    
C42   C43   S    
C3    C10   S    
C9    C10   T    
C7    C13   S    
C25   H2    S    
O6    V2    S    
O20   V2    S    
O9    V1    S    
C34   C35   S    
C28   H3    S    
C18   O22   S    
C41   H19   S    
C5    C15   S    
O8    C4    A    
C6    C16   S    
O9    C5    A    
C45   H34   S    
O14   V2    S    
C39   H25   S    
C41   H20   S    
C44   H28   S    
C38   H14   S    
O19   V3    S    
O1    V3    S    
O2    V4    S    
C3    O13   A    
C26   H1    S    
C23   C42   S    
C37   C38   S    
O10   V2    S    
O6    C2    A    
C34   H9    S    
C16   C27   A    
O17   V3    S    
O18   V4    S    
C4    C9    S    
O10   C6    A    
C36   C37   S    
O15   V3    S    
C48   H42   S    
O12   V4    S    
C13   C26   A    
C20   C31   A    
C40   H23   S    
O7    V3    S    
C43   C44   S    
C46   H38   S    
C17   O21   S    
C27   C31   A    
C33   C34   S    
C17   C30   A    
C35   H5    S    
O16   V4    S    
C20   C24   A    
C19   C32   A    
C41   H21   S    
C20   O24   S    
C44   H27   S    
C40   C41   S    
C4    O14   A    
C11   C12   T    
C17   C21   A    
C27   H4    S    
C42   H31   S    
C13   C22   A    
C19   C23   A    
C47   H41   S    
C28   C32   A    
C1    C12   S    
C15   C24   A    
