data_mof_unit_62998.cif
_audit_creation_date              2012-12-10T17:14:38-0500
_audit_creation_method            fapswitch 2.2
_symmetry_space_group_name_H-M    P1
_symmetry_Int_Tables_number       1
_space_group_crystal_system       triclinic
_cell_length_a                    21.662337
_cell_length_b                    21.66182
_cell_length_c                    47.128286
_cell_angle_alpha                 91.88238
_cell_angle_beta                  90.76047
_cell_angle_gamma                 89.918007
_cell_volume                      22100.8512674

loop_
_atom_site_label
_atom_site_type_symbol
_atom_type_description
_atom_site_fract_x
_atom_site_fract_y
_atom_site_fract_z
_atom_type_partial_charge
C1    C     C_R   0.620188 0.495768 0.999939 0.876135
C2    C     C_R   0.503480 0.620558 0.000767 0.870703
C3    C     C_R   0.380186 0.503385 0.999980 0.920199
C4    C     C_R   0.505435 0.379670 0.999498 0.923790
C5    C     C_R   0.119883 0.997202 0.499886 0.921190
C6    C     C_R   0.997854 0.120252 0.500532 0.914490
C7    C     C_R   0.879787 0.999739 0.499628 0.908772
C8    C     C_R   0.001494 0.879497 0.499541 0.910602
C9    C     C_R   0.546958 0.780345 0.979684 -0.008105
C10   C     C_R   0.218729 0.549887 0.016322 0.000405
C11   C     C_R   0.462393 0.218628 0.982534 -0.039940
C12   C     C_R   0.781897 0.439509 0.011069 -0.005283
C13   C     C_R   0.055765 0.279751 0.503386 -0.018627
C14   C     C_R   0.719771 0.046400 0.518964 -0.005671
C15   C     C_R   0.949065 0.718361 0.490310 -0.018856
C16   C     C_R   0.280598 0.945258 0.509563 -0.015334
C17   C     C_R   0.552350 0.716315 0.984217 -0.017118
C18   C     C_R   0.282658 0.554961 0.012785 -0.037845
C19   C     C_R   0.481892 0.277522 0.976245 -0.018291
C20   C     C_R   0.718791 0.436458 0.003591 -0.015706
C21   C     C_R   0.046072 0.220361 0.512950 -0.006909
C22   C     C_R   0.783991 0.049587 0.515787 -0.016084
C23   C     C_R   0.961693 0.777570 0.481760 -0.028937
C24   C     C_R   0.218705 0.942169 0.501157 -0.032964
C25   C     C_R   0.512141 0.687402 0.002807 -0.179307
C26   C     C_R   0.314302 0.504599 0.999955 -0.153233
C27   C     C_R   0.512217 0.312730 0.998234 -0.184843
C28   C     C_R   0.686736 0.491952 0.999598 -0.117665
C29   C     C_R   0.995480 0.186740 0.501404 -0.154664
C30   C     C_R   0.813586 0.004984 0.498449 -0.147635
C31   C     C_R   0.004205 0.812777 0.498928 -0.169557
C32   C     C_R   0.185744 0.997409 0.499129 -0.133497
C33   C     C_R   0.483509 0.722807 0.024353 0.142120
C34   C     C_R   0.283340 0.452932 0.988199 0.128200
C35   C     C_R   0.539454 0.282992 0.021696 0.117995
C36   C     C_R   0.719111 0.544868 0.993550 0.075606
C37   C     C_R   0.948865 0.215823 0.485505 0.117359
C38   C     C_R   0.779985 0.967570 0.478888 0.144808
C39   C     C_R   0.041335 0.784027 0.519917 0.108407
C40   C     C_R   0.215808 0.053622 0.496077 0.095906
C41   C     C_R   0.475987 0.785865 0.020771 0.116454
C42   C     C_R   0.219287 0.452504 0.987306 0.125235
C43   C     C_R   0.533980 0.218854 0.023301 0.098808
C44   C     C_R   0.778718 0.550763 0.003954 0.174292
C45   C     C_R   0.950118 0.279919 0.483297 0.124679
C46   C     C_R   0.716286 0.963883 0.481187 0.098522
C47   C     C_R   0.039115 0.719851 0.522023 0.114742
C48   C     C_R   0.279238 0.057239 0.500995 0.166158
C49   C     C_R   0.504356 0.813975 0.997560 -0.192757
C50   C     C_R   0.186992 0.499821 0.002283 -0.179318
C51   C     C_R   0.496347 0.186886 0.003304 -0.176725
C52   C     C_R   0.813243 0.497403 0.009002 -0.179574
C53   C     C_R   0.003064 0.312481 0.493322 -0.202696
C54   C     C_R   0.686512 0.001294 0.501992 -0.171959
C55   C     C_R   0.994965 0.686941 0.505804 -0.160506
C56   C     C_R   0.312654 0.001994 0.506559 -0.190482
C57   C     C_R   0.501400 0.998771 0.086260 -0.150089
C58   C     C_R   0.004384 0.500963 0.086439 -0.175476
C59   C     C_R   0.000685 0.500596 0.586169 -0.134595
C60   C     C_R   0.490375 0.001381 0.586313 -0.183308
C61   C     C_R   0.500420 0.999992 0.055358 0.967735
C62   C     C_R   0.000567 0.500641 0.055427 0.943765
C63   C     C_R   0.000281 0.500186 0.555317 0.958425
C64   C     C_R   0.497824 0.000658 0.555416 0.945867
C65   C     C_R   0.500555 0.880008 0.997321 0.963808
C66   C     C_R   0.120386 0.499872 0.000657 0.937382
C67   C     C_R   0.499312 0.120318 0.001354 0.951647
C68   C     C_R   0.880216 0.499836 0.004170 0.943327
C69   C     C_R   0.000492 0.379585 0.497188 0.948949
C70   C     C_R   0.620163 0.000230 0.501583 0.947876
C71   C     C_R   0.999210 0.620251 0.502503 0.931216
C72   C     C_R   0.379721 0.000648 0.502876 0.939668
C73   C     C_R   0.970532 0.450738 0.897517 0.133550
C74   C     C_R   0.492862 0.948236 0.896858 0.108414
C75   C     C_R   0.037381 0.541863 0.899407 0.144041
C76   C     C_R   0.498632 0.060717 0.900724 0.118013
C77   C     C_R   0.468942 0.949373 0.398068 0.134130
C78   C     C_R   0.033467 0.450021 0.399069 0.129218
C79   C     C_R   0.533154 0.042497 0.398701 0.141558
C80   C     C_R   0.972250 0.544826 0.398467 0.129879
C81   C     C_R   0.464619 0.040596 0.102240 0.125257
C82   C     C_R   0.963960 0.537759 0.103019 0.097030
C83   C     C_R   0.538595 0.955276 0.100234 0.132395
C84   C     C_R   0.047937 0.462598 0.099980 0.098443
C85   C     C_R   0.973235 0.550008 0.601597 0.115438
C86   C     C_R   0.448226 0.042698 0.599568 0.102814
C87   C     C_R   0.027291 0.450967 0.600550 0.098884
C88   C     C_R   0.523864 0.959363 0.603054 0.095163
C89   C     C_R   0.499551 0.000295 0.944727 0.941229
C90   C     C_R   0.000355 0.498999 0.944643 0.929296
C91   C     C_R   0.999864 0.499254 0.444715 0.926031
C92   C     C_R   0.500004 0.999035 0.444633 0.924845
C93   C     C_R   0.003158 0.496771 0.913526 -0.107984
C94   C     C_R   0.498117 0.003009 0.913745 -0.094090
C95   C     C_R   0.501132 0.996695 0.413483 -0.102229
C96   C     C_R   0.000528 0.497276 0.413682 -0.083204
C97   C     C_R   0.057489 0.494638 0.809608 0.534054
C98   C     C_R   0.510268 0.056667 0.808988 0.533490
C99   C     C_R   0.947945 0.502222 0.809342 0.532761
C100  C     C_R   0.448385 0.966351 0.808966 0.527733
C101  C     C_R   0.554757 0.985953 0.309885 0.536643
C102  C     C_R   0.028752 0.547199 0.310949 0.530463
C103  C     C_R   0.445258 0.996280 0.309116 0.534145
C104  C     C_R   0.994190 0.442968 0.308267 0.533558
C105  C     C_R   0.945971 0.499618 0.779369 -0.071408
C106  C     C_R   0.451388 0.960567 0.779151 -0.059844
C107  C     C_R   0.059013 0.501350 0.779947 -0.071886
C108  C     C_R   0.499091 0.062194 0.779664 -0.062110
C109  C     C_R   0.443592 0.991655 0.279184 -0.070380
C110  C     C_R   0.002363 0.440268 0.278599 -0.067681
C111  C     C_R   0.556876 0.988053 0.280025 -0.072462
C112  C     C_R   0.026275 0.550643 0.281097 -0.065743
C113  C     C_R   0.002416 0.501252 0.764590 -0.096930
C114  C     C_R   0.473921 0.011025 0.764368 -0.102188
C115  C     C_R   0.500323 0.989716 0.264576 -0.096361
C116  C     C_R   0.015121 0.495751 0.264843 -0.098465
C117  C     C_R   0.889299 0.496665 0.764116 0.161535
C118  C     C_R   0.433436 0.905726 0.764180 0.170840
C119  C     C_R   0.115402 0.507912 0.765569 0.162333
C120  C     C_R   0.512403 0.117091 0.765558 0.175372
C121  C     C_R   0.387050 0.990537 0.263707 0.161319
C122  C     C_R   0.998401 0.383879 0.262661 0.167750
C123  C     C_R   0.613621 0.987035 0.265386 0.158319
C124  C     C_R   0.033945 0.607294 0.267442 0.166367
C125  C     C_R   0.386869 0.990182 0.233820 0.142884
C126  C     C_R   0.000933 0.383797 0.232789 0.142363
C127  C     C_R   0.614044 0.987102 0.235529 0.144320
C128  C     C_R   0.034164 0.608606 0.237529 0.141395
C129  C     C_R   0.888432 0.497994 0.734257 0.144927
C130  C     C_R   0.434483 0.902863 0.734204 0.140819
C131  C     C_R   0.116000 0.510334 0.735729 0.144500
C132  C     C_R   0.506816 0.118291 0.735726 0.140656
C133  C     C_R   0.443768 0.988106 0.219111 -0.092532
C134  C     C_R   0.005911 0.440673 0.218785 -0.091341
C135  C     C_R   0.557502 0.991626 0.220129 -0.091693
C136  C     C_R   0.027353 0.552603 0.221123 -0.090631
C137  C     C_R   0.945165 0.499279 0.719279 -0.092676
C138  C     C_R   0.451253 0.956264 0.719170 -0.091582
C139  C     C_R   0.059282 0.506607 0.719995 -0.095748
C140  C     C_R   0.491009 0.063215 0.719976 -0.089449
C141  C     C_R   0.500510 0.989731 0.234648 -0.077966
C142  C     C_R   0.016279 0.496349 0.234911 -0.080781
C143  C     C_R   0.002291 0.502422 0.734624 -0.080398
C144  C     C_R   0.471836 0.010208 0.734469 -0.083174
C145  C     C_R   0.446627 0.983641 0.189263 0.558895
C146  C     C_R   0.000521 0.444416 0.189085 0.559211
C147  C     C_R   0.555393 0.999332 0.190605 0.559009
C148  C     C_R   0.030412 0.550330 0.191217 0.557110
C149  C     C_R   0.947344 0.496452 0.689366 0.553758
C150  C     C_R   0.449424 0.957921 0.689258 0.557395
C151  C     C_R   0.056904 0.507548 0.690046 0.559044
C152  C     C_R   0.494352 0.058523 0.690166 0.557462
C153  C     C_R   0.501388 0.994822 0.145503 0.205900
C154  C     C_R   0.011345 0.499250 0.145782 0.216380
C155  C     C_R   0.001778 0.501549 0.645396 0.221364
C156  C     C_R   0.477360 0.003988 0.645415 0.219512
C157  C     C_R   0.003268 0.497023 0.854022 0.246133
C158  C     C_R   0.489090 0.008459 0.854178 0.218741
C159  C     C_R   0.499870 0.993937 0.353977 0.248409
C160  C     C_R   0.005532 0.495332 0.354239 0.241502
C161  C     C_R   0.971052 0.451276 0.867910 -0.158757
C162  C     C_R   0.494835 0.951486 0.867372 -0.153278
C163  C     C_R   0.035973 0.542244 0.869808 -0.171637
C164  C     C_R   0.488745 0.062760 0.871336 -0.179083
C165  C     C_R   0.468725 0.948501 0.368463 -0.159454
C166  C     C_R   0.036837 0.450357 0.369515 -0.163466
C167  C     C_R   0.531373 0.040978 0.369073 -0.165823
C168  C     C_R   0.972492 0.541841 0.368805 -0.167579
C169  C     C_R   0.465395 0.038645 0.131720 -0.099266
C170  C     C_R   0.967697 0.536563 0.132516 -0.113839
C171  C     C_R   0.537664 0.953235 0.129691 -0.101870
C172  C     C_R   0.051361 0.462566 0.129481 -0.124408
C173  C     C_R   0.974502 0.550377 0.631140 -0.101998
C174  C     C_R   0.442287 0.043754 0.628960 -0.111910
C175  C     C_R   0.027709 0.451811 0.630106 -0.101162
C176  C     C_R   0.517559 0.961641 0.632424 -0.124752
C177  C     C_R   0.606040 0.685189 0.975185 -0.170881
C178  C     C_R   0.313308 0.609473 0.022787 -0.202609
C179  C     C_R   0.468490 0.298377 0.948661 -0.159723
C180  C     C_R   0.692257 0.378659 0.996188 -0.189361
C181  C     C_R   0.089792 0.195060 0.531761 -0.200784
C182  C     C_R   0.817318 0.099602 0.528345 -0.173448
C183  C     C_R   0.930006 0.797917 0.457090 -0.251508
C184  C     C_R   0.193877 0.884685 0.491801 -0.191182
C185  C     C_R   0.649514 0.714854 0.958838 0.231113
C186  C     C_R   0.279938 0.659905 0.034108 0.153230
C187  C     C_R   0.428889 0.265238 0.930115 0.144411
C188  C     C_R   0.728616 0.325016 0.996144 0.182833
C189  C     C_R   0.146234 0.224356 0.537561 0.209912
C190  C     C_R   0.787434 0.148220 0.542329 0.172704
C191  C     C_R   0.884697 0.760154 0.442949 0.161592
C192  C     C_R   0.230883 0.831502 0.491841 0.184132
C193  C     C_R   0.629631 0.766655 0.944432 0.138461
C194  C     C_R   0.215445 0.655371 0.036256 0.150293
C195  C     C_R   0.396958 0.213101 0.939845 0.152755
C196  C     C_R   0.787228 0.326775 0.009476 0.142565
C197  C     C_R   0.162169 0.276380 0.521966 0.174420
C198  C     C_R   0.723871 0.144317 0.547076 0.142063
C199  C     C_R   0.864076 0.706110 0.456260 0.172193
C200  C     C_R   0.287172 0.832883 0.507166 0.140289
C201  C     C_R   0.586281 0.805515 0.958082 0.119074
C202  C     C_R   0.188423 0.596744 0.032762 0.186075
C203  C     C_R   0.409563 0.194303 0.967831 0.217680
C204  C     C_R   0.811012 0.384195 0.019605 0.202762
C205  C     C_R   0.117564 0.302770 0.503660 0.224903
C206  C     C_R   0.691813 0.089996 0.538354 0.170838
C207  C     C_R   0.891244 0.692326 0.482697 0.207052
C208  C     C_R   0.308726 0.889972 0.518718 0.215710
H1    H     H_    0.437924 0.071302 0.144042 0.179483
H2    H     H_    0.935998 0.564025 0.145266 0.176857
H3    H     H_    0.565135 0.919073 0.140417 0.180715
H4    H     H_    0.085335 0.434026 0.139876 0.179622
H5    H     H_    0.954036 0.588509 0.643116 0.173568
H6    H     H_    0.410099 0.075422 0.639136 0.174147
H7    H     H_    0.047509 0.413472 0.641272 0.170264
H8    H     H_    0.544635 0.930903 0.645329 0.176550
H9    H     H_    0.618975 0.642432 0.984964 0.172788
H10   H     H_    0.362849 0.614177 0.021078 0.168632
H11   H     H_    0.491167 0.337976 0.940330 0.199614
H12   H     H_    0.646115 0.376082 0.987065 0.152702
H13   H     H_    0.081934 0.151601 0.541594 0.195498
H14   H     H_    0.866426 0.104620 0.525359 0.181063
H15   H     H_    0.942875 0.840148 0.447281 0.207800
H16   H     H_    0.148675 0.882180 0.481677 0.161985
H17   H     H_    0.945930 0.416186 0.855594 0.153994
H18   H     H_    0.497239 0.908886 0.854768 0.165952
H19   H     H_    0.061173 0.577359 0.858911 0.148579
H20   H     H_    0.481419 0.107148 0.861971 0.170229
H21   H     H_    0.444090 0.912351 0.356609 0.153197
H22   H     H_    0.063352 0.415029 0.358322 0.155311
H23   H     H_    0.555463 0.075976 0.357608 0.150197
H24   H     H_    0.949750 0.577741 0.357057 0.153553
N1    N     N_R   0.002852 0.497669 0.823585 -0.349713
N2    N     N_R   0.482324 0.010773 0.823531 -0.345856
N3    N     N_R   0.499939 0.992030 0.323554 -0.350733
N4    N     N_R   0.009396 0.495190 0.323777 -0.349349
N5    N     N_R   0.501135 0.992542 0.175889 -0.351012
N6    N     N_R   0.014375 0.497903 0.176147 -0.352114
N7    N     N_R   0.002028 0.501939 0.675824 -0.354406
N8    N     N_R   0.472970 0.007157 0.675757 -0.353084
O1    O     O_R   0.591590 0.499950 0.976370 -0.609450
O2    O     O_R   0.500050 0.591590 0.976370 -0.615999
O3    O     O_R   0.408410 0.500050 0.976370 -0.602446
O4    O     O_R   0.499950 0.408410 0.976370 -0.638806
O5    O     O_R   0.091590 0.999950 0.476370 -0.607832
O6    O     O_R   0.000050 0.091590 0.476370 -0.571787
O7    O     O_R   0.908410 0.000050 0.476370 -0.577977
O8    O     O_R   0.999950 0.908410 0.476370 -0.645008
O9    O     O_R   0.591570 0.499930 0.023700 -0.596676
O10   O     O_R   0.500070 0.591570 0.023700 -0.593273
O11   O     O_R   0.408430 0.500070 0.023700 -0.600233
O12   O     O_R   0.499930 0.408430 0.023700 -0.577315
O13   O     O_R   0.091570 0.999930 0.523700 -0.600985
O14   O     O_R   0.000070 0.091570 0.523700 -0.651643
O15   O     O_R   0.908430 0.000070 0.523700 -0.628858
O16   O     O_R   0.999930 0.908430 0.523700 -0.582729
O17   O     O_R   0.448240 0.999940 0.041970 -0.582108
O18   O     O_R   0.000060 0.448240 0.041970 -0.598257
O19   O     O_R   0.551760 0.000060 0.041970 -0.587537
O20   O     O_R   0.999940 0.551760 0.041970 -0.613741
O21   O     O_R   0.948240 0.499940 0.541970 -0.597466
O22   O     O_R   0.500060 0.948240 0.541970 -0.594316
O23   O     O_R   0.051760 0.500060 0.541970 -0.590482
O24   O     O_R   0.499940 0.051760 0.541970 -0.608219
O25   O     O_R   0.448230 0.908340 0.000040 -0.611912
O26   O     O_R   0.091660 0.448230 0.000040 -0.575506
O27   O     O_R   0.551770 0.091660 0.000040 -0.619128
O28   O     O_R   0.908340 0.551770 0.000040 -0.579763
O29   O     O_R   0.948230 0.408340 0.500040 -0.590904
O30   O     O_R   0.591660 0.948230 0.500040 -0.581840
O31   O     O_R   0.051770 0.591660 0.500040 -0.610136
O32   O     O_R   0.408340 0.051770 0.500040 -0.578106
O33   O     O_R   0.551670 0.908330 0.000040 -0.589581
O34   O     O_R   0.091670 0.551670 0.000040 -0.646274
O35   O     O_R   0.448330 0.091670 0.000040 -0.594750
O36   O     O_R   0.908330 0.448330 0.000040 -0.630750
O37   O     O_R   0.051670 0.408330 0.500040 -0.597467
O38   O     O_R   0.591670 0.051670 0.500040 -0.635125
O39   O     O_R   0.948330 0.591670 0.500040 -0.633055
O40   O     O_R   0.408330 0.948330 0.500040 -0.631660
O41   O     O_R   0.448240 0.999980 0.958120 -0.640575
O42   O     O_R   0.000020 0.448240 0.958120 -0.600237
O43   O     O_R   0.551760 0.000020 0.958120 -0.641531
O44   O     O_R   0.999980 0.551760 0.958120 -0.594432
O45   O     O_R   0.948240 0.499980 0.458120 -0.623016
O46   O     O_R   0.500020 0.948240 0.458120 -0.596469
O47   O     O_R   0.051760 0.500020 0.458120 -0.621607
O48   O     O_R   0.499980 0.051760 0.458120 -0.591781
O49   O     O_2   0.109852 0.484130 0.824533 -0.527550
O50   O     O_2   0.550273 0.095605 0.822480 -0.539259
O51   O     O_2   0.895795 0.510435 0.824361 -0.528781
O52   O     O_2   0.410898 0.928738 0.823123 -0.534802
O53   O     O_2   0.606657 0.977076 0.325383 -0.523005
O54   O     O_2   0.051188 0.594857 0.327091 -0.534551
O55   O     O_2   0.393068 0.006208 0.323913 -0.528529
O56   O     O_2   0.970120 0.394413 0.321508 -0.523811
O57   O     O_2   0.396319 0.968947 0.173400 -0.497297
O58   O     O_2   0.979389 0.396204 0.173025 -0.500631
O59   O     O_2   0.606181 0.015747 0.176531 -0.495062
O60   O     O_2   0.050378 0.599100 0.176945 -0.503995
O61   O     O_2   0.896009 0.486641 0.673507 -0.502178
O62   O     O_2   0.423592 0.911774 0.673456 -0.501554
O63   O     O_2   0.108383 0.513995 0.674811 -0.495234
O64   O     O_2   0.521054 0.103306 0.675469 -0.506124
Zn1   Zn    Zn3+2 0.500000 0.500000 0.968430 0.999765
Zn2   Zn    Zn3+2 0.000000 0.000000 0.468430 1.038286
Zn3   Zn    Zn3+2 0.500000 0.500000 0.031640 1.071760
Zn4   Zn    Zn3+2 0.000000 0.000000 0.531640 1.011967
Zn5   Zn    Zn3+2 0.430890 0.999960 0.000050 1.006551
Zn6   Zn    Zn3+2 0.000040 0.430890 0.000050 1.008990
Zn7   Zn    Zn3+2 0.569110 0.000040 0.000050 0.980207
Zn8   Zn    Zn3+2 0.999960 0.569110 0.000050 1.005532
Zn9   Zn    Zn3+2 0.930890 0.499960 0.500050 0.998738
Zn10  Zn    Zn3+2 0.500040 0.930890 0.500050 1.006125
Zn11  Zn    Zn3+2 0.069110 0.500040 0.500050 0.981190
Zn12  Zn    Zn3+2 0.499960 0.069110 0.500050 1.027179
N9    N     N_2   0.934379 0.405862 0.911091 -0.294422
H25   H     H_    0.890189 0.402206 0.902784 0.235737
C209  C     C_3   0.963771 0.346082 0.912894 -0.706321
H26   H     H_    0.968612 0.324284 0.891363 0.224280
H27   H     H_    0.935032 0.315698 0.925880 0.228262
H28   H     H_    0.010115 0.350579 0.923152 0.271486
N10   N     N_2   0.484290 0.889715 0.909094 -0.339814
H29   H     H_    0.502196 0.852592 0.897617 0.217724
C210  C     C_3   0.423528 0.877790 0.920160 -0.704889
H30   H     H_    0.399371 0.842669 0.906380 0.234862
H31   H     H_    0.394421 0.920109 0.921285 0.253767
H32   H     H_    0.428490 0.859588 0.941789 0.232836
N11   N     N_2   0.073909 0.586495 0.914852 -0.289413
H33   H     H_    0.078504 0.627788 0.904781 0.225498
C211  C     C_3   0.132686 0.563297 0.924883 -0.706557
H34   H     H_    0.162584 0.550688 0.906604 0.245473
H35   H     H_    0.126166 0.522163 0.937951 0.237240
H36   H     H_    0.156194 0.599510 0.938276 0.230528
N12   N     N_2   0.503914 0.117100 0.917037 -0.324566
H37   H     H_    0.482123 0.153476 0.907516 0.234419
C212  C     C_3   0.566233 0.134268 0.925367 -0.761009
H38   H     H_    0.565429 0.179637 0.937115 0.230434
H39   H     H_    0.595544 0.138257 0.906338 0.255489
H40   H     H_    0.586780 0.100030 0.939599 0.266115
N13   N     N_2   0.433649 0.904691 0.412224 -0.296313
H41   H     H_    0.388919 0.901224 0.404571 0.231524
C213  C     C_3   0.462893 0.844715 0.413620 -0.701986
H42   H     H_    0.467240 0.823310 0.391991 0.224420
H43   H     H_    0.434323 0.814146 0.426607 0.225890
H44   H     H_    0.509459 0.848947 0.423695 0.273713
N14   N     N_2   0.063301 0.402038 0.413999 -0.309508
H45   H     H_    0.103816 0.386861 0.404851 0.229499
C214  C     C_3   0.022792 0.351361 0.420101 -0.710935
H46   H     H_    0.006087 0.328143 0.400066 0.259908
H47   H     H_    0.982812 0.368642 0.432407 0.248490
H48   H     H_    0.047900 0.317057 0.432872 0.233305
N15   N     N_2   0.567581 0.089963 0.413378 -0.293236
H49   H     H_    0.570324 0.130478 0.402535 0.230047
C215  C     C_3   0.627426 0.070529 0.423764 -0.658350
H50   H     H_    0.656985 0.055064 0.405781 0.251355
H51   H     H_    0.622393 0.032460 0.438656 0.241479
H52   H     H_    0.650452 0.109651 0.435429 0.239080
N16   N     N_2   0.950016 0.599074 0.412788 -0.309031
H53   H     H_    0.914177 0.620239 0.402211 0.238601
C216  C     C_3   0.998775 0.642345 0.420573 -0.758660
H54   H     H_    0.979298 0.683417 0.431659 0.233427
H55   H     H_    0.022649 0.657739 0.401305 0.259024
H56   H     H_    0.032813 0.621153 0.435141 0.241221
N17   N     N_2   0.832971 0.489739 0.779009 -0.246830
H57   H     H_    0.797197 0.518260 0.773247 0.254170
C217  C     C_3   0.815046 0.426399 0.783251 -0.647475
H58   H     H_    0.803937 0.402597 0.762590 0.236722
H59   H     H_    0.773618 0.425650 0.796852 0.241211
H60   H     H_    0.852837 0.401130 0.794060 0.236425
N18   N     N_2   0.419535 0.851826 0.779503 -0.248837
H61   H     H_    0.384365 0.824521 0.771226 0.253980
C218  C     C_3   0.473044 0.817347 0.788780 -0.678206
H62   H     H_    0.498889 0.798604 0.770198 0.241295
H63   H     H_    0.458035 0.778328 0.801731 0.238265
H64   H     H_    0.504232 0.847325 0.802072 0.230326
N19   N     N_2   0.171611 0.514713 0.781487 -0.248153
H65   H     H_    0.208742 0.489462 0.774121 0.252388
C219  C     C_3   0.186301 0.577500 0.790635 -0.650681
H66   H     H_    0.195902 0.605984 0.772044 0.238266
H67   H     H_    0.227821 0.577497 0.804703 0.238286
H68   H     H_    0.147432 0.598410 0.802757 0.235697
N20   N     N_2   0.526861 0.172191 0.781719 -0.248477
H69   H     H_    0.558761 0.201006 0.772999 0.254372
C220  C     C_3   0.473913 0.204261 0.793553 -0.685157
H70   H     H_    0.443589 0.221349 0.776311 0.241523
H71   H     H_    0.489708 0.244281 0.807054 0.238748
H72   H     H_    0.446928 0.173136 0.806961 0.231079
N21   N     N_2   0.330060 0.988098 0.278409 -0.247491
H73   H     H_    0.296492 0.018660 0.272129 0.253975
C221  C     C_3   0.307603 0.926358 0.282901 -0.640729
H74   H     H_    0.295614 0.902740 0.262294 0.238081
H75   H     H_    0.265704 0.928919 0.296197 0.240687
H76   H     H_    0.343166 0.898923 0.294130 0.237950
N22   N     N_2   0.995120 0.326878 0.276885 -0.247456
H77   H     H_    0.966729 0.293712 0.267558 0.255837
C222  C     C_3   0.054044 0.303267 0.286568 -0.650917
H78   H     H_    0.083930 0.291427 0.268207 0.236416
H79   H     H_    0.046579 0.261047 0.298800 0.243222
H80   H     H_    0.077938 0.338006 0.300661 0.234686
N23   N     N_2   0.670577 0.987469 0.280900 -0.249556
H81   H     H_    0.702694 0.955136 0.274330 0.252175
C223  C     C_3   0.695978 0.048304 0.286955 -0.626761
H82   H     H_    0.709341 0.070277 0.266987 0.236920
H83   H     H_    0.737555 0.044390 0.300809 0.242266
H84   H     H_    0.661685 0.078034 0.298222 0.240163
N24   N     N_2   0.037633 0.663601 0.283933 -0.248638
H85   H     H_    0.068854 0.695631 0.277198 0.252198
C224  C     C_3   0.978595 0.689633 0.292048 -0.655061
H86   H     H_    0.952191 0.703892 0.272993 0.237918
H87   H     H_    0.986112 0.730714 0.306370 0.238723
H88   H     H_    0.951034 0.655446 0.303544 0.235334
I1    I     I_    0.298198 0.998918 0.212790 -0.234876
I2    I     I_    0.007171 0.295240 0.210664 -0.234582
I3    I     I_    0.701917 0.973050 0.215205 -0.233876
I4    I     I_    0.035953 0.698530 0.219055 -0.243635
I5    I     I_    0.798262 0.500383 0.713992 -0.245632
I6    I     I_    0.418749 0.813427 0.713776 -0.238579
I7    I     I_    0.205665 0.521278 0.716797 -0.234733
I8    I     I_    0.513266 0.207084 0.716534 -0.255638
I9    I     I_    0.408880 0.110032 0.083799 -0.267944
I10   I     I_    0.892632 0.592168 0.085505 -0.270801
I11   I     I_    0.595383 0.888949 0.078779 -0.238413
I12   I     I_    0.113435 0.406311 0.077857 -0.284783
I13   I     I_    0.929261 0.625579 0.581897 -0.270581
I14   I     I_    0.387673 0.101592 0.577160 -0.326353
I15   I     I_    0.062571 0.371044 0.579071 -0.396633
I16   I     I_    0.588455 0.893679 0.586535 -0.313052
I17   I     I_    0.467862 0.685837 0.065514 -0.262579
I18   I     I_    0.334019 0.373376 0.973598 -0.332676
I19   I     I_    0.594320 0.332645 0.053381 -0.275701
I20   I     I_    0.711638 0.565922 0.949994 -0.367886
I21   I     I_    0.875485 0.162991 0.465426 -0.287898
I22   I     I_    0.823661 0.923369 0.443174 -0.340659
I23   I     I_    0.103499 0.835502 0.547907 -0.290266
I24   I     I_    0.167087 0.127375 0.476172 -0.340679
N25   N     N_2   0.712522 0.711303 0.967768 -0.278059
H89   H     H_    0.744010 0.703024 0.951923 0.259441
C225  C     C_3   0.731043 0.760230 0.987920 -0.683539
H90   H     H_    0.722005 0.806177 0.979438 0.211048
H91   H     H_    0.705618 0.756016 0.008156 0.270496
H92   H     H_    0.781435 0.758582 0.992126 0.254785
N26   N     N_2   0.312280 0.712862 0.044977 -0.299426
H93   H     H_    0.306980 0.751187 0.032773 0.238633
C226  C     C_3   0.306974 0.725720 0.075380 -0.647879
H94   H     H_    0.284269 0.687310 0.086360 0.234057
H95   H     H_    0.353070 0.732822 0.085139 0.285516
H96   H     H_    0.280792 0.769109 0.079490 0.221763
N27   N     N_2   0.422454 0.285440 0.901829 -0.319221
H97   H     H_    0.439528 0.255076 0.886688 0.219372
C227  C     C_3   0.364399 0.314673 0.894242 -0.714005
H98   H     H_    0.372799 0.363415 0.889022 0.261013
H99   H     H_    0.330655 0.313743 0.911808 0.270419
H100  H     H_    0.343797 0.290134 0.875362 0.216984
N28   N     N_2   0.709182 0.272271 0.979607 -0.314588
H101  H     H_    0.742770 0.253727 0.966558 0.235094
C228  C     C_3   0.674364 0.226168 0.994027 -0.747777
H102  H     H_    0.698568 0.180894 0.992687 0.230065
H103  H     H_    0.668284 0.238940 0.016802 0.275122
H104  H     H_    0.628625 0.220710 0.983424 0.251453
N29   N     N_2   0.188922 0.196132 0.556466 -0.295272
H105  H     H_    0.234898 0.205316 0.553415 0.259651
C229  C     C_3   0.171929 0.199990 0.586036 -0.706057
H106  H     H_    0.170399 0.249084 0.593640 0.254194
H107  H     H_    0.126195 0.178220 0.589102 0.244306
H108  H     H_    0.206671 0.175100 0.598901 0.250792
N30   N     N_2   0.822604 0.200549 0.551742 -0.301253
H109  H     H_    0.801225 0.242694 0.549574 0.246193
C230  C     C_3   0.855658 0.194157 0.578351 -0.743270
H110  H     H_    0.845201 0.149554 0.588380 0.240315
H111  H     H_    0.906037 0.196435 0.574538 0.261611
H112  H     H_    0.842615 0.232195 0.593547 0.239183
N31   N     N_2   0.864972 0.773995 0.414763 -0.320389
H113  H     H_    0.895047 0.800808 0.403261 0.238990
C231  C     C_3   0.799627 0.784751 0.408948 -0.681007
H114  H     H_    0.792733 0.830177 0.399191 0.268841
H115  H     H_    0.771669 0.783203 0.428560 0.270505
H116  H     H_    0.782635 0.749445 0.393175 0.220898
N32   N     N_2   0.214074 0.779467 0.474189 -0.310939
H117  H     H_    0.250603 0.759410 0.463496 0.232810
C232  C     C_3   0.173591 0.735014 0.486540 -0.744853
H118  H     H_    0.190486 0.687321 0.481900 0.234188
H119  H     H_    0.171646 0.741788 0.509910 0.271946
H120  H     H_    0.126714 0.739443 0.477075 0.252565
N33   N     N_2   0.653470 0.782580 0.917427 -0.320418
H121  H     H_    0.627486 0.764491 0.900731 0.229310
C233  C     C_3   0.719211 0.780414 0.912137 -0.780491
H122  H     H_    0.733951 0.732518 0.906575 0.249484
H123  H     H_    0.745954 0.799200 0.930595 0.244330
H124  H     H_    0.729669 0.809683 0.893880 0.249031
N34   N     N_2   0.177903 0.707451 0.044056 -0.310930
H125  H     H_    0.199709 0.746593 0.051841 0.249675
C234  C     C_3   0.127495 0.721597 0.024719 -0.777554
H126  H     H_    0.138439 0.763915 0.013082 0.238272
H127  H     H_    0.084896 0.730014 0.037084 0.256574
H128  H     H_    0.118336 0.683605 0.008795 0.244167
N35   N     N_2   0.351077 0.182056 0.922457 -0.314213
H129  H     H_    0.336073 0.203269 0.904462 0.254689
C235  C     C_3   0.354335 0.115359 0.918664 -0.819487
H130  H     H_    0.367092 0.102531 0.896501 0.243385
H131  H     H_    0.308250 0.095456 0.922702 0.253406
H132  H     H_    0.388366 0.094570 0.933303 0.268363
N36   N     N_2   0.821902 0.271355 0.012912 -0.309143
H133  H     H_    0.797047 0.231017 0.013917 0.255317
C236  C     C_3   0.877604 0.265378 0.996295 -0.807690
H134  H     H_    0.870358 0.231275 0.978431 0.236029
H135  H     H_    0.915690 0.248975 0.010076 0.256939
H136  H     H_    0.891758 0.310045 0.987389 0.249129
N37   N     N_2   0.223337 0.300232 0.523169 -0.318303
H137  H     H_    0.257541 0.269057 0.517855 0.257750
C237  C     C_3   0.238276 0.339860 0.547589 -0.740844
H138  H     H_    0.255235 0.312125 0.565458 0.249851
H139  H     H_    0.197544 0.367434 0.554446 0.268527
H140  H     H_    0.275251 0.372431 0.541862 0.248682
N38   N     N_2   0.692466 0.192123 0.562611 -0.316170
H141  H     H_    0.718489 0.214016 0.578443 0.246294
C238  C     C_3   0.659614 0.235120 0.545030 -0.749321
H142  H     H_    0.692519 0.260657 0.531828 0.241559
H143  H     H_    0.634128 0.268904 0.558695 0.255567
H144  H     H_    0.625615 0.210473 0.530919 0.243698
N39   N     N_2   0.817804 0.666649 0.442993 -0.306614
H145  H     H_    0.810136 0.673273 0.421634 0.250127
C239  C     C_3   0.817385 0.600944 0.448770 -0.763388
H146  H     H_    0.806015 0.572765 0.429075 0.235814
H147  H     H_    0.780555 0.591750 0.464403 0.240174
H148  H     H_    0.863222 0.585143 0.456536 0.276046
N40   N     N_2   0.321138 0.777624 0.511641 -0.311738
H149  H     H_    0.295243 0.737761 0.511834 0.256189
C240  C     C_3   0.376901 0.770726 0.495106 -0.803451
H150  H     H_    0.365711 0.750214 0.473666 0.230407
H151  H     H_    0.409315 0.739207 0.506208 0.256479
H152  H     H_    0.400425 0.816080 0.492737 0.255578
N41   N     N_2   0.589960 0.869515 0.952068 -0.269685
H153  H     H_    0.583606 0.876982 0.930831 0.240272
C241  C     C_3   0.647946 0.898558 0.961157 -0.646317
H154  H     H_    0.687345 0.878670 0.949353 0.211311
H155  H     H_    0.656111 0.893584 0.984261 0.244299
H156  H     H_    0.647938 0.948308 0.956649 0.236512
N42   N     N_2   0.137991 0.582104 0.050413 -0.290545
H157  H     H_    0.101605 0.612474 0.048841 0.276825
C242  C     C_3   0.156185 0.574964 0.079809 -0.711475
H158  H     H_    0.115068 0.565607 0.092663 0.248383
H159  H     H_    0.177672 0.618089 0.088737 0.243817
H160  H     H_    0.189345 0.536104 0.081640 0.263032
N43   N     N_2   0.363484 0.162122 0.983036 -0.279252
H161  H     H_    0.329613 0.139560 0.971278 0.248803
C243  C     C_3   0.338444 0.194713 0.007731 -0.639670
H162  H     H_    0.320098 0.160423 0.022539 0.247181
H163  H     H_    0.300042 0.225589 0.000987 0.246394
H164  H     H_    0.374096 0.222812 0.019515 0.254981
N44   N     N_2   0.859799 0.386519 0.040241 -0.286039
H165  H     H_    0.892367 0.352044 0.038224 0.266513
C244  C     C_3   0.838765 0.394254 0.069121 -0.699857
H166  H     H_    0.879175 0.399566 0.083749 0.251911
H167  H     H_    0.812030 0.352992 0.075137 0.252948
H168  H     H_    0.809542 0.436226 0.071483 0.256551
N45   N     N_2   0.136987 0.338176 0.480252 -0.288069
H169  H     H_    0.142695 0.313146 0.461500 0.223000
C245  C     C_3   0.178916 0.389754 0.484738 -0.608340
H170  H     H_    0.227250 0.374616 0.481063 0.222582
H171  H     H_    0.174480 0.410647 0.506437 0.247970
H172  H     H_    0.167359 0.425775 0.469313 0.224566
N46   N     N_2   0.636173 0.075868 0.552399 -0.294456
H173  H     H_    0.603970 0.110779 0.551436 0.271911
C246  C     C_3   0.646411 0.057282 0.581307 -0.715621
H174  H     H_    0.601702 0.051508 0.591886 0.245341
H175  H     H_    0.672185 0.093245 0.593948 0.248284
H176  H     H_    0.672475 0.013177 0.581518 0.260570
N47   N     N_2   0.854968 0.668376 0.504951 -0.268093
H177  H     H_    0.837715 0.624481 0.501681 0.249141
C247  C     C_3   0.810095 0.711433 0.516589 -0.684245
H178  H     H_    0.786342 0.690341 0.534590 0.248843
H179  H     H_    0.774946 0.722826 0.500149 0.240240
H180  H     H_    0.833445 0.754467 0.524550 0.254511
N48   N     N_2   0.355008 0.892093 0.540628 -0.288573
H181  H     H_    0.384298 0.854699 0.541149 0.267711
C248  C     C_3   0.331871 0.909221 0.568434 -0.700407
H182  H     H_    0.371052 0.913853 0.583803 0.252996
H183  H     H_    0.300033 0.872910 0.575705 0.256865
H184  H     H_    0.307238 0.954193 0.567988 0.253728
I25   I     I_    0.425596 0.838728 0.052551 -0.293650
I26   I     I_    0.174115 0.383265 0.960195 -0.315007
I27   I     I_    0.577048 0.170142 0.057335 -0.258645
I28   I     I_    0.809979 0.640722 0.015486 -0.281851
I29   I     I_    0.873421 0.324942 0.462716 -0.298318
I30   I     I_    0.665809 0.903994 0.451288 -0.343088
I31   I     I_    0.095729 0.672713 0.552338 -0.260679
I32   I     I_    0.319107 0.148610 0.500544 -0.307700

loop_
_geom_bond_atom_site_label_1
_geom_bond_atom_site_label_2
_ccdc_geom_bond_type
C221  H76   S    
O1    Zn1   S    
C190  N30   S    
C115  C141  A    
C102  N4    A    
C19   C179  A    
C24   C184  A    
C228  H102  S    
C108  C120  A    
C91   O47   A    
C34   C42   A    
C131  I7    S    
C53   C69   S    
C132  I8    S    
C212  H38   S    
C129  I5    S    
N25   H89   S    
O3    Zn1   S    
C90   C93   S    
C148  N6    A    
C223  H83   S    
C124  N24   S    
C112  C124  A    
C58   C82   A    
C99   N1    A    
C208  N48   S    
C145  O57   S    
C70   O30   A    
C90   O42   A    
C189  C197  A    
C63   O21   A    
C193  C201  A    
C154  C170  A    
O39   Zn9   S    
C244  H166  S    
C241  H156  S    
C89   C94   S    
C48   I32   S    
C107  C113  A    
C73   C161  A    
C76   C94   A    
C91   C96   S    
N24   H85   S    
C100  N2    A    
C243  H162  S    
C78   C96   A    
C56   C72   S    
C83   C171  A    
C39   I23   S    
C57   C83   A    
C73   C93   A    
C196  C204  A    
C37   I21   S    
C62   O18   A    
C36   C44   A    
C184  H16   S    
C201  N41   S    
C146  O58   S    
C75   N11   S    
C200  C208  A    
C106  C118  A    
C165  H21   S    
N34   C234  S    
C163  H19   S    
C41   C49   A    
N15   C215  S    
N36   C236  S    
O10   Zn3   S    
C134  C146  A    
C216  H56   S    
C247  H179  S    
C181  H13   S    
N46   H173  S    
C123  N23   S    
C4    O12   A    
C102  O54   S    
O18   Zn6   S    
C218  H64   S    
N12   C212  S    
C60   C86   A    
C20   C28   A    
C27   C35   A    
N45   H169  S    
C21   C29   A    
C8    O16   A    
C86   C174  A    
C23   C31   A    
C173  H5    S    
C24   C32   A    
C168  H24   S    
C215  H50   S    
C54   C70   S    
C193  N33   S    
C194  N34   S    
C248  H184  S    
C11   C19   A    
C12   C20   A    
C13   C21   A    
C233  H123  S    
C57   C61   S    
C10   C202  A    
O28   Zn8   S    
C116  C142  A    
N30   C230  S    
C149  O61   S    
N41   C241  S    
N21   H73   S    
C228  H104  S    
C91   O45   A    
C132  C140  A    
C37   C45   A    
N20   H69   S    
C130  C138  A    
C110  C116  A    
C231  H114  S    
C212  H40   S    
O27   Zn7   S    
C75   C93   A    
C204  N44   S    
C39   C47   A    
C230  H112  S    
C17   C177  A    
C40   C48   A    
O8    Zn2   S    
C205  N45   S    
C179  H11   S    
C100  C106  A    
C6    O6    A    
C3    C26   S    
C73   N9    S    
C177  H9    S    
C36   I20   S    
C33   I17   S    
C59   C63   S    
C70   O38   A    
C60   C64   S    
C17   C25   A    
C222  H79   S    
C195  N35   S    
C197  N37   S    
C100  O52   S    
N17   H57   S    
O24   Zn12  S    
C104  C110  A    
C109  C121  A    
C238  H142  S    
C10   C18   A    
O46   Zn10  S    
C149  N7    A    
C159  C167  A    
C217  H60   S    
C97   O49   S    
C192  C200  A    
C226  H94   S    
C59   C87   A    
N26   C226  S    
C77   N13   S    
N12   H37   S    
C178  C186  A    
C129  C137  A    
C126  C134  A    
O11   Zn3   S    
C160  N4    S    
N16   H53   S    
N28   C228  S    
C133  C141  A    
C182  C190  A    
C188  N28   S    
C72   O40   A    
C224  H86   S    
C68   O36   A    
C80   C168  A    
C55   C71   S    
C220  H71   S    
C101  O53   S    
C209  H27   S    
C214  H46   S    
C195  C203  A    
O22   Zn10  S    
C240  H152  S    
C59   C85   A    
N23   H81   S    
C60   C88   A    
C98   C108  A    
N29   H105  S    
C23   C183  A    
C30   C38   A    
C242  H158  S    
C38   I22   S    
C105  C113  A    
C3    O11   A    
O37   Zn11  S    
C225  H91   S    
C196  N36   S    
O38   Zn12  S    
C239  H148  S    
C1    O9    A    
C229  H107  S    
C77   C165  A    
C127  I3    S    
C67   O27   A    
C128  I4    S    
C75   C163  A    
C82   I10   S    
O47   Zn11  S    
C210  H31   S    
C139  C143  A    
C146  N6    A    
C170  H2    S    
N25   C225  S    
C119  C131  A    
O14   Zn4   S    
C78   N14   S    
C233  H124  S    
C117  C129  A    
O33   Zn7   S    
O34   Zn8   S    
C203  N43   S    
C227  H100  S    
O35   Zn5   S    
C126  I2    S    
C237  H140  S    
C97   N1    A    
N10   H29   S    
O20   Zn8   S    
C179  C187  A    
N11   C211  S    
C230  H110  S    
O23   Zn11  S    
C162  H18   S    
C240  H150  S    
C245  H172  S    
N13   C213  S    
C236  H135  S    
C65   O33   A    
C243  H164  S    
C9    C49   A    
O36   Zn6   S    
C74   C162  A    
C219  H68   S    
N27   C227  S    
C172  H4    S    
C71   O39   A    
C159  C165  A    
N46   C246  S    
C15   C55   A    
C226  H96   S    
C16   C56   A    
C76   C164  A    
C121  C125  A    
N33   H121  S    
C88   I16   S    
C229  H108  S    
C211  H35   S    
C123  C127  A    
C98   N2    A    
C76   N12   S    
C191  N31   S    
C232  H118  S    
C199  N39   S    
C51   C67   S    
C224  H88   S    
C2    O2    A    
C28   C36   A    
C136  C148  A    
C34   I18   S    
C42   C50   A    
O40   Zn10  S    
C215  H51   S    
C147  O59   S    
C214  H48   S    
C81   C169  A    
C213  H43   S    
C151  O63   S    
C212  H39   S    
C29   C37   A    
C237  H138  S    
C152  O64   S    
C112  C116  A    
C4    C27   S    
C246  H176  S    
C221  H75   S    
C140  C152  A    
O12   Zn3   S    
C103  N3    A    
C22   C30   A    
C8    C31   S    
C159  N3    S    
C186  C194  A    
C84   C172  A    
C239  H146  S    
C103  O55   S    
O7    Zn2   S    
N31   C231  S    
C87   C175  A    
C154  N6    S    
C135  C147  A    
C88   C176  A    
C79   C167  A    
C14   C22   A    
C185  N25   S    
N16   C216  S    
C22   C182  A    
C138  C144  A    
O4    Zn1   S    
C158  N2    S    
C139  C151  A    
C198  N38   S    
N43   C243  S    
C44   I28   S    
C125  I1    S    
N24   C224  S    
O26   Zn6   S    
C211  H36   S    
N19   C219  S    
C131  C139  A    
N48   H181  S    
C104  N4    A    
C118  N18   S    
C18   C178  A    
C183  H15   S    
N27   H97   S    
N42   H157  S    
N41   H153  S    
C4    O4    A    
C15   C207  A    
N38   H141  S    
C25   C33   A    
C58   C62   S    
C84   I12   S    
C160  C166  A    
C244  H167  S    
C74   C94   A    
C102  C112  A    
N32   H117  S    
C18   C26   A    
C61   O17   A    
C65   O25   A    
C237  H139  S    
N15   H49   S    
C219  H66   S    
N44   C244  S    
C160  C168  A    
C216  H55   S    
C156  C174  A    
C47   C55   A    
C98   O50   S    
O41   Zn5   S    
C242  H160  S    
C128  C136  A    
N37   H137  S    
C64   O22   A    
N47   C247  S    
O29   Zn9   S    
N18   H61   S    
C194  C202  A    
C42   I26   S    
C232  H120  S    
C177  C185  A    
C45   I29   S    
C108  C114  A    
N9    C209  S    
C136  C142  A    
C180  C188  A    
C12   C52   A    
C181  C189  A    
C223  H82   S    
C248  H183  S    
C1    C28   S    
C184  C192  A    
C92   O48   A    
C124  C128  A    
C5    C32   S    
C35   I19   S    
C147  N5    A    
C155  N7    S    
N28   H101  S    
C166  H22   S    
C7    C30   S    
C234  H126  S    
C228  H103  S    
C235  H131  S    
C107  C119  A    
O9    Zn3   S    
C13   C53   A    
C230  H111  S    
C182  H14   S    
C78   C166  A    
C111  C123  A    
C223  H84   S    
N48   C248  S    
C92   O46   A    
C197  C205  A    
C222  H80   S    
C189  N29   S    
N14   H45   S    
C14   C206  A    
C81   I9    S    
C121  N21   S    
C246  H174  S    
C156  N8    S    
C229  H106  S    
C183  C191  A    
C174  H6    S    
C114  C144  A    
C200  N40   S    
C225  H90   S    
C79   C95   A    
C118  C130  A    
C134  C142  A    
N36   H133  S    
C235  H132  S    
C46   C54   A    
C120  N20   S    
C117  N17   S    
C206  N46   S    
C217  H59   S    
C71   O31   A    
C11   C203  A    
O43   Zn7   S    
C9    C201  A    
O15   Zn4   S    
O6    Zn2   S    
C122  N22   S    
C150  N8    A    
C13   C205  A    
C66   O34   A    
C61   O19   A    
C10   C50   A    
C157  C161  A    
C46   I30   S    
C190  C198  A    
C238  H143  S    
C220  H70   S    
C155  C175  A    
N40   C240  S    
C20   C180  A    
C156  C176  A    
C7    O15   A    
C40   I24   S    
C178  H10   S    
C140  C144  A    
C5    O5    A    
N38   C238  S    
C63   O23   A    
C238  H144  S    
N22   H77   S    
C64   O24   A    
O16   Zn4   S    
C153  N5    S    
C104  O56   S    
C151  N7    A    
C89   O41   A    
N35   C235  S    
C103  C109  A    
C33   C41   A    
C130  I6    S    
C2    O10   A    
C47   I31   S    
C110  C122  A    
C231  H116  S    
C239  H147  S    
C43   C51   A    
C148  O60   S    
C101  C111  A    
C150  O62   S    
C202  N42   S    
C2    C25   S    
C119  N19   S    
C67   O35   A    
C210  H30   S    
C99   C105  A    
C68   O28   A    
C80   N16   S    
C69   O29   A    
C209  H26   S    
C113  C143  A    
C6    C29   S    
C8    O8    A    
C242  H159  S    
C234  H128  S    
C153  C169  A    
N21   C221  S    
C222  H78   S    
C247  H180  S    
N40   H149  S    
C175  H7    S    
C227  H99   S    
C213  H42   S    
C82   C170  A    
C7    O7    A    
N42   C242  S    
N11   H33   S    
C217  H58   S    
C211  H34   S    
C87   I15   S    
O44   Zn8   S    
C221  H74   S    
C245  H171  S    
N13   H41   S    
C138  C150  A    
C21   C181  A    
C236  H134  S    
C49   C65   S    
C106  C114  A    
C241  H155  S    
C243  H163  S    
C191  C199  A    
N17   C217  S    
C219  H67   S    
C231  H115  S    
O25   Zn5   S    
C5    O13   A    
C235  H130  S    
C6    O14   A    
N35   H129  S    
O32   Zn12  S    
C226  H95   S    
O17   Zn5   S    
C207  N47   S    
C240  H151  S    
C86   I14   S    
O19   Zn7   S    
C79   N15   S    
C192  N32   S    
N18   C218  S    
C145  N5    A    
C101  N3    A    
C105  C117  A    
N34   H125  S    
C176  H8    S    
C97   C107  A    
C80   C96   A    
C19   C27   A    
N39   H145  S    
C157  C163  A    
C52   C68   S    
C158  C164  A    
C220  H72   S    
C155  C173  A    
C12   C204  A    
C137  C143  A    
C209  H28   S    
C214  H47   S    
C157  N1    S    
C137  C149  A    
C99   O51   S    
O42   Zn6   S    
N23   C223  S    
C26   C34   A    
N45   C245  S    
C161  H17   S    
N29   C229  S    
O30   Zn10  S    
C89   O43   A    
C38   C46   A    
C246  H175  S    
C90   O44   A    
N30   H109  S    
N31   H113  S    
C225  H92   S    
N37   C237  S    
N44   H165  S    
C109  C115  A    
C74   N10   S    
C186  N26   S    
C77   C95   A    
C92   C95   S    
C227  H98   S    
C122  C126  A    
C210  H32   S    
N10   C210  S    
N20   C220  S    
C58   C84   A    
C198  C206  A    
N14   C214  S    
C171  H3    S    
C85   C173  A    
C245  H170  S    
C152  N8    A    
C135  C141  A    
C241  H154  S    
O2    Zn1   S    
C69   O37   A    
C153  C171  A    
O13   Zn4   S    
C199  C207  A    
N43   H161  S    
C154  C172  A    
C164  H20   S    
C3    O3    A    
C50   C66   S    
N19   H65   S    
C1    O1    A    
C9    C17   A    
N39   C239  S    
C14   C54   A    
O45   Zn9   S    
C187  N27   S    
C57   C81   A    
C180  H12   S    
C224  H87   S    
O48   Zn12  S    
C62   O20   A    
C233  H122  S    
C35   C43   A    
O5    Zn2   S    
C41   I25   S    
C125  C133  A    
C48   C56   A    
C236  H136  S    
C43   I27   S    
C187  C195  A    
C120  C132  A    
O31   Zn11  S    
C185  C193  A    
C244  H168  S    
C16   C208  A    
C66   O26   A    
N32   C232  S    
C167  H23   S    
C216  H54   S    
O21   Zn9   S    
C234  H127  S    
N26   H93   S    
N33   C233  S    
C218  H62   S    
C247  H178  S    
N22   C222  S    
C44   C52   A    
N47   H177  S    
C15   C23   A    
C232  H119  S    
C218  H63   S    
C31   C39   A    
C32   C40   A    
N9    H25   S    
C127  C135  A    
C85   I13   S    
C11   C51   A    
C158  C162  A    
C45   C53   A    
C215  H52   S    
C133  C145  A    
C188  C196  A    
C16   C24   A    
C248  H182  S    
C213  H44   S    
C72   O32   A    
C169  H1    S    
C111  C115  A    
C83   I11   S    
