data_mof_unit_56991.cif
_audit_creation_date              2013-03-05T15:52:42-0500
_audit_creation_method            fapswitch 2.2
_symmetry_space_group_name_H-M    P1
_symmetry_Int_Tables_number       1
_space_group_crystal_system       triclinic
_cell_length_a                    10.721721
_cell_length_b                    10.770763
_cell_length_c                    16.999975
_cell_angle_alpha                 99.568991
_cell_angle_beta                  99.783344
_cell_angle_gamma                 61.454731
_cell_volume                      1691.23329123

loop_
_atom_site_label
_atom_site_type_symbol
_atom_site_description
_atom_site_fract_x
_atom_site_fract_y
_atom_site_fract_z
_atom_type_partial_charge
O1    O     O_R   0.749250 0.499990 0.439200 -0.481494
O2    O     O_R   0.477870 0.725740 0.440280 -0.433893
C1    C     C_R   0.353936 0.777083 0.402193 0.571774
O3    O     O_R   0.260770 0.742210 0.412610 -0.510098
O4    O     O_R   0.297990 0.466320 0.394220 -0.496899
C2    C     C_R   0.369308 0.346430 0.357272 0.557464
O5    O     O_R   0.487720 0.253870 0.385870 -0.470081
O6    O     O_R   0.721940 0.304340 0.422320 -0.498157
C3    C     C_R   0.776033 0.377200 0.404746 0.550644
O7    O     O_R   0.750770 0.502570 0.614050 -0.508733
O8    O     O_R   0.479280 0.728140 0.602370 -0.479305
C4    C     C_R   0.381457 0.714197 0.631512 0.545396
O9    O     O_R   0.262290 0.744790 0.587460 -0.495205
O10   O     O_R   0.299400 0.468710 0.556310 -0.511512
C5    C     C_R   0.371339 0.348640 0.584095 0.548463
O11   O     O_R   0.489240 0.256450 0.560730 -0.480974
O12   O     O_R   0.723350 0.306730 0.584410 -0.505535
C6    C     C_R   0.773027 0.381194 0.629699 0.532810
Cr1   Cr    Cr6+3 0.608020 0.610770 0.522990 1.102662
Cr2   Cr    Cr6+3 0.289390 0.599570 0.488050 1.056258
Cr3   Cr    Cr6+3 0.602610 0.289690 0.489020 1.081954
O13   O     O_3   0.500010 0.500010 0.500020 -0.301758
C7    C     C_1   0.342793 0.336291 0.273892 -0.030495
C8    C     C_1   0.331793 0.326218 0.202988 -0.030901
C9    C     C_2   0.847157 0.330357 0.332399 -0.106850
C10   C     C_2   0.830218 0.330008 0.159496 -0.109408
C11   C     C_2   0.856374 0.217237 0.195866 -0.161454
C12   C     C_2   0.828053 0.233282 0.278470 -0.163410
H1    H     H_    0.902808 0.110208 0.165778 0.167085
H2    H     H_    0.784415 0.168579 0.293440 0.178467
H3    H     H_    0.779934 0.437130 0.189230 0.128357
H4    H     H_    0.895636 0.390871 0.317547 0.130205
C13   C     C_2   0.326014 0.855706 0.333798 -0.107329
C14   C     C_2   0.340597 0.836077 0.162240 -0.147838
C15   C     C_2   0.411440 0.888628 0.219241 -0.137641
C16   C     C_2   0.429216 0.866448 0.304171 0.171501
H5    H     H_    0.453690 0.954652 0.204346 0.181786
H6    H     H_    0.298739 0.769240 0.176332 0.100474
H7    H     H_    0.224187 0.881396 0.297888 0.079720
C17   C     C_2   0.348575 0.336251 0.662743 -0.087448
C18   C     C_2   0.334312 0.352936 0.833425 -0.109890
C19   C     C_2   0.455246 0.279263 0.799411 -0.159135
C20   C     C_2   0.462258 0.299073 0.718634 -0.151497
H8    H     H_    0.547182 0.192303 0.827379 0.164109
H9    H     H_    0.567577 0.270917 0.703252 0.156308
H10   H     H_    0.246093 0.445710 0.807952 0.113495
H11   H     H_    0.241933 0.365098 0.675890 0.102013
C21   C     C_1   0.816866 0.342417 0.708819 -0.039701
C22   C     C_1   0.843497 0.313866 0.776503 -0.038419
C23   C     C_1   0.358735 0.763872 0.713712 -0.031530
C24   C     C_1   0.325724 0.811176 0.780516 -0.032312
O14   O     O_R   0.170650 0.915100 0.051290 -0.511771
O15   O     O_R   0.941960 0.184500 0.049060 -0.500740
C25   C     C_R   0.894338 0.307747 0.086747 0.552444
O16   O     O_R   0.922640 0.402670 0.071640 -0.501784
O17   O     O_R   0.196880 0.368740 0.083740 -0.495488
C26   C     C_R   0.319163 0.299494 0.119702 0.544250
O18   O     O_R   0.411120 0.181190 0.091480 -0.514116
O19   O     O_R   0.364220 0.944920 0.062310 -0.496233
C27   C     C_R   0.293527 0.893200 0.084875 0.552322
O20   O     O_R   0.158740 0.906940 0.874970 -0.502903
O21   O     O_R   0.930920 0.176940 0.885610 -0.495142
C28   C     C_R   0.885080 0.297189 0.858754 0.548400
O22   O     O_R   0.910730 0.394510 0.895320 -0.506334
O23   O     O_R   0.185840 0.361180 0.920280 -0.497947
C29   C     C_R   0.308257 0.295398 0.895800 0.556165
O24   O     O_R   0.399210 0.173040 0.915160 -0.508462
O25   O     O_R   0.353170 0.937370 0.898860 -0.491435
C30   C     C_R   0.280337 0.881043 0.857194 0.552058
Cr4   Cr    Cr6+3 0.053780 0.052210 0.965970 1.033961
Cr5   Cr    Cr6+3 0.060060 0.372530 0.992430 1.043522
Cr6   Cr    Cr6+3 0.372600 0.061970 0.991430 1.039577
O26   O     O_3   0.162150 0.162240 0.983280 -0.258956
N1    N     N_R   0.553465 0.863728 0.353678 0.104053
O27   O     O_R   0.672086 0.817721 0.322049 -0.339616
O28   O     O_R   0.540960 0.931980 0.425044 -0.307869

loop_
_geom_bond_atom_site_label_1
_geom_bond_atom_site_label_2
_geom_bond_distance
_ccdc_geom_bond_type
O20   Cr4   2.052286 S    
C17   H11   1.085386 S    
O11   Cr3   2.038724 S    
C22   C28   1.407577 S    
C11   H1    1.086463 S    
C18   C19   1.328221 D    
C15   C16   1.468204 S    
C3    C9    1.446873 S    
O4    Cr2   1.942953 S    
O15   C25   1.270421 A    
C9    C12   1.340829 D    
O8    Cr1   1.929406 S    
C10   C11   1.342187 D    
C13   H7    1.087265 S    
N1    O28   1.301868 A    
C15   H5    1.087082 S    
O24   Cr6   2.039928 S    
O4    C2    1.263566 A    
C1    C13   1.457881 S    
C5    O11   1.257618 A    
C13   C16   1.350008 D    
O17   C26   1.262389 A    
O21   Cr4   1.927078 S    
C14   C15   1.347099 D    
O22   Cr5   2.052867 S    
O14   C27   1.268646 A    
O25   C30   1.265509 A    
C17   C20   1.347309 D    
C8    C26   1.393715 S    
C18   H10   1.087218 S    
O19   Cr6   1.923412 S    
C9    H4    1.087122 S    
C29   O24   1.266100 A    
O19   C27   1.267018 A    
Cr3   O13   1.980957 S    
C14   C27   1.452473 S    
C19   H8    1.086915 S    
O15   Cr4   1.933032 S    
C10   C25   1.446528 S    
C23   C24   1.202703 T    
O1    Cr1   2.046168 S    
N1    O27   1.301421 A    
O10   Cr2   1.923942 S    
Cr1   O13   1.982048 S    
O1    C3    1.269370 A    
Cr5   O26   1.980855 S    
O6    C3    1.270153 A    
O5    Cr3   2.058238 S    
O12   Cr3   1.937494 S    
O21   C28   1.280415 A    
O6    Cr3   1.921717 S    
O7    Cr1   2.046204 S    
O25   Cr6   1.942826 S    
O17   Cr5   1.937295 S    
Cr4   O26   1.981153 S    
O12   C6    1.258294 A    
C20   H9    1.087258 S    
C18   C29   1.439134 S    
C16   N1    1.440039 S    
C21   C22   1.192532 T    
Cr2   O13   1.973044 S    
C19   C20   1.443864 S    
C1    O3    1.269268 A    
O20   C30   1.275596 A    
C25   O16   1.270282 A    
O9    Cr2   2.059278 S    
O2    Cr1   1.928293 S    
C14   H6    1.086130 S    
Cr6   O26   1.972669 S    
C6    C21   1.410238 S    
C4    C23   1.428592 S    
O8    C4    1.311445 A    
C2    O5    1.258503 A    
C12   H2    1.086459 S    
O2    C1    1.270866 A    
O23   Cr5   1.921654 S    
O18   Cr6   2.062603 S    
C26   O18   1.258068 A    
O7    C6    1.277772 A    
C2    C7    1.393980 S    
C5    C17   1.437464 S    
O14   Cr4   2.044688 S    
C7    C8    1.182808 T    
C28   O22   1.249627 A    
O3    Cr2   2.042067 S    
C10   H3    1.087013 S    
C4    O9    1.287006 A    
O23   C29   1.263625 A    
C11   C12   1.451943 S    
O10   C5    1.271415 A    
C24   C30   1.428889 S    
O16   Cr5   2.039922 S    
