data_mof_unit_18476.cif
_audit_creation_date              2012-12-10T18:01:20-0500
_audit_creation_method            fapswitch 2.2
_symmetry_space_group_name_H-M    P1
_symmetry_Int_Tables_number       1
_space_group_crystal_system       triclinic
_cell_length_a                    9.614716
_cell_length_b                    10.827275
_cell_length_c                    17.2984
_cell_angle_alpha                 91.91671
_cell_angle_beta                  84.515746
_cell_angle_gamma                 89.847719
_cell_volume                      1791.50672694

loop_
_atom_site_label
_atom_site_type_symbol
_atom_type_description
_atom_site_fract_x
_atom_site_fract_y
_atom_site_fract_z
_atom_type_partial_charge
C1    C     C_R   0.499932 0.737609 0.499645 0.827348
C2    C     C_R   0.500068 0.262391 0.500354 0.827349
C3    C     C_R   0.626145 0.935052 0.486470 -0.171727
C4    C     C_R   0.373854 0.064948 0.513530 -0.171727
C5    C     C_R   0.626576 0.062847 0.487987 -0.176421
C6    C     C_R   0.373424 0.937153 0.512013 -0.176422
C7    C     C_R   0.500269 0.128408 0.500851 -0.008001
C8    C     C_R   0.499731 0.871592 0.499149 -0.008001
C9    C     C_R   0.914388 0.563729 0.556680 0.533636
C10   C     C_R   0.085612 0.436271 0.443320 0.533636
C11   C     C_R   0.062679 0.560584 0.558199 -0.120286
C12   C     C_R   0.937321 0.439416 0.441800 -0.120286
C13   C     C_R   0.479990 0.497238 0.649634 0.826345
C14   C     C_R   0.520010 0.502762 0.350366 0.826345
C15   C     C_R   0.465775 0.494732 0.734260 -0.106268
C16   C     C_R   0.534225 0.505268 0.265740 -0.106268
C17   C     C_R   0.554009 0.571326 0.774143 -0.187043
C18   C     C_R   0.445991 0.428673 0.225857 -0.187043
C19   C     C_R   0.544971 0.574404 0.854580 -0.127435
C20   C     C_R   0.455029 0.425596 0.145420 -0.127435
C21   C     C_R   0.447576 0.500233 0.896546 0.149599
C22   C     C_R   0.552423 0.499767 0.103454 0.149599
C23   C     C_R   0.355421 0.426959 0.857428 -0.188768
C24   C     C_R   0.644578 0.573041 0.142572 -0.188768
C25   C     C_R   0.365022 0.420721 0.776142 -0.007972
C26   C     C_R   0.634978 0.579279 0.223858 -0.007973
C27   C     C_2   0.442212 0.494963 0.981324 -0.206456
C28   C     C_2   0.557788 0.505037 0.018676 -0.206456
Cu1   Cu    Cu3+1 0.359340 0.499980 0.500000 1.033843
Cu2   Cu    Cu3+1 0.640660 0.500020 0.500000 1.033843
H1    H     H_    0.629527 0.630038 0.742886 0.190608
H2    H     H_    0.370473 0.369963 0.257114 0.190608
H3    H     H_    0.658450 0.522186 0.986898 0.160772
H4    H     H_    0.341550 0.477813 0.013102 0.160772
H5    H     H_    0.280942 0.369453 0.890531 0.164462
H6    H     H_    0.719058 0.630547 0.109469 0.164461
H7    H     H_    0.386346 0.364502 0.116272 0.139948
H8    H     H_    0.613654 0.635498 0.883728 0.139948
H9    H     H_    0.724590 0.886260 0.474768 0.161957
H10   H     H_    0.275410 0.113740 0.525232 0.161957
H11   H     H_    0.725657 0.109768 0.478700 0.191822
H12   H     H_    0.274343 0.890232 0.521300 0.191823
N1    N     N_R   0.147930 0.499970 0.499980 -0.259787
N2    N     N_R   0.852070 0.500030 0.500020 -0.259787
O1    O     O_R   0.381260 0.680340 0.500000 -0.561245
O2    O     O_R   0.618740 0.319660 0.500000 -0.561246
O3    O     O_R   0.618830 0.680370 0.500010 -0.562658
O4    O     O_R   0.381170 0.319630 0.499990 -0.562659
O5    O     O_R   0.367440 0.500000 0.613600 -0.564675
O6    O     O_R   0.632560 0.500000 0.386400 -0.564675
O7    O     O_R   0.605010 0.500030 0.613600 -0.529960
O8    O     O_R   0.394990 0.499970 0.386400 -0.529960
C29   C     C_2   0.725517 0.669189 0.261854 0.876624
O9    O     O_2   0.682930 0.723734 0.322575 -0.621175
O10   O     O_R   0.858492 0.695117 0.226243 -0.738031
H13   H     H_    0.909980 0.758403 0.257138 0.334759
C30   C     C_2   0.274483 0.330811 0.738146 0.876624
O11   O     O_2   0.317070 0.276266 0.677425 -0.621176
O12   O     O_R   0.141508 0.304882 0.773757 -0.738032
H14   H     H_    0.090021 0.241597 0.742862 0.334759
O13   O     O_3   0.830893 0.627789 0.614264 -0.547718
C31   C     C_3   0.847263 0.756617 0.606178 -0.295941
H15   H     H_    0.886285 0.783882 0.546390 0.132331
H16   H     H_    0.918323 0.793408 0.648172 0.179681
H17   H     H_    0.744174 0.801953 0.621198 0.181005
O14   O     O_3   0.169107 0.372211 0.385736 -0.547717
C32   C     C_3   0.152737 0.243384 0.393822 -0.295942
H18   H     H_    0.081676 0.206592 0.351828 0.179681
H19   H     H_    0.113715 0.216118 0.453609 0.132332
H20   H     H_    0.255826 0.198047 0.378801 0.181005
C33   C     C_2   0.119859 0.616374 0.627180 0.941424
O15   O     O_2   0.090824 0.571416 0.690572 -0.573283
O16   O     O_R   0.199163 0.723884 0.621377 -0.788389
H21   H     H_    0.230572 0.753467 0.673118 0.317077
C34   C     C_2   0.880141 0.383626 0.372820 0.941424
O17   O     O_2   0.909176 0.428584 0.309428 -0.573283
O18   O     O_R   0.800837 0.276116 0.378623 -0.788389
H22   H     H_    0.769427 0.246533 0.326881 0.317077

loop_
_geom_bond_atom_site_label_1
_geom_bond_atom_site_label_2
_ccdc_geom_bond_type
O10   H13   S    
C1    C8    S    
O16   H21   S    
C2    C7    S    
Cu2   O7    S    
Cu1   O5    S    
O18   H22   S    
C2    O2    A    
C24   H6    S    
C9    O13   S    
C19   C21   A    
C24   C26   A    
C11   C33   S    
C30   O12   S    
C31   H16   S    
C13   O7    A    
C14   O8    A    
C4    H10   S    
C11   N1    A    
Cu1   Cu2   S    
C18   C20   A    
C10   O14   S    
O14   C32   S    
C21   C27   S    
C3    H9    S    
O12   H14   S    
C22   C28   S    
Cu1   N1    S    
Cu2   N2    S    
C25   C30   S    
C4    C7    A    
C29   O10   S    
C27   H4    S    
C16   C26   A    
Cu1   O4    S    
C32   H18   S    
Cu2   O3    S    
C4    C6    A    
C3    C8    A    
C5    C7    A    
C1    O3    A    
C6    C8    A    
C2    O4    A    
C29   O9    D    
Cu1   O1    S    
C32   H19   S    
C34   O17   D    
C31   H15   S    
C19   H8    S    
C34   O18   S    
C9    C11   A    
C10   C12   A    
C13   O5    A    
C20   C22   A    
C28   H3    S    
C23   H5    S    
C13   C15   S    
C17   H1    S    
C22   C24   A    
C18   H2    S    
C26   C29   S    
C33   O16   S    
C15   C17   A    
C5    H11   S    
C9    N2    A    
C31   H17   S    
C10   N1    A    
Cu2   O2    S    
C3    C5    A    
C32   H20   S    
C21   C23   A    
C33   O15   D    
C12   N2    A    
C20   H7    S    
C1    O1    A    
C30   O11   D    
C14   O6    A    
C17   C19   A    
C14   C16   S    
C23   C25   A    
Cu2   O6    S    
O13   C31   S    
C15   C25   A    
C16   C18   A    
C6    H12   S    
C12   C34   S    
C27   C28   D    
Cu1   O8    S    
