data_mof_unit_10052.cif
_audit_creation_date              2012-12-10T18:58:46-0500
_audit_creation_method            fapswitch 2.2
_symmetry_space_group_name_H-M    P1
_symmetry_Int_Tables_number       1
_space_group_crystal_system       triclinic
_cell_length_a                    13.003251
_cell_length_b                    10.796845
_cell_length_c                    9.557923
_cell_angle_alpha                 90.015197
_cell_angle_beta                  96.838604
_cell_angle_gamma                 90.204771
_cell_volume                      1332.32026025

loop_
_atom_site_label
_atom_site_type_symbol
_atom_type_description
_atom_site_fract_x
_atom_site_fract_y
_atom_site_fract_z
_atom_type_partial_charge
C1    C     C_R   0.500906 0.262518 0.500233 0.802497
C2    C     C_R   0.030070 0.522263 0.565242 0.136305
C3    C     C_R   0.971846 0.491378 0.436454 0.173306
C4    C     C_R   0.864729 0.485383 0.428652 -0.293778
C5    C     C_R   0.872900 0.543858 0.678391 0.081033
C6    C     C_R   0.981242 0.547919 0.684019 -0.214107
C7    C     C_R   0.463523 0.064061 0.607603 0.120543
C8    C     C_R   0.506540 0.129355 0.502862 -0.088914
C9    C     C_R   0.558517 0.064859 0.405029 -0.215894
C10   C     C_R   0.558445 0.935626 0.405377 -0.223863
C11   C     C_R   0.505255 0.870965 0.502251 -0.086849
C12   C     C_R   0.300537 0.500059 0.472931 0.801057
C13   C     C_R   0.462094 0.936326 0.606654 0.115703
C14   C     C_3   0.353252 0.931659 0.642682 -0.484306
C15   C     C_3   0.355764 0.071965 0.645999 -0.467686
C16   C     C_R   0.475720 0.604565 0.069818 0.264563
C17   C     C_R   0.519893 0.394767 0.077299 -0.088126
C18   C     C_R   0.519828 0.394728 0.928993 -0.093246
C19   C     C_R   0.476021 0.604662 0.922323 0.259077
C20   C     C_3   0.534161 0.724237 0.927211 -0.503313
C21   C     C_3   0.532905 0.724577 0.085073 -0.513849
C22   C     C_R   0.500238 0.737585 0.500092 0.794859
C23   C     C_R   0.699947 0.503621 0.527913 0.794249
C24   C     C_R   0.813998 0.510724 0.547320 -0.101811
C25   C     C_R   0.187676 0.500023 0.456876 -0.050435
C26   C     C_R   0.021967 0.466311 0.317590 -0.213094
C27   C     C_R   0.129717 0.471091 0.327607 -0.200501
C28   C     C_R   0.137355 0.526598 0.574604 -0.259441
Cu1   Cu    Cu3+1 0.499990 0.499980 0.640670 0.930338
Cu2   Cu    Cu3+1 0.500010 0.500020 0.359330 0.935229
H1    H     H_    0.820772 0.460016 0.329123 0.162874
H2    H     H_    0.346975 0.890196 0.747550 0.189873
H3    H     H_    0.300910 0.115334 0.562099 0.195567
H4    H     H_    0.353924 0.110990 0.753320 0.197008
H5    H     H_    0.537785 0.309852 0.134580 0.142782
H6    H     H_    0.537584 0.309752 0.877458 0.146944
H7    H     H_    0.612824 0.714105 0.894603 0.211258
H8    H     H_    0.487978 0.800513 0.874445 0.198212
H9    H     H_    0.611140 0.715366 0.145142 0.213540
H10   H     H_    0.484463 0.799963 0.121405 0.200093
H11   H     H_    0.978041 0.442128 0.217782 0.139190
H12   H     H_    0.029469 0.571147 0.780501 0.127201
H13   H     H_    0.167547 0.450147 0.235443 0.154081
H14   H     H_    0.181739 0.550427 0.674411 0.150653
H15   H     H_    0.597006 0.114005 0.327119 0.148634
H16   H     H_    0.597937 0.886674 0.328765 0.152959
H17   H     H_    0.297882 0.893297 0.555606 0.197296
N1    N     N_R   0.500660 0.500930 0.148010 -0.185146
N2    N     N_R   0.500660 0.500890 0.852110 -0.185858
O1    O     O_R   0.500000 0.319640 0.618810 -0.586313
O2    O     O_R   0.500010 0.319680 0.381230 -0.591151
O3    O     O_R   0.348990 0.499960 0.599490 -0.581183
O4    O     O_R   0.349000 0.500000 0.361910 -0.581151
O5    O     O_R   0.499990 0.680320 0.618770 -0.582715
O6    O     O_R   0.500000 0.680360 0.381190 -0.583217
O7    O     O_R   0.651000 0.500000 0.638090 -0.595459
O8    O     O_R   0.651010 0.500040 0.400510 -0.577971
C29   C     C_3   0.820822 0.576132 0.809163 -0.361047
C30   C     C_3   0.892451 0.618702 0.940443 -0.393745
C31   C     C_3   0.830553 0.652582 0.060993 -0.859328
H18   H     H_    0.781944 0.735135 0.032399 0.250355
H19   H     H_    0.780294 0.574026 0.085606 0.256089
H20   H     H_    0.884499 0.675010 0.156677 0.252926
H21   H     H_    0.946534 0.542734 0.977032 0.215904
H22   H     H_    0.937666 0.701502 0.914725 0.226090
H23   H     H_    0.764625 0.651887 0.780324 0.205047
H24   H     H_    0.778735 0.492756 0.840484 0.220162

loop_
_geom_bond_atom_site_label_1
_geom_bond_atom_site_label_2
_ccdc_geom_bond_type
C10   H16   S    
C28   H14   S    
C23   C24   S    
C15   H4    S    
C9    H15   S    
C16   C21   S    
Cu1   O7    S    
C25   C27   A    
C1    C8    S    
C20   H8    S    
C9    C10   A    
C19   N2    A    
C11   C22   S    
C12   O4    A    
C21   H9    S    
C17   N1    A    
C7    C13   A    
C12   C25   S    
Cu2   O2    S    
Cu1   O5    S    
C16   N1    A    
C19   C20   S    
C7    C15   S    
C17   C18   A    
C30   H21   S    
C22   O6    A    
C30   C31   S    
C22   O5    A    
Cu1   N2    S    
C13   C14   S    
C30   H22   S    
C25   C28   A    
C20   H7    S    
C11   C13   A    
C26   C27   A    
Cu1   Cu2   S    
C5    C24   A    
C5    C29   S    
C31   H20   S    
Cu2   N1    S    
C12   O3    A    
C15   H3    S    
C2    C3    A    
Cu1   O1    S    
C16   C19   A    
C6    H12   S    
C5    C6    A    
C4    C24   A    
Cu2   O4    S    
C4    H1    S    
C7    C8    A    
C10   C11   A    
C3    C4    A    
Cu2   O8    S    
C27   H13   S    
C29   H24   S    
C23   O7    A    
C20   C21   S    
C26   H11   S    
C31   H19   S    
C1    O1    A    
C23   O8    A    
C14   C15   S    
C8    C9    A    
C2    C28   A    
C1    O2    A    
C17   H5    S    
C29   C30   S    
C14   H17   S    
C18   H6    S    
Cu2   O6    S    
C29   H23   S    
C3    C26   A    
C2    C6    A    
C18   N2    A    
C14   H2    S    
C31   H18   S    
Cu1   O3    S    
C21   H10   S    
