data_mof_unit_13273.cif
_audit_creation_date              2012-12-10T20:44:45-0500
_audit_creation_method            fapswitch 2.2
_symmetry_space_group_name_H-M    P1
_symmetry_Int_Tables_number       1
_space_group_crystal_system       triclinic
_cell_length_a                    9.870035
_cell_length_b                    10.700801
_cell_length_c                    16.74048
_cell_angle_alpha                 88.751263
_cell_angle_beta                  92.516294
_cell_angle_gamma                 89.314785
_cell_volume                      1765.81198411

loop_
_atom_site_label
_atom_site_type_symbol
_atom_type_description
_atom_site_fract_x
_atom_site_fract_y
_atom_site_fract_z
_atom_type_partial_charge
C1    C     C_R   0.500132 0.259861 0.497202 0.883823
C2    C     C_R   0.648200 0.577772 0.771776 -0.265645
C3    C     C_R   0.600342 0.596672 0.143727 -0.164539
C4    C     C_R   0.602300 0.556665 0.222926 -0.229575
C5    C     C_R   0.475547 0.618488 0.101436 0.323487
C6    C     C_R   0.480299 0.539205 0.261436 -0.030376
C7    C     C_R   0.356258 0.566195 0.220337 -0.217992
C8    C     C_R   0.354389 0.606119 0.140787 -0.196555
C9    C     C_R   0.619619 0.062423 0.478208 0.141150
C10   C     C_R   0.498464 0.128804 0.483294 -0.108152
C11   C     C_R   0.374464 0.066938 0.472128 -0.223753
C12   C     C_R   0.516090 0.502216 0.653964 0.876632
C13   C     C_R   0.373760 0.937556 0.471745 -0.225737
C14   C     C_R   0.497062 0.871614 0.482340 -0.102157
C15   C     C_R   0.619004 0.934695 0.477399 0.133014
C16   C     C_3   0.745148 0.922887 0.529781 -0.475249
C17   C     C_3   0.744549 0.063911 0.531523 -0.504320
C18   C     C_R   0.073933 0.393520 0.519611 0.214650
C19   C     C_R   0.068585 0.600356 0.471593 -0.135836
C20   C     C_R   0.924640 0.599841 0.470877 -0.144158
C21   C     C_R   0.931489 0.394944 0.522044 0.224613
C22   C     C_3   0.936356 0.332306 0.602487 -0.512863
C23   C     C_R   0.499009 0.740069 0.496689 0.879739
C24   C     C_3   0.088493 0.323681 0.597078 -0.527717
C25   C     C_R   0.484584 0.507138 0.346510 0.862321
C26   C     C_R   0.526755 0.526236 0.740337 -0.056379
C27   C     C_R   0.418904 0.505291 0.791631 0.165236
C28   C     C_R   0.433702 0.538670 0.871197 -0.152795
C29   C     C_R   0.553968 0.592513 0.901445 0.281286
C30   C     C_R   0.661759 0.609621 0.851751 -0.202899
H1    H     H_    0.699676 0.539302 0.253810 0.164789
H2    H     H_    0.277335 0.890184 0.469329 0.162876
H3    H     H_    0.727932 0.877934 0.588961 0.208889
H4    H     H_    0.831922 0.884275 0.497769 0.194031
H5    H     H_    0.723828 0.099884 0.591646 0.200708
H6    H     H_    0.831380 0.105774 0.500901 0.204405
H7    H     H_    0.119966 0.682217 0.449910 0.141975
H8    H     H_    0.867823 0.680625 0.447782 0.145907
H9    H     H_    0.903561 0.395485 0.650097 0.217129
H10   H     H_    0.889237 0.239772 0.603592 0.201704
H11   H     H_    0.142137 0.377791 0.642753 0.229324
H12   H     H_    0.696086 0.605905 0.115087 0.147799
H13   H     H_    0.127431 0.226796 0.590006 0.201421
H14   H     H_    0.756474 0.647298 0.875109 0.148089
H15   H     H_    0.733076 0.594994 0.734333 0.173619
H16   H     H_    0.260959 0.556185 0.249396 0.161769
H17   H     H_    0.351847 0.519316 0.910551 0.149927
H18   H     H_    0.257944 0.621628 0.108456 0.138020
H19   H     H_    0.278277 0.117021 0.469731 0.168479
N1    N     N_2   0.574086 0.612478 0.984073 -0.199602
N2    N     N_2   0.465455 0.630810 0.017423 -0.206439
N3    N     N_R   0.142860 0.499130 0.500540 -0.104428
N4    N     N_R   0.857210 0.499170 0.500530 -0.106202
O1    O     O_R   0.614690 0.316790 0.499990 -0.611348
O2    O     O_R   0.385350 0.316760 0.500000 -0.621001
O3    O     O_R   0.627460 0.498860 0.616130 -0.621242
O4    O     O_R   0.398120 0.498820 0.616130 -0.603763
O5    O     O_R   0.614650 0.683240 0.500000 -0.623559
O6    O     O_R   0.385310 0.683210 0.500010 -0.627202
O7    O     O_R   0.601880 0.501180 0.383870 -0.620954
O8    O     O_R   0.372540 0.501140 0.383870 -0.619792
Zn1   Zn    Zn3+2 0.653130 0.500020 0.499990 0.942091
Zn2   Zn    Zn3+2 0.346870 0.499980 0.500010 0.942369
C31   C     C_3   0.288840 0.445842 0.764790 -0.920774
H20   H     H_    0.230797 0.513323 0.724952 0.256393
H21   H     H_    0.311974 0.357160 0.734691 0.243248
H22   H     H_    0.223958 0.422264 0.815427 0.232090

loop_
_geom_bond_atom_site_label_1
_geom_bond_atom_site_label_2
_ccdc_geom_bond_type
C14   C23   S    
O5    Zn1   S    
C23   O5    A    
C23   O6    A    
C1    O1    A    
C8    H18   S    
C3    H12   S    
C29   C30   A    
C11   H19   S    
C17   H6    S    
C16   H3    S    
C5    C8    A    
C18   C21   A    
C19   H7    S    
C9    C10   A    
C13   H2    S    
O6    Zn2   S    
C19   C20   A    
C2    C30   A    
C22   H10   S    
C31   H20   S    
N1    N2    D    
C9    C15   A    
C18   N3    A    
C7    C8    A    
C2    C26   A    
C25   O8    A    
C21   C22   S    
C21   N4    A    
C24   H11   S    
C11   C13   A    
C30   H14   S    
C26   C27   A    
C12   O3    A    
O2    Zn2   S    
C18   C24   S    
C12   O4    A    
C28   H17   S    
C4    C6    A    
C28   C29   A    
C25   O7    A    
O4    Zn2   S    
C6    C7    A    
O3    Zn1   S    
C29   N1    S    
C2    H15   S    
C1    O2    A    
C22   C24   S    
C6    C25   S    
C16   C17   S    
C10   C11   A    
C22   H9    S    
C3    C4    A    
C4    H1    S    
C31   H22   S    
C17   H5    S    
C20   H8    S    
N4    Zn1   S    
O7    Zn1   S    
C27   C31   S    
C9    C17   S    
C27   C28   A    
O8    Zn2   S    
C24   H13   S    
C14   C15   A    
C5    N2    S    
C7    H16   S    
O1    Zn1   S    
C16   H4    S    
C13   C14   A    
C19   N3    A    
C1    C10   S    
C15   C16   S    
C12   C26   S    
C20   N4    A    
C3    C5    A    
N3    Zn2   S    
C31   H21   S    
