data_mof_unit_63577.cif
_audit_creation_date              2012-12-10T19:49:44-0500
_audit_creation_method            fapswitch 2.2
_symmetry_space_group_name_H-M    P1
_symmetry_Int_Tables_number       1
_space_group_crystal_system       triclinic
_cell_length_a                    10.829249
_cell_length_b                    16.031678
_cell_length_c                    17.258791
_cell_angle_alpha                 96.260853
_cell_angle_beta                  90.177362
_cell_angle_gamma                 92.459343
_cell_volume                      2975.61102179

loop_
_atom_site_label
_atom_site_type_symbol
_atom_type_description
_atom_site_fract_x
_atom_site_fract_y
_atom_site_fract_z
_atom_type_partial_charge
C1    C     C_R   0.495732 0.489551 0.349454 0.890153
C2    C     C_R   0.504259 0.510450 0.650547 0.890022
C3    C     C_R   0.871437 0.498547 0.497668 -0.054004
C4    C     C_R   0.128561 0.501453 0.502323 -0.054047
C5    C     C_R   0.934127 0.427847 0.464748 0.125895
C6    C     C_R   0.065870 0.572157 0.535238 0.125928
C7    C     C_R   0.482330 0.486222 0.264520 -0.199744
C8    C     C_R   0.517618 0.513784 0.735486 -0.199802
C9    C     C_R   0.471548 0.561834 0.231193 -0.236302
C10   C     C_R   0.528493 0.438170 0.768823 -0.236279
C11   C     C_R   0.456896 0.561624 0.151252 0.328199
C12   C     C_R   0.543111 0.438396 0.848768 0.328166
C13   C     C_R   0.455134 0.484978 0.103257 -0.072638
C14   C     C_R   0.544733 0.515048 0.896753 -0.072504
C15   C     C_R   0.461410 0.409218 0.136040 -0.170074
C16   C     C_R   0.538347 0.590815 0.863967 -0.170114
C17   C     C_R   0.474650 0.409442 0.216350 0.617411
C18   C     C_R   0.525151 0.590581 0.783654 0.617465
C19   C     C_2   0.452621 0.482788 0.018596 0.529281
C20   C     C_2   0.547233 0.517243 0.981412 0.529342
C21   C     C_R   0.446742 0.745442 0.456741 0.025816
C22   C     C_R   0.553385 0.254568 0.543203 0.025751
C23   C     C_R   0.262513 0.500548 0.501415 0.830917
C24   C     C_R   0.737486 0.499452 0.498583 0.830989
C25   C     C_R   0.455263 0.831245 0.450269 0.162319
C26   C     C_R   0.544890 0.168770 0.549698 0.162357
C27   C     C_R   0.534655 0.883519 0.501131 -0.058738
C28   C     C_R   0.465392 0.116486 0.498911 -0.058821
C29   C     C_R   0.606073 0.846660 0.555830 0.223532
C30   C     C_R   0.393845 0.153336 0.444265 0.223654
C31   C     C_R   0.594572 0.759895 0.559292 0.061555
C32   C     C_R   0.405317 0.240099 0.440785 0.061633
C33   C     C_2   0.548165 0.974772 0.494515 0.573087
C34   C     C_2   0.451902 0.025234 0.505551 0.573037
C35   C     C_R   0.249208 0.716493 0.685875 -0.164006
C36   C     C_R   0.750669 0.283622 0.314099 -0.164038
C37   C     C_R   0.185953 0.645420 0.648501 0.568928
C38   C     C_R   0.813951 0.354667 0.351494 0.568908
C39   C     C_R   0.130434 0.648392 0.575119 -0.101541
C40   C     C_R   0.869559 0.351633 0.424838 -0.101518
C41   C     C_R   0.138482 0.723845 0.539954 0.185416
C42   C     C_R   0.861582 0.276143 0.459938 0.185362
C43   C     C_R   0.202191 0.794530 0.577914 -0.187885
C44   C     C_R   0.797849 0.205484 0.421957 -0.187856
C45   C     C_R   0.258010 0.790835 0.650473 0.224973
C46   C     C_R   0.741932 0.209244 0.349440 0.224923
C47   C     C_R   0.937773 0.569776 0.532383 -0.155877
C48   C     C_R   0.062225 0.430225 0.467606 -0.155877
Cu1   Cu    Cu3+1 0.493640 0.415410 0.495980 1.009781
Cu2   Cu    Cu3+1 0.506360 0.584590 0.504020 1.009781
H1    H     H_    0.458702 0.349965 0.099106 0.225002
H2    H     H_    0.540947 0.650082 0.900899 0.224958
H3    H     H_    0.387248 0.704737 0.417251 0.180042
H4    H     H_    0.612957 0.295281 0.582638 0.180053
H5    H     H_    0.349658 0.269384 0.400086 0.177652
H6    H     H_    0.650126 0.730603 0.600036 0.177728
H7    H     H_    0.291386 0.713771 0.742398 0.236694
H8    H     H_    0.708414 0.286394 0.257610 0.236652
H9    H     H_    0.209255 0.852149 0.550606 0.263932
H10   H     H_    0.790836 0.147837 0.449216 0.263923
H11   H     H_    0.889696 0.623553 0.558866 0.170927
H12   H     H_    0.110303 0.376451 0.441120 0.170945
H13   H     H_    0.473280 0.621649 0.267168 0.214267
H14   H     H_    0.526881 0.378350 0.732854 0.214259
N1    N     N_R   0.515930 0.711660 0.510070 -0.234012
N2    N     N_R   0.484070 0.288340 0.489930 -0.234002
O1    O     O_R   0.494030 0.420280 0.382610 -0.534006
O2    O     O_R   0.505970 0.579720 0.617390 -0.534063
O3    O     O_R   0.504770 0.563150 0.389400 -0.596474
O4    O     O_R   0.495230 0.436850 0.610600 -0.596419
O5    O     O_R   0.314270 0.428570 0.496610 -0.578383
O6    O     O_R   0.685730 0.571430 0.503390 -0.578355
O7    O     O_R   0.325020 0.571440 0.503400 -0.600329
O8    O     O_R   0.674980 0.428560 0.496600 -0.600408
Br1   Br    Br    0.346863 0.887253 0.700926 -0.267336
Br2   Br    Br    0.653013 0.112872 0.298961 -0.267352
Br3   Br    Br    0.564738 0.332856 0.889187 -0.289235
Br4   Br    Br    0.435428 0.667206 0.110860 -0.289190
F1    F     F_    0.338699 0.992762 0.523420 -0.617806
F2    F     F_    0.661372 0.007230 0.476628 -0.617752
Br5   Br    Br    0.720891 0.910797 0.625779 -0.232408
Br6   Br    Br    0.278898 0.089188 0.374394 -0.232334
Br7   Br    Br    0.634076 0.129105 0.633551 -0.258144
Br8   Br    Br    0.366258 0.870945 0.366360 -0.258200
F3    F     F_    0.179222 0.573600 0.683590 -0.629840
F4    F     F_    0.820611 0.426522 0.316464 -0.629917
Br9   Br    Br    0.068188 0.732047 0.439052 -0.344939
Br10  Br    Br    0.931991 0.267852 0.560787 -0.344920
F5    F     F_    0.519665 0.665204 0.753705 -0.638944
F6    F     F_    0.480046 0.334834 0.246297 -0.638942
F7    F     F_    0.644421 0.557949 0.021721 -0.603105
F8    F     F_    0.355450 0.442064 0.978277 -0.603136

loop_
_geom_bond_atom_site_label_1
_geom_bond_atom_site_label_2
_ccdc_geom_bond_type
C38   C40   A    
C22   H4    S    
C26   Br7   S    
C27   C29   A    
C19   C20   D    
C46   Br2   S    
C39   C41   A    
C27   C33   S    
C38   F4    S    
C37   F3    S    
C35   C37   A    
Cu2   O3    S    
C36   H8    S    
C31   N1    A    
Cu2   O6    S    
C22   N2    A    
C19   F8    S    
C2    O2    A    
C7    C17   A    
C25   Br8   S    
C36   C46   A    
C15   H1    S    
C31   H6    S    
C32   H5    S    
C43   H9    S    
C40   C42   A    
C28   C34   S    
Cu1   O8    S    
C9    H13   S    
C41   C43   A    
C3    C24   S    
C42   C44   A    
C23   O7    A    
C20   F7    S    
C44   C46   A    
C41   Br9   S    
C5    C48   A    
C2    C8    S    
C6    C47   A    
C13   C19   S    
C23   O5    A    
C4    C6    A    
Cu1   N2    S    
Cu2   O7    S    
C4    C23   S    
C8    C18   A    
C30   Br6   S    
C29   Br5   S    
C11   Br4   S    
C14   C20   S    
C34   F1    S    
C21   H3    S    
C43   C45   A    
C48   H12   S    
C12   Br3   S    
C33   C34   D    
C9    C11   A    
C10   C12   A    
C16   C18   A    
C12   C14   A    
Cu1   O4    S    
C13   C15   A    
Cu1   O5    S    
C14   C16   A    
C42   Br10  S    
C36   C38   A    
C35   C45   A    
C24   O6    A    
C32   N2    A    
C4    C48   A    
C15   C17   A    
C21   C25   A    
Cu1   O1    S    
C21   N1    A    
C1    C7    S    
C18   F5    S    
C10   H14   S    
C17   F6    S    
C16   H2    S    
C3    C5    A    
C47   H11   S    
C33   F2    S    
C25   C27   A    
C26   C28   A    
C35   H7    S    
C45   Br1   S    
C28   C30   A    
C29   C31   A    
C30   C32   A    
C11   C13   A    
C24   O8    A    
C44   H10   S    
C3    C47   A    
C1    O1    A    
Cu2   N1    S    
C1    O3    A    
C7    C9    A    
C37   C39   A    
C8    C10   A    
Cu1   Cu2   S    
C22   C26   A    
C5    C40   S    
C6    C39   S    
C2    O4    A    
Cu2   O2    S    
