data_mof_unit_63853.cif
_audit_creation_date              2012-12-10T19:50:20-0500
_audit_creation_method            fapswitch 2.2
_symmetry_space_group_name_H-M    P1
_symmetry_Int_Tables_number       1
_space_group_crystal_system       triclinic
_cell_length_a                    36.702085
_cell_length_b                    18.273109
_cell_length_c                    18.271088
_cell_angle_alpha                 89.918957
_cell_angle_beta                  119.6459
_cell_angle_gamma                 89.953949
_cell_volume                      10649.6597408

loop_
_atom_site_label
_atom_site_type_symbol
_atom_type_description
_atom_site_fract_x
_atom_site_fract_y
_atom_site_fract_z
_atom_type_partial_charge
C1    C     C_R   0.499943 0.000042 0.358725 0.933979
C2    C     C_1   0.336877 0.998761 0.334912 -0.119637
C3    C     C_3   0.760400 0.754128 0.952963 -0.956179
C4    C     C_3   0.193161 0.571948 0.878447 0.114862
C5    C     C_3   0.145884 0.557674 0.824972 -0.341068
C6    C     C_3   0.123861 0.568099 0.876484 -0.945573
C7    C     C_3   0.819426 0.484081 0.146557 0.128594
C8    C     C_3   0.814604 0.511221 0.062991 -0.329182
C9    C     C_3   0.856727 0.512550 0.065170 -0.941658
C10   C     C_3   0.793215 0.660062 0.238525 0.005049
C11   C     C_3   0.799009 0.732166 0.203121 -0.302471
C12   C     C_3   0.802937 0.796580 0.259625 -0.978440
C13   C     C_1   0.163163 0.499469 0.666272 -0.031519
C14   C     C_3   0.225681 0.409153 0.910666 0.027302
C15   C     C_3   0.240231 0.331203 0.907619 -0.333318
C16   C     C_3   0.264247 0.297702 0.995533 -0.966564
C17   C     C_1   0.836909 0.501099 0.332863 -0.119810
C18   C     C_1   0.625690 0.999428 0.627270 -0.199507
C19   C     C_1   0.374365 0.999918 0.373505 -0.199546
C20   C     C_1   0.125670 0.499676 0.626850 -0.201313
C21   C     C_1   0.874382 0.500457 0.372582 -0.198721
C22   C     C_1   0.499837 0.000114 0.282211 -0.194350
C23   C     C_1   0.500112 0.999882 0.717737 -0.199595
C24   C     C_1   0.999788 0.500123 0.282160 -0.196993
C25   C     C_R   0.500062 0.999957 0.641281 0.936403
C26   C     C_1   0.000168 0.499879 0.717793 -0.200341
C27   C     C_1   0.499813 0.000093 0.217445 -0.191242
C28   C     C_1   0.500135 0.999903 0.782503 -0.201510
C29   C     C_1   0.999780 0.500106 0.217411 -0.192680
C30   C     C_1   0.000184 0.499904 0.782551 -0.197587
C31   C     C_R   0.000020 0.141043 0.999977 0.933662
C32   C     C_R   0.999978 0.858956 0.000021 0.934047
C33   C     C_R   0.500022 0.641043 0.999978 0.933648
C34   C     C_R   0.499978 0.358957 0.000021 0.933820
C35   C     C_R   0.918771 0.999964 0.918909 0.908142
C36   C     C_R   0.999905 0.500045 0.358686 0.931482
C37   C     C_R   0.081212 0.000026 0.081093 0.908244
C38   C     C_R   0.418766 0.500100 0.918901 0.908120
C39   C     C_R   0.581220 0.500052 0.081067 0.907721
C40   C     C_R   0.500031 0.858705 0.999997 0.934771
C41   C     C_R   0.499970 0.141295 0.999993 0.934957
C42   C     C_R   0.000030 0.358705 0.000002 0.934873
C43   C     C_R   0.999969 0.641295 0.999995 0.935121
C44   C     C_R   0.499933 0.000028 0.141154 0.935218
C45   C     C_R   0.500059 0.999974 0.858837 0.938472
C46   C     C_R   0.999927 0.500037 0.141147 0.936227
C47   C     C_R   0.000089 0.499957 0.641308 0.936507
C48   C     C_R   0.000067 0.499985 0.858845 0.938308
C49   C     C_1   0.000067 0.217493 0.999950 -0.194049
C50   C     C_1   0.999931 0.782507 0.000047 -0.193646
C51   C     C_1   0.500069 0.717492 0.999951 -0.193686
C52   C     C_1   0.499931 0.282507 0.000047 -0.193822
C53   C     C_R   0.581222 0.999896 0.581268 0.902690
C54   C     C_R   0.418799 0.000043 0.418798 0.911771
C55   C     C_R   0.081214 0.499923 0.581091 0.903856
C56   C     C_R   0.918801 0.500090 0.418790 0.908780
C57   C     C_1   0.500083 0.782255 0.999984 -0.190775
C58   C     C_1   0.836758 0.999048 0.838597 -0.076542
C59   C     C_1   0.499918 0.217744 0.000009 -0.190787
C60   C     C_1   0.000082 0.282256 0.999986 -0.191038
C61   C     C_1   0.999917 0.717744 0.000010 -0.190517
C62   C     C_3   0.725600 0.072444 0.703010 -0.444770
C63   C     C_3   0.274454 0.972643 0.347576 -0.406691
C64   C     C_3   0.274064 0.076356 0.260438 -0.483428
C65   C     C_3   0.725808 0.937146 0.679665 -0.477337
C66   C     C_3   0.225528 0.567440 0.689067 -0.445525
C67   C     C_3   0.774636 0.421943 0.274388 -0.405442
C68   C     C_3   0.774165 0.541016 0.337628 -0.484607
C69   C     C_1   0.163181 0.999243 0.161833 -0.079597
C70   C     C_3   0.225875 0.430084 0.692124 -0.475987
C71   C     C_3   0.774188 0.940030 0.724001 -0.417863
C72   C     C_3   0.225689 0.076740 0.210850 -0.422903
C73   C     C_3   0.225889 0.968819 0.297392 -0.382514
C74   C     C_3   0.773897 0.074348 0.754761 -0.399197
C75   C     C_3   0.274253 0.432200 0.736323 -0.418487
C76   C     C_3   0.725813 0.542659 0.289395 -0.420282
C77   C     C_3   0.726057 0.422125 0.222379 -0.386354
C78   C     C_3   0.273841 0.570017 0.740218 -0.398739
C79   C     C_1   0.874278 0.999521 0.875014 -0.185813
C80   C     C_1   0.336736 0.500288 0.838497 -0.076289
C81   C     C_1   0.125676 0.999698 0.125098 -0.182814
C82   C     C_1   0.374263 0.500256 0.874972 -0.185471
C83   C     C_1   0.625697 0.500598 0.124826 -0.182942
C84   C     C_3   0.708995 0.997665 0.714890 0.270434
C85   C     C_3   0.291209 0.996852 0.287896 0.192844
C86   C     C_3   0.208952 0.499367 0.714659 0.270162
C87   C     C_3   0.791248 0.501803 0.284746 0.191395
C88   C     C_3   0.791018 0.998466 0.794414 0.270189
C89   C     C_3   0.208880 0.998466 0.206402 0.241275
C90   C     C_3   0.290983 0.500013 0.794262 0.269575
C91   C     C_1   0.663205 0.501165 0.160967 -0.079240
C92   C     C_3   0.708913 0.501806 0.204850 0.241250
C93   C     C_3   0.774850 0.979536 0.856096 -0.504136
C94   C     C_3   0.224944 0.949556 0.158932 -0.417307
C95   C     C_3   0.274739 0.496598 0.858001 -0.503940
C96   C     C_3   0.724750 0.542074 0.151083 -0.418237
C97   C     C_3   0.725308 0.983176 0.811242 0.926119
C98   C     C_3   0.273613 0.939721 0.211650 0.908356
C99   C     C_3   0.225149 0.500481 0.812215 0.925783
C100  C     C_3   0.773492 0.535007 0.192061 0.909645
C101  C     C_3   0.694498 0.035231 0.891176 0.116026
C102  C     C_1   0.663189 0.998582 0.666711 -0.030298
C103  C     C_3   0.647172 0.021808 0.837062 -0.346221
C104  C     C_3   0.626352 0.017239 0.891405 -0.940443
C105  C     C_3   0.318877 0.835087 0.269925 0.133409
C106  C     C_3   0.313267 0.772627 0.209626 -0.318619
C107  C     C_3   0.354905 0.734844 0.234550 -0.971806
C108  C     C_3   0.294190 0.011324 0.126455 -0.001320
C109  C     C_3   0.301462 0.000342 0.051790 -0.295862
C110  C     C_3   0.304065 0.073393 0.014071 -0.973876
C111  C     C_3   0.725453 0.875212 0.890797 0.026336
C112  C     C_3   0.739068 0.801033 0.873398 -0.335230
H1    H     H_    0.786702 0.090538 0.713151 0.176854
H2    H     H_    0.284442 0.012077 0.400499 0.176014
H3    H     H_    0.284606 0.110936 0.317561 0.200014
H4    H     H_    0.712737 0.944653 0.610657 0.184109
H5    H     H_    0.215301 0.564977 0.620687 0.177781
H6    H     H_    0.784893 0.396647 0.337120 0.176553
H7    H     H_    0.784744 0.510548 0.397685 0.199689
H8    H     H_    0.212948 0.426833 0.622772 0.184513
H9    H     H_    0.715669 0.882224 0.689026 0.205987
H10   H     H_    0.286795 0.104821 0.224585 0.162019
H11   H     H_    0.287592 0.918698 0.377263 0.197520
H12   H     H_    0.212850 0.001354 0.330619 0.173991
H13   H     H_    0.712369 0.118546 0.722251 0.211241
H14   H     H_    0.215660 0.379820 0.711376 0.205698
H15   H     H_    0.786956 0.596545 0.358591 0.161147
H16   H     H_    0.787643 0.386594 0.243275 0.197439
H17   H     H_    0.212319 0.618833 0.699092 0.211060
H18   H     H_    0.787309 0.885229 0.750845 0.174000
H19   H     H_    0.214544 0.098565 0.146289 0.172056
H20   H     H_    0.215683 0.911117 0.295046 0.189108
H21   H     H_    0.783997 0.116382 0.805130 0.188054
H22   H     H_    0.287323 0.381146 0.773647 0.173897
H23   H     H_    0.213620 0.113937 0.242263 0.189306
H24   H     H_    0.714652 0.600400 0.278198 0.170714
H25   H     H_    0.715674 0.393109 0.161722 0.188515
H26   H     H_    0.283981 0.619151 0.781545 0.187569
H27   H     H_    0.788595 0.018026 0.910340 0.170165
H28   H     H_    0.209213 0.895211 0.146144 0.182072
H29   H     H_    0.214900 0.972962 0.095637 0.140657
H30   H     H_    0.787705 0.924823 0.882077 0.152053
H31   H     H_    0.288273 0.542571 0.903581 0.170849
H32   H     H_    0.709093 0.518543 0.086393 0.184619
H33   H     H_    0.714407 0.600115 0.142014 0.138987
H34   H     H_    0.784211 0.953362 0.677129 0.187699
H35   H     H_    0.287885 0.445859 0.894925 0.153354
H36   H     H_    0.698584 0.086836 0.926477 0.157320
H37   H     H_    0.710448 0.993575 0.940790 0.113612
H38   H     H_    0.632709 0.067369 0.791140 0.225171
H39   H     H_    0.640904 0.970037 0.801297 0.253925
H40   H     H_    0.640072 0.971561 0.937349 0.259331
H41   H     H_    0.592305 0.007078 0.850679 0.277108
H42   H     H_    0.630525 0.069370 0.925863 0.263375
H43   H     H_    0.331332 0.812309 0.334357 0.137849
H44   H     H_    0.342905 0.873783 0.272919 0.170360
H45   H     H_    0.286600 0.575221 0.696418 0.177376
H46   H     H_    0.290955 0.731827 0.210183 0.217466
H47   H     H_    0.299970 0.794504 0.144577 0.247734
H48   H     H_    0.377401 0.774376 0.232628 0.272810
H49   H     H_    0.349731 0.689734 0.189787 0.265783
H50   H     H_    0.368512 0.711514 0.298992 0.264098
H51   H     H_    0.321687 0.041236 0.175848 0.163004
H52   H     H_    0.265005 0.043693 0.103990 0.143415
H53   H     H_    0.331156 0.969535 0.072817 0.229391
H54   H     H_    0.275282 0.967735 0.002471 0.224767
H55   H     H_    0.274038 0.103739 0.989766 0.261389
H56   H     H_    0.713283 0.391611 0.257485 0.173455
H57   H     H_    0.310084 0.063507 0.961030 0.266848
H58   H     H_    0.330002 0.107108 0.062253 0.268576
H59   H     H_    0.701987 0.864671 0.911189 0.169569
H60   H     H_    0.752037 0.903341 0.944523 0.118096
H61   H     H_    0.711062 0.771562 0.824699 0.230876
H62   H     H_    0.760966 0.808897 0.848596 0.211299
H63   H     H_    0.788796 0.782122 0.002374 0.262491
H64   H     H_    0.769957 0.700890 0.938375 0.266421
H65   H     H_    0.738477 0.743446 0.977187 0.261792
H66   H     H_    0.197072 0.628342 0.903875 0.157507
H67   H     H_    0.713819 0.516562 0.328430 0.190390
H68   H     H_    0.208411 0.536903 0.935004 0.115316
H69   H     H_    0.132127 0.596223 0.770739 0.227874
H70   H     H_    0.139865 0.501068 0.800034 0.251856
H71   H     H_    0.136620 0.529195 0.930323 0.262487
H72   H     H_    0.089799 0.557606 0.836115 0.274898
H73   H     H_    0.128122 0.625004 0.900642 0.262790
H74   H     H_    0.832047 0.427391 0.158194 0.136120
H75   H     H_    0.843102 0.518228 0.198594 0.163999
H76   H     H_    0.792736 0.474670 0.011272 0.220629
H77   H     H_    0.801135 0.567363 0.049757 0.249030
H78   H     H_    0.284419 0.434155 0.688168 0.187720
H79   H     H_    0.878826 0.550002 0.115384 0.269091
H80   H     H_    0.852165 0.532284 0.003682 0.263592
H81   H     H_    0.870538 0.456733 0.077032 0.265602
H82   H     H_    0.821088 0.651805 0.301730 0.167177
H83   H     H_    0.764208 0.664938 0.242744 0.139185
H84   H     H_    0.827715 0.729048 0.197255 0.231845
H85   H     H_    0.771655 0.741490 0.139401 0.221596
H86   H     H_    0.774204 0.801580 0.265074 0.263464
H87   H     H_    0.807039 0.847971 0.232018 0.263589
H88   H     H_    0.830561 0.789074 0.323356 0.268519
H89   H     H_    0.715433 0.081030 0.635219 0.177481
H90   H     H_    0.202237 0.405495 0.932214 0.167464
H91   H     H_    0.251748 0.442824 0.958644 0.119834
H92   H     H_    0.212438 0.296695 0.867785 0.227861
H93   H     H_    0.260641 0.331110 0.878694 0.213787
H94   H     H_    0.292591 0.330698 0.036028 0.265758
H95   H     H_    0.274292 0.241352 0.991181 0.266720
H96   H     H_    0.243991 0.295153 0.024798 0.262437
O1    O     O_R   0.500010 0.060620 0.392670 -0.619896
O2    O     O_R   0.438570 0.939380 0.438570 -0.626494
O3    O     O_R   0.438570 0.060620 0.438570 -0.616404
O4    O     O_R   0.561430 0.939380 0.561430 -0.613096
O5    O     O_R   0.061430 0.560620 0.561430 -0.620649
O6    O     O_R   0.938570 0.439380 0.438570 -0.619801
O7    O     O_R   0.938570 0.560620 0.438570 -0.619241
O8    O     O_R   0.061430 0.439380 0.561430 -0.613282
O9    O     O_R   0.000000 0.107140 0.939380 -0.619509
O10   O     O_R   0.000000 0.892860 0.060620 -0.619599
O11   O     O_R   0.000000 0.107140 0.060620 -0.619889
O12   O     O_R   0.499990 0.939380 0.607330 -0.619201
O13   O     O_R   0.000000 0.892860 0.939380 -0.619628
O14   O     O_R   0.500000 0.607140 0.939380 -0.619627
O15   O     O_R   0.500000 0.392860 0.060620 -0.619768
O16   O     O_R   0.500000 0.607140 0.060620 -0.619560
O17   O     O_R   0.500000 0.392860 0.939380 -0.619332
O18   O     O_R   0.938580 1.000000 0.877970 -0.618611
O19   O     O_R   0.061420 1.000000 0.122030 -0.618575
O20   O     O_R   0.438580 0.500000 0.877970 -0.618650
O21   O     O_R   0.561420 0.500000 0.122030 -0.618823
O22   O     O_R   0.938570 1.000000 0.999140 -0.618679
O23   O     O_R   0.499990 0.060620 0.607330 -0.619501
O24   O     O_R   0.061430 1.000000 0.000860 -0.618443
O25   O     O_R   0.438570 0.500000 0.999140 -0.618500
O26   O     O_R   0.561430 0.500000 0.000860 -0.617769
O27   O     O_R   0.534690 0.892630 0.034650 -0.622175
O28   O     O_R   0.465310 0.107370 0.965350 -0.621522
O29   O     O_R   0.465310 0.892630 0.965350 -0.621536
O30   O     O_R   0.534690 0.107370 0.034650 -0.621953
O31   O     O_R   0.034690 0.392630 0.034650 -0.622351
O32   O     O_R   0.965310 0.607370 0.965350 -0.621897
O33   O     O_R   0.965310 0.392630 0.965350 -0.621490
O34   O     O_R   0.500010 0.939380 0.392670 -0.620437
O35   O     O_R   0.034690 0.607370 0.034650 -0.620998
O36   O     O_R   0.534680 1.000000 0.141990 -0.621897
O37   O     O_R   0.465320 1.000000 0.858010 -0.620355
O38   O     O_R   0.034680 0.500000 0.141990 -0.621479
O39   O     O_R   0.965320 0.500000 0.858010 -0.620671
O40   O     O_R   0.465320 0.000000 0.072630 -0.621510
O41   O     O_R   0.534680 1.000000 0.927370 -0.623328
O42   O     O_R   0.965320 0.500000 0.072630 -0.621122
O43   O     O_R   0.034680 0.500000 0.927370 -0.622753
O44   O     O_3   0.713568 0.046619 0.841147 -0.700775
O45   O     O_R   0.000010 0.560620 0.392670 -0.619663
O46   O     O_3   0.279293 0.867307 0.245701 -0.685418
O47   O     O_3   0.291576 0.941974 0.157427 -0.683345
O48   O     O_3   0.705238 0.916759 0.815249 -0.695707
O49   O     O_3   0.213237 0.570531 0.829317 -0.701152
O50   O     O_3   0.779504 0.482061 0.141270 -0.681407
O51   O     O_3   0.791103 0.602960 0.184793 -0.680441
O52   O     O_3   0.205174 0.439661 0.828430 -0.696239
O53   O     O_R   0.999990 0.439380 0.607330 -0.617841
O54   O     O_R   0.999990 0.560620 0.607330 -0.620563
O55   O     O_R   0.000010 0.439380 0.392670 -0.620962
O56   O     O_R   0.561430 0.060620 0.561430 -0.619822
Zn1   Zn    Zn3+2 0.500000 0.080950 0.500000 0.961725
Zn2   Zn    Zn3+2 0.453690 1.000000 0.953700 0.960433
Zn3   Zn    Zn3+2 0.046310 0.500000 0.046300 0.956137
Zn4   Zn    Zn3+2 0.953690 0.500000 0.953700 0.956126
Zn5   Zn    Zn3+2 0.500000 0.919050 0.500000 0.959783
Zn6   Zn    Zn3+2 1.000000 0.580950 0.500000 0.959450
Zn7   Zn    Zn3+2 1.000000 0.419050 0.500000 0.962865
Zn8   Zn    Zn3+2 0.000010 1.000000 0.919080 0.962639
Zn9   Zn    Zn3+2 0.999990 0.000000 0.080920 0.961939
Zn10  Zn    Zn3+2 0.500010 0.500000 0.919080 0.963486
Zn11  Zn    Zn3+2 0.499990 0.500000 0.080920 0.962242
Zn12  Zn    Zn3+2 0.546310 1.000000 0.046300 0.954709

loop_
_geom_bond_atom_site_label_1
_geom_bond_atom_site_label_2
_ccdc_geom_bond_type
C37   O24   A    
C112  H62   S    
C10   O51   S    
C77   C92   S    
C95   H31   S    
C4    O49   S    
C93   C97   S    
C35   O18   A    
C94   H28   S    
O17   Zn10  S    
O32   Zn4   S    
C7    H74   S    
C111  C112  S    
C67   C77   S    
C92   C96   S    
C76   H67   S    
C38   O25   A    
C15   H92   S    
C76   H24   S    
C75   H22   S    
C7    C8    S    
C101  H36   S    
C78   C90   S    
C77   H56   S    
O1    Zn1   S    
C96   H33   S    
C108  H52   S    
C6    H73   S    
C43   C61   S    
C24   C36   S    
C49   C60   T    
C70   C75   S    
C84   C97   S    
C99   O52   S    
C30   C48   S    
C77   H25   S    
C39   O21   A    
C48   O39   A    
C16   H94   S    
C10   H82   S    
C68   H7    S    
C5    C6    S    
C9    H81   S    
C20   C55   S    
C106  C107  S    
C94   C98   S    
C15   C16   S    
O25   Zn11  S    
C74   H21   S    
C14   H90   S    
O3    Zn1   S    
C84   C102  S    
C108  C109  S    
C2    C85   S    
C111  H60   S    
C18   C102  T    
C35   C79   S    
C89   C94   S    
C99   O49   S    
C24   C29   T    
C46   O42   A    
C56   O7    A    
C85   C98   S    
C75   C90   S    
O18   Zn8   S    
O19   Zn9   S    
C63   H2    S    
C27   C44   S    
O21   Zn11  S    
O37   Zn2   S    
C70   H8    S    
C8    C9    S    
O42   Zn4   S    
C66   H5    S    
C13   C86   S    
O24   Zn8   S    
C51   C57   T    
C65   H9    S    
C104  H41   S    
C9    H80   S    
C8    H77   S    
O8    Zn7   S    
C56   O6    A    
C103  H38   S    
C103  H39   S    
C66   H17   S    
C45   O41   A    
C33   O14   A    
C70   H14   S    
O55   Zn7   S    
C112  H61   S    
C73   H20   S    
C1    C22   S    
C101  C103  S    
C64   H3    S    
C63   C85   S    
O28   Zn2   S    
O27   Zn12  S    
C94   H29   S    
C21   C56   S    
C37   C81   S    
O40   Zn2   S    
C105  O46   S    
C4    H68   S    
C40   O27   A    
C69   C89   S    
C78   H26   S    
C5    H69   S    
C98   O47   S    
C107  H48   S    
C97   O44   S    
C31   O11   A    
C41   O30   A    
C47   O54   A    
C66   C78   S    
C108  H51   S    
C100  O50   S    
C28   C45   S    
C18   C53   S    
C65   C84   S    
C71   H34   S    
C1    O1    A    
C36   O55   A    
C107  H49   S    
C90   C95   S    
C75   H78   S    
C95   H35   S    
C11   H84   S    
C41   C59   S    
C80   C82   T    
C10   C11   S    
O20   Zn10  S    
C91   C92   S    
C4    H66   S    
O56   Zn1   S    
C72   H23   S    
C63   C73   S    
C43   O35   A    
O34   Zn5   S    
C65   C71   S    
C74   H1    S    
C109  H54   S    
C47   O53   A    
C37   O19   A    
C6    H72   S    
O29   Zn2   S    
C46   O38   A    
O5    Zn6   S    
C11   H85   S    
C62   H89   S    
C66   C86   S    
C40   O29   A    
C93   H27   S    
C52   C59   T    
C96   H32   S    
C110  H55   S    
C78   H45   S    
C107  H50   S    
O12   Zn5   S    
C3    C112  S    
C11   C12   S    
C73   H12   S    
C31   O9    A    
C14   H91   S    
C34   O17   A    
C67   H16   S    
C12   H88   S    
O41   Zn12  S    
O31   Zn3   S    
C23   C28   T    
C86   C99   S    
C53   O56   A    
C68   H15   S    
C32   C50   S    
C15   H93   S    
O13   Zn8   S    
C109  H53   S    
C58   C79   T    
C76   C92   S    
C97   O48   S    
O39   Zn4   S    
C26   C47   S    
C19   C54   S    
C3    H63   S    
C54   O3    A    
C105  H43   S    
O30   Zn12  S    
C26   C30   T    
O10   Zn9   S    
C22   C27   T    
O23   Zn1   S    
O22   Zn9   S    
C32   O10   A    
C65   H4    S    
C101  O44   S    
C33   C51   S    
C45   O37   A    
O38   Zn3   S    
C70   C86   S    
O43   Zn3   S    
C64   C85   S    
C55   O8    A    
C34   O15   A    
C44   O36   A    
C72   H19   S    
C38   O20   A    
C87   C100  S    
C7    H75   S    
C111  O48   S    
C50   C61   T    
O16   Zn11  S    
C62   C84   S    
C88   C93   S    
C25   O23   A    
C40   C57   S    
C13   C20   T    
C2    C19   T    
C17   C87   S    
O45   Zn6   S    
C67   C87   S    
O54   Zn6   S    
O35   Zn3   S    
C4    C5    S    
C16   H96   S    
C58   C88   S    
C55   O5    A    
C62   H13   S    
C63   H11   S    
C42   O31   A    
C42   C60   S    
C41   O28   A    
O7    Zn6   S    
C68   C76   S    
O9    Zn8   S    
C83   C91   T    
C105  C106  S    
C6    H71   S    
C42   O33   A    
C34   C52   S    
C36   O45   A    
O26   Zn10  S    
C29   C46   S    
C35   O22   A    
C74   C88   S    
C104  H40   S    
C48   O43   A    
C5    H70   S    
C3    H65   S    
C39   C83   S    
C108  O47   S    
C16   H95   S    
C32   O13   A    
C10   H83   S    
C71   H18   S    
C106  H46   S    
C72   C89   S    
C39   O26   A    
C110  H57   S    
O4    Zn5   S    
O2    Zn5   S    
C64   H10   S    
C96   C100  S    
C101  H37   S    
C12   H87   S    
O6    Zn7   S    
C95   C99   S    
C1    O34   A    
C23   C25   S    
O11   Zn9   S    
C80   C90   S    
C67   H6    S    
C17   C21   T    
O53   Zn7   S    
C69   C81   T    
C43   O32   A    
C44   O40   A    
C73   C89   S    
C71   C88   S    
C33   O16   A    
C100  O51   S    
C3    H64   S    
C54   O2    A    
C105  H44   S    
O15   Zn11  S    
C110  H58   S    
C109  C110  S    
C103  C104  S    
O36   Zn12  S    
C68   C87   S    
C12   H86   S    
C14   C15   S    
C62   C74   S    
C25   O12   A    
C14   O52   S    
O14   Zn10  S    
C31   C49   S    
C98   O46   S    
C104  H42   S    
O33   Zn4   S    
C9    H79   S    
C7    O50   S    
C8    H76   S    
C53   O4    A    
C93   H30   S    
C106  H47   S    
C64   C72   S    
C38   C82   S    
C111  H59   S    
