data_mof_unit_57710.cif
_audit_creation_date              2013-03-05T16:43:18-0500
_audit_creation_method            fapswitch 2.2
_symmetry_space_group_name_H-M    P1
_symmetry_Int_Tables_number       1
_space_group_crystal_system       triclinic
_cell_length_a                    15.75209
_cell_length_b                    10.691296
_cell_length_c                    9.885175
_cell_angle_alpha                 89.812416
_cell_angle_beta                  90.820379
_cell_angle_gamma                 90.372947
_cell_volume                      1664.55052712

loop_
_atom_site_label
_atom_site_type_symbol
_atom_site_description
_atom_site_fract_x
_atom_site_fract_y
_atom_site_fract_z
_atom_type_partial_charge
O1    O     O_R   0.500010 0.316790 0.614690 -0.617089
O2    O     O_R   0.500000 0.316760 0.385350 -0.624382
C1    C     C_R   0.502712 0.260030 0.500279 0.875378
O3    O     O_R   0.377150 0.500020 0.614720 -0.622382
O4    O     O_R   0.377140 0.499990 0.385380 -0.612504
C2    C     C_R   0.338421 0.499939 0.499240 0.891422
Zn1   Zn    Zn3+2 0.500010 0.500020 0.653130 1.000862
Zn2   Zn    Zn3+2 0.499990 0.499980 0.346870 0.968945
O5    O     O_R   0.500000 0.683240 0.614650 -0.591402
O6    O     O_R   0.499990 0.683210 0.385310 -0.624487
O7    O     O_R   0.622860 0.500010 0.614620 -0.560689
O8    O     O_R   0.622850 0.499980 0.385280 -0.608886
C3    C     C_R   0.502199 0.739989 0.500007 0.893289
C4    C     C_R   0.661574 0.500170 0.500768 0.916246
C5    C     C_3   0.050207 0.439347 0.631389 -0.095913
C6    C     C_3   0.048251 0.439248 0.373430 -0.513187
C7    C     C_3   0.949221 0.441447 0.369103 0.075284
H1    H     H_    0.938173 0.332306 0.594495 0.096976
H2    H     H_    0.074238 0.341436 0.628081 0.152418
H3    H     H_    0.076899 0.482331 0.282366 0.242410
H4    H     H_    0.069755 0.340196 0.374659 0.167499
H5    H     H_    0.927621 0.342048 0.373968 0.117325
C8    C     C_1   0.750231 0.503600 0.502126 -0.024765
C9    C     C_3   0.083092 0.507163 0.501646 0.166978
C10   C     C_3   0.951474 0.431756 0.622180 0.084464
C11   C     C_3   0.917014 0.511990 0.498647 -0.053837
C12   C     C_3   0.952872 0.652368 0.495070 0.387597
C13   C     C_3   0.052800 0.644702 0.496120 -0.417670
C14   C     C_1   0.825389 0.507588 0.500923 0.071872
C15   C     C_1   0.174578 0.504177 0.498808 -0.040114
C16   C     C_1   0.249734 0.501873 0.497855 -0.194723
H6    H     H_    0.081781 0.698004 0.581554 0.162874
H7    H     H_    0.081290 0.688756 0.405625 0.218471
C17   C     C_R   0.512430 0.063440 0.623523 0.112640
C18   C     C_R   0.515921 0.128656 0.501647 -0.112056
C19   C     C_R   0.534450 0.065283 0.381748 -0.204775
H8    H     H_    0.543616 0.114627 0.287119 0.180852
C20   C     C_R   0.533872 0.935871 0.381639 -0.189154
H9    H     H_    0.542836 0.887236 0.286974 0.184663
C21   C     C_R   0.514715 0.871547 0.501408 -0.144487
C22   C     C_R   0.511785 0.935595 0.623813 0.197797
C23   C     C_3   0.447169 0.929468 0.733979 -0.067552
C24   C     C_3   0.449195 0.071473 0.734216 -0.510015
H10   H     H_    0.385132 0.889594 0.699514 0.162713
H11   H     H_    0.388230 0.113933 0.700133 0.179533
H12   H     H_    0.478034 0.113152 0.827098 0.218433
C25   C     C_R   0.426472 0.480896 0.069434 0.205712
N1    N     N_R   0.499430 0.499140 0.142800 -0.136921
C26   C     C_R   0.570394 0.533101 0.074478 -0.166946
H13   H     H_    0.627020 0.559825 0.130688 0.219307
C27   C     C_R   0.570500 0.535624 0.930912 0.295060
N2    N     N_R   0.499430 0.499180 0.857150 -0.169038
C28   C     C_R   0.426368 0.481286 0.927322 0.143534
C29   C     C_3   0.368844 0.370386 0.920424 -0.481535
C30   C     C_3   0.369719 0.369002 0.074295 -0.477371
H14   H     H_    0.305764 0.393972 0.875774 0.204789
H15   H     H_    0.399691 0.288054 0.875421 0.208233
H16   H     H_    0.306977 0.390999 0.118113 0.207915
H17   H     H_    0.401794 0.285780 0.118770 0.210317
C31   C     C_3   0.086770 0.492434 0.765425 -0.740592
H18   H     H_    0.069351 0.591212 0.781123 0.260287
H19   H     H_    0.063855 0.435942 0.852195 0.274951
H20   H     H_    0.157097 0.486424 0.767245 0.210631
N3    N     N_R   0.906406 0.447484 0.751084 0.249180
O9    O     O_R   0.911818 0.548853 0.822676 -0.308262
O10   O     O_R   0.861127 0.354956 0.797467 -0.326687
N4    N     N_R   0.920333 0.718104 0.372307 0.253588
O11   O     O_R   0.838992 0.734968 0.356259 -0.345333
O12   O     O_R   0.970717 0.776980 0.290066 -0.348998
C32   C     C_3   0.480884 0.871789 0.866019 -0.759452
H21   H     H_    0.480466 0.768476 0.858187 0.256299
H22   H     H_    0.546538 0.904555 0.889673 0.268383
H23   H     H_    0.438956 0.898076 0.950531 0.220110
N5    N     N_R   0.644770 0.581444 0.865526 0.228303
O13   O     O_R   0.640795 0.685070 0.796561 -0.382169
O14   O     O_R   0.718843 0.538970 0.902108 -0.276143
N6    N     N_R   0.913524 0.490893 0.240870 0.280272
O15   O     O_R   0.833730 0.471284 0.211711 -0.315639
O16   O     O_R   0.961445 0.539389 0.147894 -0.293650
C33   C     C_3   0.924626 0.733427 0.615978 -0.719982
H24   H     H_    0.857137 0.716150 0.641299 0.276081
H25   H     H_    0.965040 0.721024 0.707003 0.247719
H26   H     H_    0.930952 0.834256 0.589864 0.231180

loop_
_geom_bond_atom_site_label_1
_geom_bond_atom_site_label_2
_geom_bond_distance
_ccdc_geom_bond_type
C6    H4    1.113924 S    
C30   H17   1.112281 S    
C5    C31   1.545381 S    
C18   C19   1.402407 A    
C27   N5    1.427776 S    
C28   C29   1.488713 S    
C5    H2    1.116189 S    
H1    C10   1.116539 S    
C11   C12   1.600613 S    
N5    O14   1.300838 A    
C31   H20   1.109965 S    
C7    C11   1.579865 S    
C8    C14   1.184620 T    
C19   H8    1.083430 S    
Zn1   N2    2.016915 S    
O3    Zn1   1.966854 S    
C15   C16   1.184447 T    
O7    C4    1.287686 A    
C5    C10   1.558219 S    
C23   C32   1.531364 S    
C31   H19   1.110585 S    
C17   C18   1.391590 A    
C22   C23   1.502202 S    
O5    C3    1.284504 A    
C3    C21   1.419092 S    
C6    C7    1.560219 S    
C26   C27   1.419364 A    
C32   H21   1.107480 S    
C6    H3    1.110112 S    
C25   C28   1.404770 A    
C2    C16   1.397168 S    
C6    C9    1.554273 S    
C17   C22   1.366792 A    
C23   H10   1.113001 S    
C33   H26   1.111824 S    
N6    O16   1.301924 A    
C20   H9    1.083475 S    
C29   H14   1.111624 S    
N5    O13   1.300326 A    
C27   N2    1.381874 A    
C13   H6    1.111356 S    
C33   H25   1.102911 S    
C12   C33   1.550651 S    
C10   C11   1.581739 S    
N6    O15   1.301331 A    
N4    O11   1.302445 A    
C31   H18   1.104863 S    
N4    O12   1.302178 A    
C10   N3    1.478101 S    
N3    O10   1.301827 A    
C4    C8    1.396649 S    
Zn1   O7    1.977573 S    
Zn2   N1    2.017210 S    
C25   N1    1.363418 A    
C1    C18   1.421216 S    
Zn2   O8    1.966854 S    
C32   H23   1.110339 S    
C7    N6    1.476999 S    
C24   H11   1.112311 S    
O3    C2    1.286600 A    
C21   C22   1.393755 A    
O8    C4    1.286640 A    
C13   H7    1.108801 S    
C23   C24   1.518361 S    
N2    C28   1.364339 A    
C25   C30   1.489817 S    
Zn1   O5    1.994228 S    
C29   C30   1.520926 S    
C5    C9    1.564273 S    
O1    Zn1   1.996700 S    
O2    Zn2   1.994228 S    
C17   C24   1.493261 S    
C9    C13   1.549455 S    
C33   H24   1.109813 S    
O6    C3    1.287752 A    
O4    Zn2   1.977572 S    
C7    H5    1.114824 S    
N3    O9    1.297978 A    
C19   C20   1.383551 A    
O2    C1    1.286399 A    
C20   C21   1.402826 A    
O4    C2    1.287802 A    
N1    C26   1.360975 A    
C24   H12   1.111767 S    
C9    C15   1.442338 S    
C12   N4    1.486807 S    
C11   C14   1.444235 S    
Zn2   O6    1.996700 S    
C26   H13   1.081450 S    
C30   H16   1.111601 S    
C12   C13   1.576634 S    
C32   H22   1.111692 S    
O1    C1    1.286616 A    
C29   H15   1.105964 S    
