data_mof_unit_64230.cif
_audit_creation_date              2013-03-05T16:21:53-0500
_audit_creation_method            fapswitch 2.2
_symmetry_space_group_name_H-M    P1
_symmetry_Int_Tables_number       1
_space_group_crystal_system       triclinic
_cell_length_a                    30.857272
_cell_length_b                    30.668466
_cell_length_c                    24.718323
_cell_angle_alpha                 90.015367
_cell_angle_beta                  128.228074
_cell_angle_gamma                 89.999093
_cell_volume                      18375.7252767

loop_
_atom_site_label
_atom_site_type_symbol
_atom_site_description
_atom_site_fract_x
_atom_site_fract_y
_atom_site_fract_z
_atom_type_partial_charge
O1    O     O_R   0.821190 0.768980 0.500000 -0.534179
O2    O     O_R   0.178810 0.768980 0.500000 -0.505910
O3    O     O_R   0.321190 0.268980 0.500000 -0.521895
O4    O     O_R   0.678810 0.268980 0.500000 -0.531195
O5    O     O_R   0.768960 0.821170 0.500020 -0.562097
O6    O     O_R   0.231040 0.821170 0.499980 -0.570099
O7    O     O_R   0.268960 0.321170 0.500020 -0.558055
O8    O     O_R   0.731040 0.321170 0.499980 -0.561894
C1    C     C_R   0.807193 0.809535 0.495991 0.874062
C2    C     C_R   0.191421 0.809394 0.501249 0.886127
C3    C     C_R   0.308904 0.309304 0.499390 0.894417
C4    C     C_R   0.692388 0.309434 0.503503 0.874614
O9    O     O_R   0.726180 0.723900 0.400140 -0.569498
O10   O     O_R   0.273820 0.723900 0.599860 -0.576845
O11   O     O_R   0.226180 0.223900 0.400140 -0.583244
O12   O     O_R   0.773820 0.223900 0.599860 -0.569967
O13   O     O_R   0.673950 0.776090 0.400160 -0.577175
O14   O     O_R   0.326050 0.776090 0.599840 -0.579881
O15   O     O_R   0.173950 0.276090 0.400160 -0.580188
O16   O     O_R   0.826050 0.276090 0.599840 -0.576246
C5    C     C_R   0.683859 0.750009 0.367444 0.793073
C6    C     C_R   0.316325 0.749853 0.632574 0.802884
C7    C     C_R   0.183625 0.249791 0.367424 0.803595
C8    C     C_R   0.816180 0.249984 0.632558 0.792102
Cu1   Cu    Cu3+1 0.780910 0.719090 0.500000 1.084388
Cu2   Cu    Cu3+1 0.219090 0.719090 0.500000 1.116656
Cu3   Cu    Cu3+1 0.280910 0.219090 0.500000 1.105306
Cu4   Cu    Cu3+1 0.719090 0.219090 0.500000 1.086511
Cu5   Cu    Cu3+1 0.719070 0.780890 0.500010 1.109477
Cu6   Cu    Cu3+1 0.280930 0.780890 0.499990 1.107188
Cu7   Cu    Cu3+1 0.219070 0.280890 0.500010 1.117576
Cu8   Cu    Cu3+1 0.780930 0.280890 0.499990 1.109341
O17   O     O_R   0.731010 0.678810 0.499990 -0.597239
O18   O     O_R   0.268990 0.678810 0.500010 -0.593207
O19   O     O_R   0.231010 0.178810 0.499990 -0.593183
O20   O     O_R   0.768990 0.178810 0.500010 -0.597056
O21   O     O_R   0.678790 0.731000 0.500010 -0.566189
O22   O     O_R   0.321210 0.731000 0.499990 -0.567836
O23   O     O_R   0.178790 0.231000 0.500010 -0.570045
O24   O     O_R   0.821210 0.231000 0.499990 -0.565949
O25   O     O_R   0.826030 0.723890 0.599860 -0.541009
O26   O     O_R   0.173970 0.723890 0.400140 -0.547012
O27   O     O_R   0.326030 0.223890 0.599860 -0.550185
O28   O     O_R   0.673970 0.223890 0.400140 -0.542150
O29   O     O_R   0.773800 0.776080 0.599870 -0.559407
O30   O     O_R   0.226200 0.776080 0.400130 -0.553281
O31   O     O_R   0.273800 0.276080 0.599870 -0.544503
O32   O     O_R   0.726200 0.276080 0.400130 -0.557849
C9    C     C_R   0.691067 0.690566 0.500738 0.828800
C10   C     C_R   0.308985 0.690569 0.499385 0.818714
C11   C     C_R   0.191022 0.190569 0.500630 0.816820
C12   C     C_R   0.808956 0.190573 0.499303 0.827773
C13   C     C_R   0.815619 0.749536 0.632477 0.906910
C14   C     C_R   0.184717 0.749112 0.367436 0.915311
C15   C     C_R   0.315395 0.249272 0.632575 0.928338
C16   C     C_R   0.684485 0.249394 0.367535 0.908149
C17   C     C_R   0.612528 0.786318 0.254882 -0.111710
C18   C     C_R   0.388898 0.785654 0.745177 -0.093676
C19   C     C_R   0.110953 0.285489 0.254808 -0.091821
C20   C     C_R   0.887754 0.286177 0.745189 -0.109217
H1    H     H_    0.614094 0.814821 0.281927 0.193446
H2    H     H_    0.388063 0.813838 0.718152 0.190336
H3    H     H_    0.111726 0.313662 0.281823 0.189738
H4    H     H_    0.886286 0.314659 0.718200 0.194176
C21   C     C_R   0.577013 0.786447 0.182924 -0.116053
C22   C     C_R   0.424483 0.785817 0.817122 -0.120093
C23   C     C_R   0.075400 0.285631 0.182866 -0.120330
C24   C     C_R   0.923299 0.286273 0.817147 -0.117571
H5    H     H_    0.551664 0.814925 0.156086 0.177081
H6    H     H_    0.450568 0.813986 0.843920 0.176731
H7    H     H_    0.049274 0.313769 0.156061 0.176749
H8    H     H_    0.948752 0.314709 0.844036 0.177087
C25   C     C_R   0.573622 0.749930 0.146132 0.037979
C26   C     C_R   0.426973 0.749733 0.853951 0.036916
C27   C     C_R   0.073004 0.249569 0.146045 0.037222
C28   C     C_R   0.926573 0.249781 0.853873 0.037803
C29   C     C_R   0.606964 0.713496 0.182728 -0.117566
C30   C     C_R   0.392722 0.713671 0.817394 -0.118483
C31   C     C_R   0.107296 0.213541 0.182606 -0.119273
C32   C     C_R   0.893114 0.213394 0.817218 -0.117803
H9    H     H_    0.605416 0.684984 0.155719 0.169324
H10   H     H_    0.393598 0.685488 0.844442 0.170043
H11   H     H_    0.106484 0.185374 0.155560 0.169533
H12   H     H_    0.894582 0.184900 0.844180 0.169495
C33   C     C_R   0.643294 0.713715 0.254698 -0.144367
C34   C     C_R   0.356310 0.713879 0.745414 -0.158571
C35   C     C_R   0.143683 0.213774 0.254588 -0.162425
C36   C     C_R   0.856751 0.213650 0.745250 -0.147534
H13   H     H_    0.668645 0.685246 0.281611 0.165823
H14   H     H_    0.330221 0.685721 0.718542 0.168037
H15   H     H_    0.169821 0.185651 0.281465 0.166947
H16   H     H_    0.831298 0.185222 0.718291 0.167165
C37   C     C_R   0.646135 0.750015 0.291429 -0.034962
C38   C     C_R   0.354266 0.749783 0.708630 -0.031796
C39   C     C_R   0.145658 0.249667 0.291364 -0.029864
C40   C     C_R   0.853986 0.249939 0.708577 -0.036990
N1    N     N_R   0.517161 0.711732 0.034391 -0.213431
N2    N     N_R   0.482508 0.711685 0.965798 -0.212959
N3    N     N_R   0.017538 0.211519 0.034161 -0.213455
N4    N     N_R   0.982939 0.211571 0.965566 -0.213771
C41   C     C_R   0.465129 0.749747 0.930068 0.421744
C42   C     C_R   0.535457 0.749848 0.070016 0.422032
C43   C     C_R   0.964707 0.249689 0.929986 0.421861
C44   C     C_R   0.034917 0.249581 0.069932 0.421530
N5    N     N_R   0.483610 0.787853 0.965696 -0.196750
N6    N     N_R   0.517884 0.787906 0.034283 -0.196263
N7    N     N_R   0.982284 0.287745 0.965762 -0.196308
N8    N     N_R   0.016501 0.287689 0.034348 -0.196649
C45   C     C_R   0.894193 0.835804 0.525180 -0.061848
C46   C     C_R   0.102659 0.844911 0.449434 -0.091239
C47   C     C_R   0.397557 0.343997 0.547404 -0.070044
C48   C     C_R   0.603769 0.336646 0.469887 -0.063581
C49   C     C_R   0.838632 0.843629 0.493151 -0.176306
C50   C     C_R   0.159356 0.843167 0.502551 -0.152373
C51   C     C_R   0.340652 0.342557 0.496887 -0.138927
C52   C     C_R   0.660513 0.343048 0.506548 -0.169940
C53   C     C_R   0.816713 0.885816 0.465796 0.353304
C54   C     C_R   0.184579 0.877525 0.551502 0.333792
C55   C     C_R   0.315555 0.375795 0.445817 0.324073
C56   C     C_R   0.683549 0.384215 0.538007 0.344716
C57   C     C_R   0.851268 0.918044 0.470362 -0.207465
C58   C     C_R   0.150977 0.909757 0.549124 -0.200853
C59   C     C_R   0.349142 0.408277 0.448080 -0.196727
C60   C     C_R   0.649268 0.416582 0.533682 -0.210805
H17   H     H_    0.834405 0.949584 0.446771 0.189739
H18   H     H_    0.169633 0.934913 0.588283 0.216503
H19   H     H_    0.330403 0.432937 0.408186 0.216734
H20   H     H_    0.666887 0.447312 0.560211 0.196308
C61   C     C_R   0.906611 0.908915 0.501610 -0.138253
C62   C     C_R   0.093383 0.908428 0.498633 -0.135672
C63   C     C_R   0.406665 0.408596 0.500775 -0.093485
C64   C     C_R   0.593017 0.408638 0.498536 -0.139154
C65   C     C_R   0.928409 0.868505 0.532541 0.016892
C66   C     C_R   0.070423 0.877597 0.445948 0.006161
C67   C     C_R   0.428914 0.376648 0.551297 -0.042625
C68   C     C_R   0.570068 0.369569 0.463097 0.002047
C69   C     C_3   0.960717 0.838201 0.522605 0.115892
C70   C     C_3   0.021642 0.847929 0.414363 0.141163
C71   C     C_3   0.481968 0.357992 0.613288 0.157673
C72   C     C_3   0.532980 0.339071 0.464446 0.129418
C73   C     C_3   0.920200 0.802361 0.508500 0.458152
C74   C     C_3   0.057243 0.811470 0.416809 0.457133
C75   C     C_3   0.445763 0.320663 0.609244 0.459737
C76   C     C_3   0.571815 0.302287 0.475940 0.459688
H21   H     H_    0.957967 0.847587 0.477380 0.100982
H22   H     H_    0.011751 0.842624 0.449785 0.109188
H23   H     H_    0.509770 0.347674 0.601340 0.128548
H24   H     H_    0.532941 0.345480 0.508727 0.103375
C77   C     C_R   0.832708 0.753778 0.746200 0.267567
C78   C     C_R   0.168617 0.755072 0.254108 0.262245
C79   C     C_R   0.333219 0.258696 0.746476 0.258143
C80   C     C_R   0.668380 0.251009 0.254224 0.269692
C81   C     C_R   0.870117 0.755497 0.818778 0.229923
C82   C     C_R   0.131934 0.754782 0.181352 0.227354
C83   C     C_R   0.370508 0.259330 0.819091 0.235311
C84   C     C_R   0.631436 0.250596 0.181474 0.224926
C85   C     C_R   0.927646 0.752545 0.853955 -0.220655
C86   C     C_R   0.075148 0.746492 0.145826 -0.221685
C87   C     C_R   0.427065 0.249928 0.854403 -0.223652
C88   C     C_R   0.573940 0.247458 0.146293 -0.220805
C89   C     C_R   0.947399 0.748383 0.815515 0.318667
C90   C     C_R   0.055440 0.737365 0.183248 0.310055
C91   C     C_R   0.445830 0.239723 0.816153 0.322777
C92   C     C_R   0.553596 0.243998 0.184054 0.313056
C93   C     C_R   0.909741 0.745842 0.743564 -0.222819
C94   C     C_R   0.092357 0.737786 0.255330 -0.159755
C95   C     C_R   0.408031 0.238009 0.744215 -0.152144
C96   C     C_R   0.590818 0.244317 0.256110 -0.216723
H25   H     H_    0.925120 0.743242 0.714396 0.231610
H26   H     H_    0.077076 0.730661 0.283751 0.234146
H27   H     H_    0.422812 0.230363 0.715436 0.209414
H28   H     H_    0.575209 0.241595 0.284972 0.239255
C97   C     C_R   0.852885 0.749133 0.708501 -0.216608
C98   C     C_R   0.148386 0.747278 0.291259 -0.213282
C99   C     C_R   0.352347 0.248364 0.708797 -0.199677
C100  C     C_R   0.647691 0.248115 0.291548 -0.219078
N9    N     N_R   0.008360 0.721738 0.963799 -0.133355
N10   N     N_R   0.994630 0.776999 0.036666 -0.148400
N11   N     N_R   0.503556 0.217025 0.965300 -0.136312
N12   N     N_R   0.497497 0.280107 0.036078 -0.152515
N13   N     N_R   0.043054 0.720283 0.032355 -0.130504
N14   N     N_R   0.960175 0.778591 0.968144 -0.137424
N15   N     N_R   0.538082 0.216439 0.033878 -0.129603
N16   N     N_R   0.463207 0.280808 0.967509 -0.136042
C101  C     C_R   0.036708 0.747859 0.069942 0.535449
C102  C     C_R   0.966323 0.751031 0.930315 0.508765
C103  C     C_R   0.535578 0.247946 0.070414 0.535938
C104  C     C_R   0.465580 0.249322 0.930750 0.522504
C105  C     C_R   0.679334 0.617426 0.533432 0.018262
C106  C     C_R   0.320761 0.617684 0.466267 0.018624
C107  C     C_R   0.179263 0.117699 0.533781 0.017877
C108  C     C_R   0.820706 0.117428 0.466728 0.017914
C109  C     C_R   0.657819 0.657597 0.501246 -0.060163
C110  C     C_R   0.342455 0.657555 0.499468 -0.057404
C111  C     C_R   0.157562 0.157553 0.500563 -0.057732
C112  C     C_R   0.842213 0.157624 0.498792 -0.059469
C113  C     C_R   0.601522 0.665597 0.469110 -0.155623
C114  C     C_R   0.399085 0.665172 0.533167 -0.156247
C115  C     C_R   0.100934 0.165157 0.466870 -0.157399
C116  C     C_R   0.898480 0.165655 0.530782 -0.154891
H29   H     H_    0.582647 0.696379 0.443649 0.170341
H30   H     H_    0.418141 0.695672 0.559695 0.169322
H31   H     H_    0.081874 0.195643 0.440331 0.169368
H32   H     H_    0.917345 0.196475 0.556130 0.170205
C117  C     C_R   0.568631 0.633091 0.467766 -0.165411
C118  C     C_R   0.431942 0.632692 0.534348 -0.164688
C119  C     C_R   0.068079 0.132680 0.465696 -0.165171
C120  C     C_R   0.931351 0.133131 0.532113 -0.165427
H33   H     H_    0.525361 0.639472 0.441923 0.161622
H34   H     H_    0.475427 0.638796 0.561231 0.162209
H35   H     H_    0.024591 0.138770 0.438799 0.162306
H36   H     H_    0.974595 0.139540 0.557819 0.161300
C121  C     C_R   0.592070 0.592746 0.500127 -0.046330
C122  C     C_R   0.408133 0.592817 0.500190 -0.043262
C123  C     C_R   0.091890 0.092823 0.499865 -0.043675
C124  C     C_R   0.907927 0.092727 0.499931 -0.045812
C125  C     C_R   0.647818 0.586819 0.533578 -0.013449
C126  C     C_R   0.352239 0.587151 0.465936 -0.016327
C127  C     C_R   0.147791 0.087176 0.534145 -0.017369
C128  C     C_R   0.852202 0.086774 0.466643 -0.014276
C129  C     C_3   0.691519 0.552623 0.566472 0.056116
C130  C     C_3   0.307475 0.553886 0.428940 0.057540
C131  C     C_3   0.192548 0.053915 0.571121 0.058330
C132  C     C_3   0.808499 0.052570 0.434068 0.056505
C133  C     C_3   0.728366 0.587768 0.567527 0.131703
C134  C     C_3   0.270748 0.588920 0.428387 0.131414
C135  C     C_3   0.229264 0.088933 0.571620 0.132232
C136  C     C_3   0.771661 0.087813 0.432822 0.134205
H37   H     H_    0.680526 0.524750 0.531288 0.077557
H38   H     H_    0.316494 0.524927 0.461512 0.084135
H39   H     H_    0.183493 0.024933 0.538551 0.079883
H40   H     H_    0.819525 0.024889 0.469527 0.077292
H41   H     H_    0.739025 0.579635 0.533209 0.078258
H42   H     H_    0.258427 0.579762 0.460659 0.076648
H43   H     H_    0.241548 0.079748 0.539315 0.075568
H44   H     H_    0.761009 0.079855 0.467194 0.079187
O33   O     O_R   0.425940 0.545090 0.442170 -0.543495
O34   O     O_R   0.574060 0.545090 0.557830 -0.537023
O35   O     O_R   0.925940 0.045090 0.442170 -0.538008
O36   O     O_R   0.074060 0.045090 0.557830 -0.542922
O37   O     O_R   0.483700 0.545120 0.557760 -0.583441
O38   O     O_R   0.516300 0.545120 0.442240 -0.592048
O39   O     O_R   0.983700 0.045120 0.557760 -0.592615
O40   O     O_R   0.016300 0.045120 0.442240 -0.588426
C137  C     C_R   0.440537 0.559274 0.500087 0.767092
C138  C     C_R   0.559582 0.559166 0.499954 0.765236
C139  C     C_R   0.940398 0.059142 0.500062 0.765039
C140  C     C_R   0.059472 0.059273 0.499929 0.766682
O41   O     O_R   0.925990 0.954920 0.442210 -0.540735
O42   O     O_R   0.074010 0.954920 0.557790 -0.545410
O43   O     O_R   0.425990 0.454920 0.442210 -0.548349
O44   O     O_R   0.574010 0.454920 0.557790 -0.555828
O45   O     O_R   0.983760 0.954940 0.557800 -0.551725
O46   O     O_R   0.016240 0.954940 0.442200 -0.544539
O47   O     O_R   0.483760 0.454940 0.557800 -0.539061
O48   O     O_R   0.516240 0.454940 0.442200 -0.544299
C141  C     C_R   0.940485 0.940757 0.500283 0.808561
C142  C     C_R   0.059100 0.940202 0.499697 0.822379
C143  C     C_R   0.440673 0.440609 0.500302 0.808873
C144  C     C_R   0.559290 0.440580 0.499729 0.801984
Cu9   Cu    Cu3+1 0.465760 0.500000 0.431570 1.122762
Cu10  Cu    Cu3+1 0.534240 0.500000 0.568430 1.146254
Cu11  Cu    Cu3+1 0.965760 0.000000 0.431570 1.141219
Cu12  Cu    Cu3+1 0.034240 1.000000 0.568430 1.117797
N17   N     N_R   0.945045 0.765426 0.556583 0.161470
O49   O     O_R   0.940503 0.761723 0.605359 -0.310729
O50   O     O_R   0.969469 0.734571 0.548400 -0.239882
N18   N     N_R   0.039742 0.796747 0.349405 0.156115
O51   O     O_R   0.066188 0.809068 0.326611 -0.353562
O52   O     O_R   0.999686 0.768767 0.313692 -0.238956
N19   N     N_R   0.443564 0.318477 0.666883 0.136781
O53   O     O_R   0.401196 0.333377 0.660735 -0.357715
O54   O     O_R   0.482549 0.298609 0.723458 -0.257239
N20   N     N_R   0.546466 0.269220 0.421324 0.162849
O55   O     O_R   0.559087 0.266793 0.379973 -0.325480
O56   O     O_R   0.514309 0.239678 0.417296 -0.241381
N21   N     N_R   0.774341 0.754848 0.711452 0.163392
O57   O     O_R   0.742137 0.725192 0.666068 -0.290528
O58   O     O_R   0.753414 0.784477 0.726873 -0.253775
N22   N     N_R   0.226265 0.763138 0.289774 0.166817
O59   O     O_R   0.262881 0.734801 0.333704 -0.284073
O60   O     O_R   0.242167 0.797915 0.276263 -0.261249
N23   N     N_R   0.275432 0.265214 0.711677 0.160519
O61   O     O_R   0.240014 0.235117 0.671237 -0.288881
O62   O     O_R   0.257960 0.301306 0.719861 -0.251781
N24   N     N_R   0.726689 0.254397 0.289745 0.165680
O63   O     O_R   0.760354 0.225676 0.336000 -0.289402
O64   O     O_R   0.746179 0.285569 0.274645 -0.261266
N25   N     N_R   0.849144 0.756725 0.856712 0.170217
O65   O     O_R   0.842793 0.793951 0.876259 -0.243266
O66   O     O_R   0.829707 0.721389 0.863667 -0.225341
N26   N     N_R   0.152605 0.762701 0.143707 0.172277
O67   O     O_R   0.130749 0.792890 0.096689 -0.271905
O68   O     O_R   0.193944 0.740154 0.157074 -0.215111
N27   N     N_R   0.349885 0.266167 0.856839 0.170200
O69   O     O_R   0.336632 0.305209 0.862538 -0.233769
O70   O     O_R   0.349888 0.234243 0.891497 -0.247167
N28   N     N_R   0.652515 0.252953 0.143475 0.172106
O71   O     O_R   0.633983 0.282198 0.095637 -0.268836
O72   O     O_R   0.690826 0.226141 0.157171 -0.210388
N29   N     N_R   0.005459 0.748565 0.848292 0.159726
O73   O     O_R   0.024267 0.726178 0.822067 -0.256233
O74   O     O_R   0.038204 0.775988 0.897761 -0.271253
N30   N     N_R   0.998451 0.726698 0.149130 0.159530
O75   O     O_R   0.975770 0.736502 0.177754 -0.228362
O76   O     O_R   0.970958 0.702687 0.093858 -0.273502
N31   N     N_R   0.503369 0.233016 0.849083 0.173075
O77   O     O_R   0.518174 0.205387 0.823282 -0.263256
O78   O     O_R   0.540279 0.259255 0.897671 -0.241020
N32   N     N_R   0.495582 0.239146 0.150399 0.160300
O79   O     O_R   0.475040 0.253997 0.179561 -0.259601
O80   O     O_R   0.464463 0.215395 0.095167 -0.266477
N33   N     N_R   0.709370 0.539042 0.634376 0.198077
O81   O     O_R   0.740890 0.504978 0.663767 -0.246955
O82   O     O_R   0.691863 0.558824 0.664195 -0.247059
N34   N     N_R   0.291485 0.542488 0.361160 0.201184
O83   O     O_R   0.263115 0.507150 0.330768 -0.260248
O84   O     O_R   0.307725 0.565596 0.332475 -0.246615
N35   N     N_R   0.208591 0.042567 0.638936 0.201183
O85   O     O_R   0.237317 0.007415 0.669558 -0.259138
O86   O     O_R   0.192116 0.065547 0.667469 -0.247649
N36   N     N_R   0.790585 0.038661 0.366258 0.198513
O87   O     O_R   0.759546 0.004281 0.337530 -0.246603
O88   O     O_R   0.807660 0.058435 0.335945 -0.247454
S1    S     S_3+6 0.786429 0.606795 0.651059 0.123546
O89   O     O_2   0.767243 0.629385 0.686810 -0.143319
O90   O     O_2   0.822777 0.569040 0.694307 -0.171869
O91   O     O_3   0.823386 0.641930 0.642331 -0.491831
H45   H     H_    0.834346 0.625260 0.618200 0.350362
S2    S     S_3+6 0.214535 0.610336 0.345591 0.110812
O92   O     O_2   0.236006 0.637062 0.315770 -0.158346
O93   O     O_2   0.179818 0.573684 0.297079 -0.173462
O94   O     O_3   0.174891 0.641985 0.354388 -0.506305
H46   H     H_    0.162475 0.622689 0.374524 0.350190
S3    S     S_3+6 0.285516 0.110368 0.654402 0.111698
O95   O     O_2   0.264076 0.136989 0.684365 -0.157982
O96   O     O_2   0.320336 0.073731 0.702822 -0.172708
O97   O     O_3   0.325039 0.142134 0.645548 -0.506502
H47   H     H_    0.337466 0.122896 0.625357 0.350697
S4    S     S_3+6 0.713627 0.106740 0.349212 0.121024
O98   O     O_2   0.732864 0.129531 0.313666 -0.147400
O99   O     O_2   0.677499 0.068910 0.305846 -0.171704
O100  O     O_3   0.676392 0.141664 0.357780 -0.495193
H48   H     H_    0.665430 0.124883 0.381813 0.350074
N37   N     N_R   0.759083 0.895360 0.427995 0.153278
O101  O     O_R   0.722056 0.867899 0.382254 -0.321755
O102  O     O_R   0.743577 0.934315 0.430324 -0.310123
N38   N     N_R   0.243049 0.878572 0.606487 0.138330
O103  O     O_R   0.269901 0.842769 0.637305 -0.362191
O104  O     O_R   0.268183 0.915731 0.632175 -0.285659
N39   N     N_R   0.257205 0.376185 0.390227 0.136333
O105  O     O_R   0.230763 0.339916 0.361368 -0.371148
O106  O     O_R   0.231810 0.412942 0.362180 -0.281453
N40   N     N_R   0.741787 0.392489 0.579189 0.150694
O107  O     O_R   0.776990 0.363244 0.622592 -0.332487
O108  O     O_R   0.759486 0.431539 0.581759 -0.302945
S5    S     S_3+6 0.030158 0.833906 0.601085 0.087091
O109  O     O_2   0.056962 0.793456 0.599953 -0.145534
O110  O     O_2   0.062437 0.873051 0.607884 -0.282116
O111  O     O_3   0.029904 0.831964 0.668901 -0.460050
H49   H     H_    0.069231 0.829363 0.709659 0.399273
S6    S     S_3+6 0.963008 0.865755 0.330497 0.109847
O112  O     O_2   0.923051 0.828626 0.293403 -0.149185
O113  O     O_2   0.934640 0.902319 0.337896 -0.248260
O114  O     O_3   0.983326 0.883200 0.284842 -0.464413
H50   H     H_    0.948757 0.890890 0.239032 0.392961
S7    S     S_3+6 0.515668 0.392811 0.687772 0.107151
O115  O     O_2   0.551692 0.365949 0.752127 -0.157787
O116  O     O_2   0.551472 0.425231 0.686442 -0.244874
O117  O     O_3   0.468248 0.419429 0.688250 -0.482056
H51   H     H_    0.489856 0.437371 0.730659 0.386383
S8    S     S_3+6 0.464661 0.339251 0.383562 0.089494
O118  O     O_2   0.431954 0.302350 0.382190 -0.177465
O119  O     O_2   0.436865 0.381585 0.375796 -0.267934
O120  O     O_3   0.467443 0.333844 0.318042 -0.450897
H52   H     H_    0.428427 0.332480 0.276120 0.399441
S9    S     S_3+6 0.875563 0.785239 0.419148 0.078363
O121  O     O_2   0.838977 0.822343 0.373824 -0.235442
O122  O     O_2   0.909529 0.771610 0.397533 -0.187143
O123  O     O_3   0.835723 0.743035 0.407284 -0.475544
H53   H     H_    0.861146 0.717861 0.429663 0.372924
S10   S     S_3+6 0.069025 0.766493 0.471779 0.092370
O124  O     O_2   0.113750 0.777636 0.546102 -0.213384
O125  O     O_2   0.017227 0.756535 0.462616 -0.203574
O126  O     O_3   0.087688 0.721637 0.451442 -0.479232
H54   H     H_    0.052702 0.707084 0.414301 0.383223
S11   S     S_3+6 0.459483 0.268578 0.589406 0.089800
O127  O     O_2   0.444385 0.269502 0.518768 -0.205759
O128  O     O_2   0.519958 0.258555 0.641362 -0.192015
O129  O     O_3   0.422932 0.229246 0.592193 -0.486940
H55   H     H_    0.447607 0.217592 0.639706 0.373515
S12   S     S_3+6 0.608412 0.278351 0.560446 0.075413
O130  O     O_2   0.646229 0.311499 0.614813 -0.246524
O131  O     O_2   0.567447 0.263705 0.570612 -0.187356
O132  O     O_3   0.645811 0.235034 0.569544 -0.466994
H56   H     H_    0.618382 0.212259 0.539213 0.371465

loop_
_geom_bond_atom_site_label_1
_geom_bond_atom_site_label_2
_geom_bond_distance
_ccdc_geom_bond_type
N36   O88   1.302186 A    
C65   C69   1.490226 S    
S5    O109  1.500796 D    
C35   H15   1.083025 S    
C114  C118  1.408686 A    
C12   C112  1.445810 S    
C68   C72   1.494318 S    
S11   O129  1.681693 S    
O9    Cu1   1.951378 S    
C93   H25   1.083856 S    
C31   C35   1.397905 A    
N29   O73   1.301451 A    
C67   C71   1.500466 S    
O37   C137  1.282620 A    
C48   C68   1.383150 A    
C82   C86   1.414823 A    
C8    C40   1.476114 S    
C80   N24   1.436631 S    
Cu5   O21   1.971291 S    
N19   O53   1.301989 A    
C129  C133  1.555183 S    
S8    O118  1.502725 D    
Cu6   O22   1.971261 S    
C69   S5    1.796607 S    
N20   O55   1.301768 A    
C77   C81   1.410951 A    
S9    O123  1.681159 S    
C80   C84   1.412949 A    
C79   C83   1.410693 A    
O4    C4    1.295120 A    
C3    C51   1.441739 S    
N11   N15   1.331836 A    
C118  C122  1.407093 A    
C28   C43   1.477975 S    
C116  C120  1.408373 A    
C62   C66   1.396218 A    
C132  C136  1.554980 S    
C105  C125  1.353215 A    
Cu1   Cu5   2.689601 S    
N32   O80   1.301382 A    
C94   C98   1.400790 A    
S2    O92   1.502967 D    
C45   C65   1.384152 A    
Cu4   Cu8   2.689645 S    
S4    O98   1.502914 D    
S12   O131  1.502008 D    
C34   H14   1.083028 S    
O41   C141  1.286477 A    
S3    O96   1.502846 D    
C95   H27   1.081895 S    
N11   C104  1.358480 A    
Cu3   O19   1.973965 S    
O94   H46   0.990416 S    
O33   Cu9   1.972027 S    
Cu4   O28   1.949359 S    
O13   C5    1.301130 A    
N9    C102  1.358809 A    
Cu5   O29   1.951375 S    
N34   O83   1.300352 A    
C76   S12   1.805227 S    
O15   C7    1.301157 A    
C79   N23   1.435713 S    
N12   C103  1.356518 A    
C30   H10   1.082959 S    
O11   Cu3   1.951378 S    
C24   H8    1.082964 S    
O9    C5    1.301479 A    
O2    Cu2   1.971259 S    
O40   Cu11  1.976689 S    
O41   Cu11  1.971362 S    
O42   Cu12  1.971235 S    
N10   N14   1.331530 A    
C26   C41   1.478056 S    
C61   C65   1.391732 A    
O6    Cu6   1.973689 S    
N18   O52   1.301007 A    
S5    O111  1.682227 S    
O19   C11   1.294976 A    
N28   O71   1.301275 A    
S11   O127  1.503275 D    
C86   C101  1.474309 S    
C88   C92   1.414848 A    
C75   S11   1.796595 S    
O44   C144  1.285431 A    
C121  C125  1.384107 A    
O120  H52   0.990447 S    
C17   H1    1.083072 S    
C55   C59   1.413465 A    
C73   S9    1.812573 S    
C19   H3    1.083053 S    
S8    O120  1.682154 S    
C20   H4    1.083049 S    
C20   C24   1.397263 A    
C14   C98   1.480875 S    
N26   O68   1.301166 A    
C32   C36   1.397629 A    
C11   C111  1.445407 S    
O114  H50   0.990438 S    
N24   O64   1.301131 A    
C22   H6    1.082969 S    
C5    C37   1.476020 S    
N38   O103  1.300673 A    
C7    C39   1.476929 S    
S7    O117  1.681973 S    
C70   S6    1.796832 S    
O3    C3    1.290836 A    
S3    O95   1.502947 D    
C25   C29   1.405020 A    
C43   N7    1.358023 A    
C27   C31   1.405075 A    
C89   C93   1.400605 A    
N12   N16   1.331663 A    
O123  H53   0.990252 S    
C86   C90   1.414281 A    
O23   C11   1.293465 A    
N35   O86   1.302343 A    
C71   C75   1.559018 S    
N39   O105  1.300418 A    
C74   S10   1.808539 S    
S4    O100  1.677266 S    
C106  C134  1.499295 S    
O117  H51   0.990431 S    
C13   C97   1.476316 S    
C64   C144  1.442755 S    
O5    C1    1.294014 A    
C16   C100  1.476250 S    
C75   N19   1.469236 S    
N34   O84   1.302353 A    
C74   N18   1.468846 S    
C61   C141  1.445604 S    
Cu9   Cu10  2.657562 S    
C131  C135  1.555583 S    
N33   O82   1.302184 A    
C92   N32   1.440729 S    
S6    O112  1.502626 D    
C22   C26   1.404730 A    
C60   C64   1.400242 A    
C54   C58   1.407225 A    
S1    O90   1.502752 D    
C19   C23   1.396953 A    
C33   C37   1.404401 A    
C72   S8    1.795917 S    
C35   C39   1.404538 A    
C114  H30   1.083151 S    
N7    N8    1.331791 A    
C77   N21   1.438094 S    
C46   C50   1.394562 A    
O20   C12   1.295390 A    
O8    C4    1.299320 A    
C55   N39   1.438139 S    
C29   C33   1.397639 A    
N21   O57   1.301150 A    
C119  H35   1.083307 S    
C6    C38   1.476846 S    
O35   Cu11  1.972027 S    
O36   Cu12  1.972149 S    
O111  H49   0.990451 S    
C62   C142  1.450454 S    
C111  C115  1.414363 A    
C83   C87   1.416194 A    
C133  S1    1.798582 S    
C84   C88   1.415531 A    
C90   N30   1.440521 S    
N22   O59   1.301186 A    
C122  C126  1.383640 A    
C52   C56   1.421059 A    
C57   H17   1.082223 S    
C118  H34   1.083305 S    
C59   H19   1.083277 S    
C64   C68   1.391488 A    
C17   C21   1.397282 A    
N25   O65   1.300819 A    
N17   O50   1.301116 A    
O25   C13   1.300775 A    
O43   Cu9   1.971362 S    
C49   C53   1.422357 A    
O27   C15   1.302157 A    
Cu2   Cu6   2.689645 S    
C51   C55   1.422368 A    
C46   C66   1.376840 A    
C23   C27   1.404691 A    
C71   S7    1.800257 S    
N19   O54   1.300968 A    
C48   C52   1.400644 A    
C89   N29   1.438694 S    
Cu2   O26   1.949359 S    
C95   C99   1.399356 A    
O16   Cu8   1.949155 S    
C96   C100  1.399328 A    
C76   N20   1.468061 S    
O14   C6    1.301166 A    
Cu6   O30   1.951279 S    
C124  C128  1.384222 A    
O91   H45   0.990463 S    
S11   O128  1.503453 D    
C94   H26   1.083335 S    
C24   C28   1.404945 A    
C134  H42   1.111393 S    
C131  N35   1.466075 S    
C1    C49   1.457287 S    
O10   C6    1.301855 A    
O3    Cu3   1.971291 S    
C110  C114  1.414370 A    
C70   H22   1.103206 S    
N9    N13   1.332131 A    
O48   C144  1.281891 A    
S8    O119  1.501497 D    
N3    C44   1.358168 A    
C122  C137  1.435694 S    
N20   O56   1.301161 A    
C107  C111  1.391620 A    
S9    O122  1.500537 D    
O45   C141  1.282108 A    
C130  H38   1.112423 S    
N40   O107  1.301400 A    
N23   O61   1.301205 A    
C45   C73   1.508374 S    
C88   C103  1.473648 S    
Cu1   O17   1.973965 S    
C4    C52   1.458556 S    
C18   H2    1.083051 S    
C115  H31   1.083153 S    
C36   C40   1.404441 A    
S10   O124  1.502793 D    
O13   Cu5   1.949056 S    
C113  C117  1.408287 A    
C32   H12   1.082965 S    
O15   Cu7   1.949056 S    
Cu11  Cu12  2.657562 S    
O38   C138  1.283024 A    
S2    O93   1.502853 D    
C108  C112  1.391715 A    
C69   H21   1.105685 S    
S4    O99   1.502760 D    
O17   C9    1.295248 A    
O35   C139  1.281442 A    
N14   C102  1.357892 A    
O43   C143  1.286476 A    
C90   C94   1.400176 A    
C81   N25   1.431932 S    
S2    O94   1.677758 S    
S10   O125  1.500419 D    
N37   O102  1.301387 A    
N1    C42   1.358237 A    
C2    C50   1.446424 S    
C60   H20   1.082711 S    
C132  N36   1.466270 S    
N36   O87   1.300452 A    
C117  C121  1.406565 A    
C123  C140  1.435736 S    
S5    O110  1.501447 D    
Cu7   O31   1.951375 S    
O48   Cu9   1.974510 S    
C125  C129  1.490931 S    
Cu8   O32   1.951279 S    
N28   O72   1.301190 A    
C106  C126  1.352855 A    
C131  H39   1.112412 S    
N1    N2    1.332062 A    
N29   O74   1.301496 A    
C79   C99   1.412941 A    
N31   O77   1.301426 A    
C56   N40   1.437349 S    
O1    C1    1.300146 A    
N27   O70   1.301086 A    
C70   C74   1.542234 S    
N27   O69   1.300755 A    
C33   H13   1.083064 S    
S10   O126  1.683656 S    
Cu3   Cu7   2.689601 S    
N4    C43   1.358243 A    
O40   C140  1.282646 A    
C83   N27   1.433293 S    
C53   N37   1.436952 S    
C123  C127  1.383701 A    
O21   C9    1.293496 A    
O28   C16   1.300202 A    
C92   C96   1.399960 A    
O34   C138  1.281371 A    
C119  C123  1.407087 A    
S7    O116  1.501766 D    
C63   C143  1.442382 S    
C20   C40   1.404398 A    
O42   C142  1.288187 A    
C25   C42   1.478052 S    
O39   C139  1.283058 A    
O37   Cu10  1.976757 S    
C27   C44   1.477973 S    
O34   Cu10  1.972149 S    
Cu1   O25   1.949258 S    
C85   C89   1.416800 A    
C44   N8    1.358097 A    
O126  H54   0.990310 S    
C69   C73   1.534023 S    
N32   O79   1.301583 A    
C59   C63   1.409256 A    
C72   C76   1.538897 S    
C57   C61   1.399642 A    
S12   O130  1.503225 D    
O6    C2    1.293647 A    
S3    O97   1.677733 S    
O132  H56   0.990320 S    
N39   O106  1.301362 A    
O129  H55   0.990130 S    
N2    C41   1.358172 A    
N5    N6    1.331815 A    
C63   C67   1.389401 A    
C91   N31   1.438311 S    
C133  H41   1.111382 S    
O26   C14   1.301516 A    
C31   H11   1.082957 S    
C10   C110  1.445381 S    
C47   C67   1.353875 A    
N33   O81   1.300419 A    
S6    O113  1.501725 D    
C21   H5    1.082961 S    
C82   N26   1.437488 S    
C136  S4    1.798721 S    
C23   H7    1.082976 S    
C81   C85   1.416096 A    
S1    O89   1.502858 D    
C78   N22   1.435886 S    
C127  C131  1.490469 S    
N35   O85   1.300354 A    
Cu3   O27   1.949258 S    
C96   H28   1.083170 S    
N18   O51   1.302038 A    
Cu4   O20   1.973936 S    
C26   C30   1.405090 A    
C129  H37   1.112062 S    
O36   C140  1.281884 A    
O46   C142  1.283513 A    
S6    O114  1.681900 S    
O12   Cu4   1.951279 S    
O100  H48   0.990454 S    
N23   O62   1.300630 A    
S7    O115  1.502352 D    
C112  C116  1.414669 A    
C72   H24   1.112747 S    
C124  C139  1.435535 S    
O7    C3    1.294471 A    
C71   H23   1.112105 S    
C84   N28   1.437593 S    
N26   O67   1.301266 A    
N22   O60   1.301112 A    
N15   C103  1.356888 A    
C132  H40   1.111766 S    
N24   O63   1.301083 A    
C130  C134  1.555575 S    
C93   C97   1.399136 A    
C21   C25   1.404967 A    
C46   C74   1.505646 S    
C53   C57   1.406252 A    
C34   C38   1.404524 A    
N10   C101  1.356369 A    
C18   C22   1.397005 A    
O16   C8    1.301158 A    
C113  H29   1.083138 S    
O14   Cu6   1.949155 S    
C29   H9    1.082958 S    
N17   O49   1.302061 A    
C120  H36   1.083327 S    
C30   C34   1.397888 A    
O11   C7    1.301880 A    
C120  C124  1.406643 A    
C17   C37   1.404371 A    
O1    Cu1   1.971291 S    
O30   C14   1.301950 A    
C19   C39   1.404692 A    
S12   O132  1.681125 S    
N38   O104  1.301354 A    
O4    Cu4   1.971259 S    
Cu2   O18   1.973936 S    
C126  C130  1.490410 S    
O5    Cu5   1.973723 S    
C41   N5    1.358107 A    
O47   C143  1.281381 A    
C47   C75   1.499311 S    
O18   C10   1.295007 A    
O7    Cu7   1.973723 S    
O33   C137  1.281896 A    
O8    Cu8   1.973689 S    
C36   H16   1.083060 S    
C85   C102  1.483679 S    
C107  C127  1.352887 A    
N13   C101  1.357022 A    
O24   C12   1.293253 A    
O10   Cu2   1.951279 S    
N16   C104  1.358410 A    
N31   O78   1.301458 A    
C73   N17   1.468497 S    
C87   C104  1.482746 S    
C58   H18   1.083292 S    
S1    O91   1.677153 S    
C91   C95   1.399402 A    
C105  C109  1.392213 A    
C116  H32   1.083130 S    
N3    N4    1.332072 A    
O47   Cu10  1.974450 S    
C117  H33   1.083327 S    
C115  C119  1.408656 A    
C45   C49   1.394282 A    
C15   C99   1.480527 S    
S9    O121  1.503290 D    
C50   C54   1.419163 A    
O45   Cu12  1.974450 S    
N30   O75   1.301353 A    
C78   C98   1.414141 A    
C130  N34   1.466035 S    
O46   Cu11  1.974510 S    
N40   O108  1.301388 A    
N21   O58   1.300936 A    
C87   C91   1.415817 A    
C28   C32   1.404979 A    
O39   Cu12  1.976757 S    
C108  C128  1.353080 A    
O2    C2    1.293702 A    
C128  C132  1.490978 S    
O31   C15   1.301197 A    
O32   C16   1.300796 A    
C107  C135  1.499365 S    
C105  C133  1.499688 S    
C66   C70   1.499483 S    
O22   C10   1.293449 A    
O44   Cu10  1.971235 S    
C135  H43   1.111392 S    
C48   C76   1.512514 S    
C18   C38   1.404667 A    
C9    C109  1.446054 S    
C109  C113  1.414658 A    
N30   O76   1.301390 A    
N25   O66   1.300534 A    
O38   Cu9   1.976689 S    
Cu7   O23   1.971291 S    
C42   N6    1.358045 A    
C77   C97   1.412182 A    
Cu8   O24   1.971261 S    
C54   N38   1.438300 S    
C121  C138  1.435375 S    
C134  S2    1.798873 S    
C136  H44   1.111378 S    
C106  C110  1.391544 A    
O29   C13   1.300256 A    
C80   C100  1.412655 A    
C108  C136  1.499199 S    
O12   C8    1.301515 A    
O97   H47   0.990416 S    
C78   C82   1.412895 A    
C47   C51   1.389570 A    
N37   O101  1.301462 A    
C58   C62   1.404513 A    
C56   C60   1.405638 A    
C135  S3    1.798828 S    
C129  N33   1.466390 S    
