data_mof_unit_48425.cif
_audit_creation_date              2012-12-10T17:18:17-0500
_audit_creation_method            fapswitch 2.2
_symmetry_space_group_name_H-M    P1
_symmetry_Int_Tables_number       1
_space_group_crystal_system       triclinic
_cell_length_a                    10.166253
_cell_length_b                    10.7115
_cell_length_c                    15.00684
_cell_angle_alpha                 89.793707
_cell_angle_beta                  80.533489
_cell_angle_gamma                 95.213499
_cell_volume                      1604.97304833

loop_
_atom_site_label
_atom_site_type_symbol
_atom_type_description
_atom_site_fract_x
_atom_site_fract_y
_atom_site_fract_z
_atom_type_partial_charge
C1    C     C_R   0.556233 0.733459 0.496079 0.794992
C2    C     C_R   0.443720 0.266770 0.510456 0.825464
C3    C     C_R   0.255838 0.486033 0.980333 -0.321371
C4    C     C_R   0.744228 0.514376 0.019643 -0.321193
C5    C     C_2   0.588638 0.867540 0.504245 0.347712
C6    C     C_2   0.410703 0.133904 0.530457 0.329562
C7    C     C_2   0.492411 0.932454 0.548118 -0.213924
C8    C     C_2   0.509312 0.067233 0.547570 -0.246102
C9    C     C_2   0.926649 0.508655 0.507116 -0.027583
C10   C     C_2   0.073296 0.491147 0.493029 -0.028742
C11   C     C_R   0.499911 0.500564 0.673331 0.868679
C12   C     C_R   0.500106 0.499505 0.326667 0.891880
C13   C     C_R   0.621755 0.505910 0.171450 -0.219254
C14   C     C_R   0.378300 0.494413 0.828536 -0.219885
C15   C     C_R   0.500090 0.498540 0.230796 -0.098288
C16   C     C_R   0.499957 0.501690 0.769190 -0.092550
C17   C     C_R   0.378134 0.490943 0.198777 -0.217140
C18   C     C_R   0.621922 0.509358 0.801198 -0.222865
C19   C     C_R   0.376429 0.491989 0.106551 0.012889
C20   C     C_R   0.623634 0.508393 0.893425 0.012688
C21   C     C_R   0.499712 0.499649 0.046413 -0.008400
C22   C     C_R   0.500352 0.500761 0.953566 -0.008290
C23   C     C_R   0.622496 0.506430 0.079212 0.072165
C24   C     C_R   0.377567 0.493966 0.920769 0.071413
C25   C     C_R   0.254283 0.486699 0.073386 0.525971
C26   C     C_R   0.745782 0.513698 0.926589 0.526212
H1    H     H_    0.715974 0.512194 0.196925 0.158271
H2    H     H_    0.284076 0.488109 0.803066 0.158382
H3    H     H_    0.284620 0.484391 0.245885 0.198644
H4    H     H_    0.715432 0.515873 0.754083 0.198164
H5    H     H_    0.161738 0.479349 0.954873 0.171234
H6    H     H_    0.838329 0.521048 0.045102 0.171243
H7    H     H_    0.608606 0.111810 0.551586 0.198310
H8    H     H_    0.393771 0.887241 0.575326 0.177710
H9    H     H_    0.113532 0.425214 0.443569 0.150083
H10   H     H_    0.886392 0.574487 0.556648 0.149377
N1    N     N_2   0.842700 0.448880 0.462930 -0.062642
N2    N     N_2   0.157300 0.551120 0.537070 -0.059175
O1    O     O_R   0.431060 0.692470 0.507460 -0.623252
O2    O     O_R   0.568940 0.307530 0.492540 -0.629435
O3    O     O_R   0.651120 0.659650 0.483670 -0.590655
O4    O     O_R   0.348880 0.340350 0.516330 -0.595505
O5    O     O_R   0.389960 0.516440 0.644050 -0.623014
O6    O     O_R   0.610040 0.483560 0.355950 -0.616636
O7    O     O_R   0.610030 0.483620 0.620260 -0.626025
O8    O     O_R   0.389970 0.516380 0.379740 -0.617070
Zn1   Zn    Zn3+2 0.353060 0.521920 0.515880 0.952335
Zn2   Zn    Zn3+2 0.646940 0.478080 0.484120 0.950757
O9    O     O_3   0.133131 0.473523 0.131603 -0.617331
C27   C     C_3   0.082507 0.591823 0.141472 -0.369831
H11   H     H_    0.152204 0.660576 0.170306 0.173688
H12   H     H_    0.986437 0.581680 0.189329 0.191884
H13   H     H_    0.061610 0.628206 0.076154 0.176747
O10   O     O_3   0.866936 0.526851 0.868369 -0.617434
C28   C     C_3   0.917487 0.408521 0.858447 -0.375170
H14   H     H_    0.013545 0.418645 0.810566 0.190762
H15   H     H_    0.847737 0.339829 0.829604 0.171090
H16   H     H_    0.938397 0.372068 0.923745 0.178255
O11   O     O_3   0.285674 0.076980 0.521442 -0.589666
C29   C     C_3   0.199420 0.083320 0.604776 -0.307714
H17   H     H_    0.182732 0.181977 0.622673 0.172689
H18   H     H_    0.237962 0.036003 0.660108 0.149694
H19   H     H_    0.100795 0.033631 0.598662 0.202199
O12   O     O_3   0.715839 0.925371 0.472857 -0.598966
C30   C     C_3   0.744055 0.916164 0.378015 -0.299023
H20   H     H_    0.663228 0.950664 0.345133 0.155264
H21   H     H_    0.761324 0.818611 0.357486 0.171704
H22   H     H_    0.837594 0.976334 0.352861 0.195965
C31   C     C_3   0.113753 0.640314 0.605615 -0.629517
H23   H     H_    0.201375 0.680244 0.634825 0.233066
H24   H     H_    0.070697 0.718919 0.575431 0.198823
H25   H     H_    0.040121 0.593058 0.661228 0.200825
C32   C     C_3   0.886289 0.359712 0.394382 -0.623618
H26   H     H_    0.798703 0.319837 0.365113 0.241000
H27   H     H_    0.960010 0.406971 0.338818 0.201750
H28   H     H_    0.929258 0.281067 0.424586 0.197722

loop_
_geom_bond_atom_site_label_1
_geom_bond_atom_site_label_2
_ccdc_geom_bond_type
C31   H25   S    
C27   H12   S    
C28   H14   S    
O8    Zn1   S    
C11   O5    A    
C10   H9    S    
C18   H4    S    
C9    H10   S    
C17   H3    S    
C32   H26   S    
O10   C28   S    
C4    C26   A    
C12   C15   S    
C10   N2    D    
C30   H22   S    
O12   C30   S    
C9    N1    D    
C27   H11   S    
N2    Zn1   S    
N2    C31   S    
O11   C29   S    
C12   O6    A    
O6    Zn2   S    
C4    H6    S    
C21   C22   A    
N1    Zn2   S    
C3    H5    S    
C32   H27   S    
C3    C24   A    
C2    C6    S    
C20   C26   A    
C2    O4    A    
C29   H19   S    
C1    C5    S    
C26   O10   S    
C6    O11   S    
C29   H18   S    
C19   C21   A    
O3    Zn2   S    
C20   C22   A    
C30   H20   S    
C22   C24   A    
O4    Zn1   S    
C28   H15   S    
C13   C15   A    
C31   H23   S    
C19   C25   A    
C32   H28   S    
C14   C16   A    
C11   O7    A    
C27   H13   S    
C31   H24   S    
C1    O1    A    
C17   C19   A    
C2    O2    A    
C3    C25   A    
C7    H8    S    
C13   C23   A    
C18   C20   A    
C16   C18   A    
O9    C27   S    
C9    C10   S    
C28   H16   S    
C14   C24   A    
C5    C7    D    
C7    C8    S    
N1    C32   S    
O2    Zn2   S    
C13   H1    S    
C12   O8    A    
C6    C8    D    
O7    Zn2   S    
C29   H17   S    
C14   H2    S    
C4    C23   A    
C15   C17   A    
O1    Zn1   S    
O5    Zn1   S    
C21   C23   A    
C11   C16   S    
C1    O3    A    
C5    O12   S    
C8    H7    S    
C30   H21   S    
C25   O9    S    
