data_mof_unit_33038.cif
_audit_creation_date              2012-12-10T17:11:02-0500
_audit_creation_method            fapswitch 2.2
_symmetry_space_group_name_H-M    P1
_symmetry_Int_Tables_number       1
_space_group_crystal_system       triclinic
_cell_length_a                    10.069396
_cell_length_b                    10.663188
_cell_length_c                    16.648682
_cell_angle_alpha                 90.729901
_cell_angle_beta                  84.246868
_cell_angle_gamma                 88.609974
_cell_volume                      1777.86571744

loop_
_atom_site_label
_atom_site_type_symbol
_atom_type_description
_atom_site_fract_x
_atom_site_fract_y
_atom_site_fract_z
_atom_type_partial_charge
C1    C     C_R   0.497581 0.737117 0.506172 0.937762
C2    C     C_R   0.531233 0.515917 0.259701 -0.039555
C3    C     C_2   0.594734 0.066511 0.527089 -0.250915
C4    C     C_R   0.480482 0.502717 0.653008 0.870987
C5    C     C_2   0.511784 0.130396 0.483090 -0.160753
C6    C     C_2   0.602798 0.931745 0.525918 -0.108895
C7    C     C_2   0.491104 0.868439 0.522862 -0.302195
C8    C     C_2   0.083502 0.425994 0.454528 0.048451
C9    C     C_2   0.935923 0.441502 0.445857 -0.087432
C10   C     C_R   0.502229 0.262553 0.496626 0.857601
C11   C     C_R   0.519453 0.500663 0.346610 0.878471
C12   C     C_R   0.376912 0.473119 0.792701 0.462881
C13   C     C_R   0.465620 0.536243 0.737619 -0.136195
C14   C     C_R   0.531737 0.642356 0.761624 -0.250526
C15   C     C_R   0.509738 0.686452 0.840433 -0.217108
C16   C     C_R   0.421124 0.624796 0.895477 -0.008080
C17   C     C_R   0.353554 0.519285 0.871670 -0.273386
C18   C     C_2   0.447758 0.077443 0.413353 0.901860
C19   C     C_3   0.111685 0.649384 0.597919 0.180144
C20   C     C_3   0.064062 0.561885 0.667247 -0.403440
C21   C     C_3   0.088310 0.620113 0.748673 -0.909681
C22   C     C_3   0.388064 0.261568 0.773690 0.061030
C23   C     C_R   0.424499 0.515000 0.136625 -0.080386
C24   C     C_3   0.320717 0.151269 0.736169 -0.305503
C25   C     C_3   0.402661 0.029513 0.740240 -0.984731
C26   C     C_3   0.215381 0.764160 0.991125 0.094625
C27   C     C_3   0.268009 0.897420 0.979540 -0.355134
C28   C     C_3   0.171425 0.980278 0.937460 -0.968575
C29   C     C_R   0.424458 0.482723 0.216804 -0.216632
C30   C     C_R   0.641447 0.576168 0.220590 -0.184515
C31   C     C_R   0.640904 0.609343 0.140065 -0.185295
C32   C     C_R   0.530036 0.583208 0.099003 0.225371
C33   C     C_2   0.419884 0.652982 0.981692 0.471717
C34   C     C_2   0.530762 0.615876 0.014271 -0.338102
H1    H     H_    0.598858 0.692194 0.718926 0.164200
H2    H     H_    0.724912 0.602246 0.253004 0.166582
H3    H     H_    0.622377 0.593851 0.975696 0.126786
H4    H     H_    0.287195 0.470166 0.915149 0.155647
H5    H     H_    0.342130 0.486356 0.104092 0.158018
H6    H     H_    0.564201 0.766270 0.859277 0.139057
H7    H     H_    0.458566 0.953414 0.320125 0.345001
H8    H     H_    0.058992 0.741492 0.609851 0.125339
H9    H     H_    0.217520 0.669059 0.599878 0.184963
H10   H     H_    0.955558 0.546405 0.669008 0.199218
H11   H     H_    0.117728 0.469657 0.659470 0.262517
H12   H     H_    0.725048 0.657932 0.110417 0.135992
H13   H     H_    0.193328 0.649329 0.748395 0.266481
H14   H     H_    0.066692 0.550969 0.797260 0.279596
H15   H     H_    0.021732 0.703969 0.761963 0.242816
H16   H     H_    0.399512 0.240937 0.838124 0.141293
H17   H     H_    0.488824 0.271735 0.740204 0.121106
H18   H     H_    0.220043 0.139155 0.768700 0.225866
H19   H     H_    0.308632 0.171561 0.671907 0.228917
H20   H     H_    0.502823 0.038566 0.706585 0.266507
H21   H     H_    0.350853 0.951497 0.712701 0.265192
H22   H     H_    0.414684 0.006258 0.803978 0.270519
H23   H     H_    0.653146 0.114333 0.569130 0.160459
H24   H     H_    0.119248 0.770856 0.030166 0.163899
H25   H     H_    0.190992 0.722128 0.933095 0.141617
H26   H     H_    0.281937 0.939632 0.039395 0.235467
H27   H     H_    0.366100 0.894405 0.942516 0.207260
H28   H     H_    0.158393 0.940823 0.876744 0.269093
H29   H     H_    0.211977 0.075830 0.930128 0.268316
H30   H     H_    0.072829 0.987513 0.973886 0.266515
H31   H     H_    0.700304 0.885886 0.526052 0.182735
H32   H     H_    0.393370 0.915335 0.529352 0.147741
H33   H     H_    0.138529 0.351160 0.420054 0.122575
H34   H     H_    0.897998 0.399007 0.393494 0.139498
H35   H     H_    0.883624 0.517298 0.554267 0.209626
H36   H     H_    0.339859 0.433839 0.245686 0.162417
N1    N     N_2   0.147950 0.498670 0.499150 0.067023
N2    N     N_2   0.852290 0.498640 0.499130 -0.173823
O1    O     O_R   0.386960 0.680940 0.500010 -0.622261
O2    O     O_R   0.511612 0.980372 0.365739 -0.783754
O3    O     O_3   0.082101 0.608241 0.520574 -0.574937
O4    O     O_3   0.307654 0.371062 0.768674 -0.647136
O5    O     O_3   0.303924 0.687186 0.031104 -0.648804
O6    O     O_R   0.613100 0.680900 0.499990 -0.602248
O7    O     O_R   0.373570 0.500040 0.615810 -0.614159
O8    O     O_R   0.599710 0.500000 0.615790 -0.635771
O9    O     O_R   0.386900 0.319100 0.500010 -0.598208
O10   O     O_R   0.613040 0.319060 0.499990 -0.615053
O11   O     O_R   0.400290 0.500000 0.384210 -0.601217
O12   O     O_R   0.626430 0.499960 0.384190 -0.614677
O13   O     O_2   0.341617 0.122152 0.395831 -0.644005
Zn1   Zn    Zn3+2 0.349000 0.500030 0.500020 0.991882
Zn2   Zn    Zn3+2 0.651000 0.499970 0.499980 0.944449

loop_
_geom_bond_atom_site_label_1
_geom_bond_atom_site_label_2
_ccdc_geom_bond_type
O6    Zn2   S    
C24   H18   S    
C34   H3    S    
C19   C20   S    
C9    N2    D    
C22   O4    S    
C3    C6    S    
C21   H15   S    
C12   C13   A    
C26   C27   S    
C2    C29   A    
C23   C29   A    
C4    O8    A    
O8    Zn2   S    
C27   H26   S    
C30   C31   A    
C25   H22   S    
O10   Zn2   S    
C4    C13   S    
C27   H27   S    
H7    O2    S    
C6    H31   S    
C8    C9    S    
C31   H12   S    
C12   C17   A    
O12   Zn2   S    
C26   H25   S    
O9    Zn1   S    
C19   H8    S    
C22   H16   S    
C21   H14   S    
C18   O2    S    
C13   C14   A    
C1    O6    A    
C2    C11   S    
C20   H10   S    
C19   H9    S    
O1    Zn1   S    
C18   O13   D    
C26   O5    S    
C25   H20   S    
C4    O7    A    
C20   H11   S    
C14   H1    S    
C16   C17   A    
C5    C18   S    
C11   O11   A    
C24   H19   S    
C10   O10   A    
C32   C34   S    
H35   N2    S    
C16   C33   S    
N1    Zn1   S    
C31   C32   A    
C33   C34   D    
C24   C25   S    
C26   H24   S    
C28   H30   S    
C12   O4    S    
C22   C24   S    
C3    H23   S    
N2    Zn2   S    
C29   H36   S    
C8    N1    D    
C1    C7    S    
C25   H21   S    
C3    C5    D    
C6    C7    D    
C11   O12   A    
C10   O9    A    
C30   H2    S    
C2    C30   A    
C1    O1    A    
C23   C32   A    
C19   O3    S    
C9    H34   S    
C5    C10   S    
C7    H32   S    
N1    O3    S    
C33   O5    S    
C23   H5    S    
C17   H4    S    
C15   H6    S    
C28   H29   S    
O11   Zn1   S    
C20   C21   S    
C8    H33   S    
C27   C28   S    
C14   C15   A    
O7    Zn1   S    
C15   C16   A    
C22   H17   S    
C21   H13   S    
C28   H28   S    
