data_mof_unit_67311.cif
_audit_creation_date              2013-03-05T16:02:55-0500
_audit_creation_method            fapswitch 2.2
_symmetry_space_group_name_H-M    P1
_symmetry_Int_Tables_number       1
_space_group_crystal_system       triclinic
_cell_length_a                    8.75654
_cell_length_b                    14.603995
_cell_length_c                    17.396396
_cell_angle_alpha                 97.579823
_cell_angle_beta                  97.780638
_cell_angle_gamma                 92.703187
_cell_volume                      2180.12500786

loop_
_atom_site_label
_atom_site_type_symbol
_atom_site_description
_atom_site_fract_x
_atom_site_fract_y
_atom_site_fract_z
_atom_type_partial_charge
P1    P     P_3+3 0.017810 0.410420 0.324030 0.509533
O1    O     O_2   0.840370 0.437300 0.310630 -0.300134
O2    O     O_3   0.112450 0.444030 0.408320 -0.204482
O3    O     O_3   0.597270 0.610320 0.351390 -0.261254
O4    O     O_2   0.574053 0.484878 0.224048 -0.344000
O5    O     O_3   0.011492 0.289591 0.287503 -0.536536
O6    O     O_3   0.592283 0.654799 0.193687 -0.328921
C1    C     C_3   0.586158 0.802025 0.145662 0.631038
P2    P     P_3+3 0.635890 0.718430 0.552520 0.396272
P3    P     P_3+3 0.059369 0.782358 0.405644 0.501669
O7    O     O_2   0.802370 0.730760 0.528330 -0.223160
O8    O     O_3   0.016680 0.660770 0.388810 -0.295732
O9    O     O_2   0.939783 0.826837 0.453707 -0.292808
O10   O     O_3   0.690746 0.739047 0.654879 -0.628293
O11   O     O_3   0.018005 0.831784 0.319129 -0.606765
C2    C     C_3   0.032363 0.768280 0.252984 1.009291
C3    C     C_3   0.057523 0.824171 0.186397 0.017501
C4    C     C_3   0.058922 0.752277 0.687564 0.921362
H1    H     H_    0.958042 0.701222 0.673044 0.147229
C5    C     C_3   0.052421 0.800843 0.770510 -1.185832
Ba1   Ba    Ba6+2 0.833220 0.541860 0.459910 -0.251545
C6    C     C_3   0.872052 0.240184 0.295481 1.026947
C7    C     C_3   0.852988 0.135458 0.255515 1.757923
C8    C     C_3   0.565085 0.760363 0.695766 1.074228
C9    C     C_3   0.574707 0.864264 0.728175 -0.183993
P4    P     P_3+3 0.171880 0.589650 0.675980 0.472174
O12   O     O_2   0.349330 0.562730 0.689420 -0.158852
O13   O     O_3   0.077250 0.556050 0.591680 -0.375952
O14   O     O_3   0.592420 0.389760 0.648620 -0.303874
O15   O     O_3   0.199949 0.709847 0.683903 -0.503083
P5    P     P_3+3 0.132296 0.221677 0.615998 0.556195
O16   O     O_3   0.628930 0.385070 0.464840 -0.212903
O17   O     O_3   0.173020 0.339310 0.611190 -0.345757
O18   O     O_2   0.237410 0.169793 0.563385 -0.313212
O19   O     O_3   0.208049 0.200560 0.709477 -0.424979
Ba2   Ba    Ba6+2 0.356600 0.458220 0.540090 0.246412
P6    P     P_3+3 0.518894 0.580798 0.253186 0.359321
C10   C     C_3   0.571552 0.749637 0.216515 0.729950
O20   O     O_3   0.560770 0.615000 0.535160 -0.129459
C11   C     C_3   0.405034 0.183580 0.305951 1.311715
C12   C     C_3   0.411592 0.133979 0.217839 0.595525
P7    P     P_3+3 0.556992 0.264296 0.448317 0.712302
O21   O     O_2   0.387340 0.269270 0.471720 -0.248828
O22   O     O_3   0.553391 0.217844 0.346568 -0.495325
H2    H     H_    0.959524 0.869176 0.179802 0.138984
C13   C     C_3   0.149757 0.263588 0.764678 0.322443
H3    H     H_    0.195567 0.335370 0.762276 0.047790
C14   C     C_3   0.202229 0.239486 0.846165 0.272613
P8    P     P_3+3 0.645279 0.422439 0.751586 0.108528
C15   C     C_3   0.638328 0.260330 0.804596 0.515749
O23   O     O_2   0.552475 0.506528 0.771683 -0.161434
O24   O     O_3   0.563787 0.344340 0.805819 -0.299316
C16   C     C_3   0.688318 0.243281 0.890664 0.850999
C17   C     C_2   0.219677 0.533631 0.282173 -0.280825
C18   C     C_3   0.308023 0.583923 0.230910 0.313480
C19   C     C_2   0.259518 0.558438 0.144349 -0.158501
C20   C     C_2   0.151976 0.489353 0.115766 0.120348
C21   C     C_2   0.083243 0.438393 0.174076 -0.377876
C22   C     C_1   0.113358 0.466799 0.251697 0.189149
C23   C     C_R   0.920337 0.463207 0.862532 -0.468708
C24   C     C_R   0.845626 0.470874 0.787391 0.347645
C25   C     C_R   0.077417 0.545092 0.755568 0.001260
C26   C     C_R   0.156005 0.535892 0.830856 0.499488
C27   C     C_R   0.076500 0.496493 0.886948 0.031597
C28   C     C_2   0.079396 0.478730 0.031098 -0.146024
C29   C     C_2   0.157394 0.491458 0.969800 0.435387
C30   C     C_R   0.920116 0.520784 0.739104 -0.511059
H4    H     H_    0.241996 0.557528 0.344584 0.234644
C31   C     C_R   0.704497 0.942318 0.549233 -0.157847
C32   C     C_R   0.514959 0.803578 0.508931 0.207112
C33   C     C_R   0.366319 0.768631 0.473915 -0.395242
C34   C     C_R   0.253415 0.828073 0.453756 0.295545
C35   C     C_R   0.289953 0.923569 0.466322 -0.506101
C36   C     C_R   0.442220 0.960123 0.492121 0.074899
C37   C     C_R   0.556575 0.900967 0.516480 0.006349
C38   C     C_R   0.630453 0.095081 0.517697 -0.538749
C39   C     C_R   0.741190 0.038895 0.551773 0.086862
C40   C     C_R   0.672589 0.190067 0.512499 0.410422
C41   C     C_R   0.819745 0.227753 0.547493 0.191036
C42   C     C_R   0.927880 0.173711 0.584268 -0.006456
C43   C     C_R   0.886415 0.080706 0.588975 0.350051
C44   C     C_R   0.479965 0.055131 0.493569 0.138991
H5    H     H_    0.791683 0.899985 0.572935 0.237463
H6    H     H_    0.667693 0.776083 0.264098 0.100054
H7    H     H_    0.157007 0.847075 0.792762 0.296990
H8    H     H_    0.950002 0.842604 0.770680 0.265311
H9    H     H_    0.043315 0.748988 0.811106 0.220255
O25   O     O_3   0.742141 0.283115 0.260682 -0.534519
C45   C     C_3   0.753562 0.303537 0.183294 1.313319
H10   H     H_    0.813299 0.252276 0.148029 -2.844350
H11   H     H_    0.637354 0.310385 0.151578 0.600467
H12   H     H_    0.805861 0.372963 0.182940 0.194917
O26   O     O_3   0.867987 0.241770 0.376741 -0.694383
C46   C     C_3   0.012743 0.219002 0.415979 1.433057
H13   H     H_    0.067584 0.279133 0.457365 0.187591
H14   H     H_    0.100850 0.199499 0.378723 -1.055799
H15   H     H_    0.994662 0.157804 0.445435 -1.006727
O27   O     O_3   0.935555 0.124996 0.191089 -0.574072
C47   C     C_3   0.891241 0.041731 0.140063 -0.228289
H16   H     H_    0.813548 0.992402 0.162443 0.221503
H17   H     H_    0.996958 0.006909 0.128537 0.220492
H18   H     H_    0.834441 0.058175 0.083085 0.204785
H19   H     H_    0.729585 0.120309 0.233505 -2.265356
O28   O     O_3   0.902410 0.072509 0.308125 -0.708476
C48   C     C_3   0.778135 0.024546 0.332599 -0.148112
H20   H     H_    0.716955 0.974966 0.283333 0.200266
H21   H     H_    0.697141 0.072560 0.357171 0.245663
H22   H     H_    0.824707 0.984449 0.379377 0.243073
O29   O     O_3   0.558070 0.704839 0.756559 -0.538894
C49   C     C_3   0.700986 0.705636 0.805602 -0.377597
H23   H     H_    0.791187 0.677737 0.772389 0.230491
H24   H     H_    0.687209 0.659914 0.850550 0.254702
H25   H     H_    0.739162 0.775243 0.837863 0.120946
H26   H     H_    0.454651 0.744867 0.656303 0.028624
H27   H     H_    0.611392 0.876050 0.171078 -0.005089
H28   H     H_    0.687394 0.886289 0.765032 0.086380
O30   O     O_3   0.445162 0.887453 0.765618 -0.601993
C50   C     C_3   0.478887 0.893347 0.847816 -0.006603
H29   H     H_    0.382256 0.925052 0.874325 0.263801
H30   H     H_    0.584460 0.937493 0.872430 0.207783
H31   H     H_    0.489418 0.824059 0.865970 0.164006
H32   H     H_    0.571616 0.903791 0.677983 0.085785
O31   O     O_3   0.426236 0.764221 0.241492 -0.566453
C51   C     C_3   0.438893 0.843634 0.298187 -0.544303
H33   H     H_    0.472397 0.906508 0.273549 0.177409
H34   H     H_    0.521359 0.835517 0.350870 0.246368
H35   H     H_    0.325271 0.853707 0.316780 0.210756
O32   O     O_3   0.445880 0.791204 0.092520 -0.606054
C52   C     C_3   0.433733 0.867089 0.049873 0.052973
H36   H     H_    0.392111 0.926687 0.085915 0.137089
H37   H     H_    0.348313 0.847189 0.996452 0.190961
H38   H     H_    0.544478 0.888293 0.030331 0.130727
O33   O     O_3   0.351108 0.118214 0.351260 -0.661400
C53   C     C_3   0.226282 0.058076 0.313642 -0.125178
H39   H     H_    0.266354 0.997767 0.279083 0.088889
H40   H     H_    0.146568 0.094078 0.277063 0.288354
H41   H     H_    0.161713 0.033726 0.357453 0.245071
O34   O     O_3   0.306121 0.257239 0.304718 -0.461325
C54   C     C_3   0.378385 0.338581 0.285616 -0.207456
H42   H     H_    0.322562 0.353524 0.228575 0.173513
H43   H     H_    0.500962 0.336914 0.278923 0.264870
H44   H     H_    0.370570 0.396212 0.332732 0.257029
H45   H     H_    0.459706 0.066265 0.226799 0.095467
O35   O     O_3   0.263201 0.113689 0.171626 -0.486114
C55   C     C_3   0.204516 0.189323 0.136006 -0.591182
H46   H     H_    0.144506 0.233709 0.176445 0.336617
H47   H     H_    0.117034 0.161131 0.085348 0.262857
H48   H     H_    0.290432 0.232895 0.113252 0.232529
O36   O     O_3   0.510885 0.178849 0.175641 -0.452600
C56   C     C_3   0.529709 0.120638 0.105500 -0.239953
H49   H     H_    0.610432 0.156089 0.073541 0.331632
H50   H     H_    0.420448 0.104931 0.064593 0.179064
H51   H     H_    0.577214 0.054390 0.117992 0.259865
O37   O     O_3   0.715959 0.774528 0.109255 -0.615697
C57   C     C_3   0.678581 0.707534 0.041892 0.589080
H52   H     H_    0.585435 0.655221 0.047190 0.119129
H53   H     H_    0.782683 0.669779 0.031995 -1.068740
H54   H     H_    0.648144 0.742956 0.989974 0.040085
H55   H     H_    0.021281 0.260464 0.754527 -0.011342
H56   H     H_    0.329905 0.251828 0.858797 0.102928
H57   H     H_    0.148156 0.285709 0.889304 0.022297
O38   O     O_3   0.156790 0.146231 0.849036 -0.547551
C58   C     C_3   0.232511 0.118174 0.917852 -0.222252
H58   H     H_    0.223320 0.168723 0.970345 0.116080
H59   H     H_    0.355866 0.108130 0.912576 0.180319
H60   H     H_    0.177249 0.050862 0.926009 0.141977
H61   H     H_    0.745282 0.261676 0.775906 -0.041449
O39   O     O_3   0.528253 0.187920 0.768473 -0.556466
C59   C     C_3   0.547242 0.161234 0.690013 -0.134859
H62   H     H_    0.663959 0.136809 0.685885 0.068241
H63   H     H_    0.524798 0.218711 0.655103 0.236556
H64   H     H_    0.462838 0.102302 0.665065 0.232986
O40   O     O_3   0.845334 0.274184 0.915748 -0.636964
C60   C     C_3   0.883351 0.272632 0.996898 -0.460479
H65   H     H_    0.818904 0.323964 0.030351 0.211559
H66   H     H_    0.008606 0.291299 0.013602 0.216252
H67   H     H_    0.862151 0.202570 0.013108 0.277132
O41   O     O_3   0.659680 0.149204 0.901105 -0.508465
C61   C     C_3   0.762641 0.089946 0.866839 -0.538030
H68   H     H_    0.795242 0.038269 0.906405 0.206400
H69   H     H_    0.872256 0.124696 0.857722 0.253168
H70   H     H_    0.703929 0.053316 0.810012 0.231253
O42   O     O_3   0.891008 0.715150 0.231633 -0.607401
C62   C     C_3   0.909489 0.624987 0.197185 -0.180196
H71   H     H_    0.010696 0.621380 0.167282 0.187172
H72   H     H_    0.813580 0.600321 0.150050 0.253940
H73   H     H_    0.906889 0.579010 0.242283 0.247824
H74   H     H_    0.614070 0.284527 0.927469 -0.037256
O43   O     O_3   0.315908 0.510709 0.986129 -0.570049
C63   C     C_3   0.390177 0.428178 0.971860 -0.273663
H75   H     H_    0.514743 0.442013 0.994932 0.227645
H76   H     H_    0.380944 0.405838 0.907941 0.193921
H77   H     H_    0.344615 0.372263 0.002103 0.126780
H78   H     H_    0.034209 0.369227 0.152575 0.175165
H79   H     H_    0.853325 0.433538 0.901406 0.223561
H80   H     H_    0.955487 0.465567 0.021434 0.128287
H81   H     H_    0.300277 0.605322 0.107011 0.213492
O44   O     O_3   0.310258 0.564362 0.849215 -0.533750
C64   C     C_3   0.322696 0.658379 0.881485 -0.043086
H82   H     H_    0.250447 0.673520 0.929046 0.137932
H83   H     H_    0.294457 0.702373 0.835116 0.139507
H84   H     H_    0.443808 0.676532 0.907459 0.151241
H85   H     H_    0.855528 0.538148 0.686204 0.203647
H86   H     H_    0.335489 0.694978 0.465778 0.235442
H87   H     H_    0.133839 0.726391 0.264910 -0.003853
H88   H     H_    0.198011 0.969004 0.457146 0.224224
O45   O     O_3   0.988243 0.031967 0.632360 -0.478670
C65   C     C_3   0.942539 0.033136 0.707020 -0.396160
H89   H     H_    0.836770 0.987455 0.704073 0.159280
H90   H     H_    0.923955 0.104385 0.733384 0.194917
H91   H     H_    0.034794 0.006763 0.746568 0.256237
O46   O     O_3   0.868585 0.313490 0.532337 -0.379596
C66   C     C_3   0.866065 0.378605 0.598120 -1.279146
H92   H     H_    0.856326 0.349171 0.653330 0.523736
H93   H     H_    0.783448 0.430221 0.583827 0.435279
H94   H     H_    0.971997 0.420745 0.609303 0.829833
H95   H     H_    0.389602 0.098234 0.477926 0.230620
H96   H     H_    0.165821 0.868606 0.202538 0.100670
O47   O     O_3   0.065929 0.765163 0.116099 -0.431683
C67   C     C_3   0.048925 0.816439 0.052449 -0.280689
H97   H     H_    0.928458 0.836331 0.039443 0.197296
H98   H     H_    0.076204 0.772616 0.999656 0.198749
H99   H     H_    0.127417 0.880098 0.063425 0.137503
O48   O     O_3   0.036636 0.815225 0.632283 -0.520163
C68   C     C_3   0.170958 0.872036 0.631461 -0.137647
H100  H     H_    0.204696 0.918008 0.687501 0.237585
H101  H     H_    0.145724 0.916684 0.585759 0.247412
H102  H     H_    0.267767 0.831763 0.614991 0.171219

loop_
_geom_bond_atom_site_label_1
_geom_bond_atom_site_label_2
_geom_bond_distance
_ccdc_geom_bond_type
C35   H88   1.075862 S    
C5    H9    1.108702 S    
C8    H26   1.102841 S    
C63   H75   1.109496 S    
O4    P6    1.547676 D    
C57   H53   1.108823 S    
O30   C50   1.410731 S    
C59   H62   1.106547 S    
C17   C18   1.496385 S    
C31   C39   1.425275 A    
C58   H58   1.110422 S    
C18   C19   1.500193 S    
O48   C68   1.409835 S    
O17   Ba2   2.823361 S    
C53   H41   1.093714 S    
C67   H98   1.108543 S    
C55   H46   1.096880 S    
C2    O42   1.407484 S    
C16   O40   1.418294 S    
O31   C51   1.409452 S    
Ba1   Ba2   4.732959 S    
O14   P8    1.783169 S    
C66   H92   1.114528 S    
C19   C20   1.342839 D    
P1    Ba1   3.466280 S    
C48   H21   1.107841 S    
O14   Ba2   2.909540 S    
P4    O12   1.614672 D    
O26   C46   1.431284 S    
P7    O22   1.805656 S    
C25   C30   1.387641 A    
O16   Ba2   3.042722 S    
C58   H59   1.111277 S    
C16   H74   1.115071 S    
C38   C40   1.436106 A    
O38   C58   1.407404 S    
P3    O11   1.755290 S    
P1    C22   1.858703 S    
C42   C43   1.405090 A    
C54   H44   1.106114 S    
C12   O36   1.403651 S    
C3    H2    1.108143 S    
O11   C2    1.403055 S    
O5    C6    1.421241 S    
C29   O43   1.386274 S    
P2    O20   1.592993 S    
C68   H102  1.102262 S    
C62   H71   1.086637 S    
P1    O1    1.614378 D    
C35   C36   1.404212 A    
O10   C8    1.414011 S    
C50   H29   1.108742 S    
C67   H97   1.109034 S    
C63   H77   1.114563 S    
C60   H65   1.110332 S    
C1    O32   1.422729 S    
C7    H19   1.098311 S    
C7    O28   1.422082 S    
C63   H76   1.107652 S    
C65   H89   1.106940 S    
P8    O23   1.532480 D    
C56   H51   1.106912 S    
C11   O34   1.413061 S    
C64   H84   1.100588 S    
C15   O24   1.415681 S    
P5    O17   1.753158 S    
C32   C33   1.402242 A    
C4    O15   1.412827 S    
C6    O25   1.426381 S    
C45   H11   1.105450 S    
C4    O48   1.416802 S    
C9    H32   1.106534 S    
C10   O31   1.415694 S    
C1    H27   1.112619 S    
C43   O45   1.375019 S    
C61   H70   1.106665 S    
O25   C45   1.432116 S    
C64   H82   1.113718 S    
O46   C66   1.391446 S    
C12   H45   1.114404 S    
O32   C52   1.412996 S    
C57   H54   1.107019 S    
C59   H63   1.108936 S    
C33   H86   1.082580 S    
C1    C10   1.550225 S    
C36   C44   1.407218 A    
C52   H38   1.113813 S    
O28   C48   1.410085 S    
C55   H47   1.106656 S    
O41   C61   1.414251 S    
C50   H30   1.103353 S    
C17   C22   1.320815 D    
C66   H93   1.097985 S    
C49   H24   1.107944 S    
C41   O46   1.373781 S    
C48   H22   1.108968 S    
C13   C14   1.521524 S    
C57   H52   1.112459 S    
C15   C16   1.557756 S    
P8    C24   1.853888 S    
C36   C37   1.411354 A    
O45   C65   1.408166 S    
P5    C42   1.873920 S    
C58   H60   1.109585 S    
C38   C39   1.418699 A    
C12   O35   1.428473 S    
C2    H87   1.114306 S    
C9    H28   1.110223 S    
C38   C44   1.402208 A    
O47   C67   1.411953 S    
C40   C41   1.402230 A    
C4    H1    1.108083 S    
C53   H40   1.082234 S    
C14   H57   1.111652 S    
C46   H15   1.102653 S    
C21   C22   1.345540 D    
O40   C60   1.409307 S    
O8    Ba1   2.822731 S    
O7    Ba1   2.896756 S    
C49   H23   1.102503 S    
C5    H8    1.108197 S    
C23   C24   1.401141 A    
P1    O2    1.587636 S    
C50   H31   1.103338 S    
C27   C29   1.530049 S    
P2    O10   1.762252 S    
O42   C62   1.399035 S    
C25   C26   1.420615 A    
C31   H5    1.077781 S    
C56   H50   1.107377 S    
C14   H56   1.111182 S    
C24   C30   1.388313 A    
C47   H16   1.110350 S    
C49   H25   1.107574 S    
C39   C43   1.417211 A    
P8    O24   1.757728 S    
C5    H7    1.105052 S    
C47   H18   1.108206 S    
O1    Ba1   2.843691 S    
C68   H100  1.104118 S    
O6    P6    1.749856 S    
P5    O18   1.539479 D    
O35   C55   1.419853 S    
C8    C9    1.541677 S    
C45   H12   1.093783 S    
C46   H14   1.097197 S    
P2    O7    1.579872 D    
C60   H67   1.110527 S    
O37   C57   1.414607 S    
O44   C64   1.406489 S    
C61   H68   1.108598 S    
P3    O8    1.774566 S    
C51   H35   1.097533 S    
P4    Ba2   3.466993 S    
O39   C59   1.403494 S    
C47   H17   1.106130 S    
Ba1   O13   2.893177 S    
P4    O15   1.745561 S    
C15   O39   1.416603 S    
O33   C53   1.399462 S    
C6    O26   1.416067 S    
P5    O19   1.743329 S    
C41   C42   1.403010 A    
O2    Ba1   3.067657 S    
P7    O21   1.595011 D    
C32   C37   1.435888 A    
C55   H48   1.108838 S    
C1    O37   1.423069 S    
C51   H34   1.110421 S    
C19   H81   1.084038 S    
C48   H20   1.105079 S    
C66   H94   1.068987 S    
C9    O30   1.415585 S    
O43   C63   1.405690 S    
C13   H3    1.112660 S    
C11   C12   1.616284 S    
P2    C32   1.843421 S    
P1    O5    1.790555 S    
C10   H6    1.113289 S    
C6    C7    1.585673 S    
Ba1   O20   3.043576 S    
Ba2   O20   2.855382 S    
C8    O29   1.420878 S    
C20   C28   1.508118 S    
C34   C35   1.397744 A    
P3    O9    1.541271 D    
C3    O47   1.412764 S    
C54   H42   1.098678 S    
C62   H73   1.099653 S    
P7    C40   1.887644 S    
C53   H39   1.098571 S    
O12   Ba2   2.844302 S    
C11   O33   1.418562 S    
P4    O13   1.587721 S    
C62   H72   1.102053 S    
C26   O44   1.376409 S    
C23   C27   1.418525 A    
C28   H80   1.079301 S    
C52   H36   1.109663 S    
C33   C34   1.386136 A    
Ba1   O16   2.856118 S    
O3    Ba1   2.910163 S    
C54   H43   1.096265 S    
P2    Ba1   3.508374 S    
C20   C21   1.505748 S    
C2    C3    1.535644 S    
C44   H95   1.063145 S    
O2    Ba2   2.893837 S    
C65   H91   1.105918 S    
C13   H55   1.112720 S    
C17   H4    1.083961 S    
C68   H101  1.099488 S    
O6    C10   1.416707 S    
C21   H78   1.077264 S    
C31   C37   1.415171 A    
C4    C5    1.531182 S    
C28   C29   1.369551 D    
P4    C25   1.876598 S    
C46   H13   1.104502 S    
C60   H66   1.107406 S    
C30   H85   1.079454 S    
O34   C54   1.418507 S    
C26   C27   1.436026 A    
P6    C18   1.838670 S    
C11   O22   1.426250 S    
C7    O27   1.409572 S    
C14   O38   1.409895 S    
O3    P6    1.742356 S    
O13   Ba2   3.068560 S    
C65   H90   1.108959 S    
O27   C47   1.412317 S    
O29   C49   1.414587 S    
C15   H61   1.119832 S    
C64   H83   1.105597 S    
O16   P7    1.817360 S    
C56   H49   1.106607 S    
Ba2   O21   2.896971 S    
C59   H64   1.109018 S    
C61   H69   1.104769 S    
C45   H10   1.101405 S    
O36   C56   1.425752 S    
O19   C13   1.404928 S    
C67   H99   1.109294 S    
C3    H96   1.105009 S    
C23   H79   1.072464 S    
C51   H33   1.106959 S    
C52   H37   1.107977 S    
C16   O41   1.424482 S    
P3    C34   1.842267 S    
