data_mof_unit_51743.cif
_audit_creation_date              2012-12-11T14:14:24-0500
_audit_creation_method            fapswitch 2.2
_symmetry_space_group_name_H-M    P1
_symmetry_Int_Tables_number       1
_space_group_crystal_system       triclinic
_cell_length_a                    16.802943
_cell_length_b                    7.238601
_cell_length_c                    17.15429
_cell_angle_alpha                 90.00007
_cell_angle_beta                  99.233646
_cell_angle_gamma                 90.0
_cell_volume                      2059.43677905

loop_
_atom_site_label
_atom_site_type_symbol
_atom_type_description
_atom_site_fract_x
_atom_site_fract_y
_atom_site_fract_z
_atom_type_partial_charge
O1    O     O_R   0.414560 0.494370 0.416770 -0.529797
O2    O     O_R   0.585440 0.994370 0.583230 -0.529797
O3    O     O_R   0.578370 0.819590 0.429320 -0.545578
O4    O     O_R   0.421630 0.319590 0.570680 -0.545578
C1    C     C_R   0.604945 0.654989 0.413898 0.763287
C2    C     C_R   0.395055 0.154989 0.586102 0.763287
O5    O     O_R   0.414740 0.823790 0.407360 -0.552218
O6    O     O_R   0.585260 0.323790 0.592640 -0.552218
O7    O     O_R   0.420650 0.998510 0.561120 -0.519714
O8    O     O_R   0.579350 0.498510 0.438880 -0.519713
C3    C     C_R   0.390313 0.653598 0.383268 0.642537
C4    C     C_R   0.609687 0.153598 0.616732 0.642537
O9    O     O_3   0.502130 0.662240 0.550470 -0.383212
O10   O     O_3   0.497870 0.162240 0.449530 -0.383212
V1    V     V_3+5 0.499600 0.935390 0.490640 1.434353
V2    V     V_3+5 0.500400 0.435390 0.509360 1.434353
C5    C     C_2   0.761781 0.253573 0.808103 0.054561
C6    C     C_2   0.238219 0.753574 0.191897 0.054561
C7    C     C_2   0.820179 0.120520 0.818353 -0.280084
C8    C     C_2   0.179820 0.620521 0.181647 -0.280087
H1    H     H_    0.823265 0.020954 0.771672 0.151300
H2    H     H_    0.176734 0.520955 0.228328 0.151300
C9    C     C_2   0.704588 0.272688 0.732217 -0.314393
C10   C     C_2   0.295412 0.772688 0.267783 -0.314393
C11   C     C_2   0.667636 0.128834 0.691550 0.303761
C12   C     C_2   0.332364 0.628834 0.308450 0.303764
H3    H     H_    0.686721 0.411769 0.713420 0.104564
H4    H     H_    0.313279 0.911769 0.286579 0.104563
C13   C     C_R   0.330758 0.142367 0.636161 -0.224256
C14   C     C_R   0.669242 0.642366 0.363839 -0.224255
C15   C     C_R   0.170935 0.128564 0.866059 -0.109671
C16   C     C_R   0.829064 0.628564 0.133940 -0.109671
C17   C     C_R   0.299896 0.261089 0.842608 0.013002
C18   C     C_R   0.700104 0.761090 0.157391 0.013002
C19   C     C_R   0.239953 0.238873 0.891808 -0.055641
C20   C     C_R   0.760047 0.738874 0.108192 -0.055643
C21   C     C_R   0.161118 0.048666 0.790734 -0.184035
C22   C     C_R   0.838881 0.548667 0.209266 -0.184034
C23   C     C_R   0.215789 0.085234 0.738134 -0.033634
C24   C     C_R   0.784210 0.585234 0.261866 -0.033634
C25   C     C_R   0.286991 0.187650 0.764772 0.055788
C26   C     C_R   0.713009 0.687651 0.235228 0.055788
C27   C     C_R   0.343440 0.215543 0.712649 -0.276736
C28   C     C_R   0.656560 0.715543 0.287351 -0.276737
C29   C     C_R   0.257549 0.051402 0.608302 0.361102
C30   C     C_R   0.742450 0.551402 0.391697 0.361102
C31   C     C_R   0.200017 0.023271 0.658699 0.347095
C32   C     C_R   0.799983 0.523271 0.341301 0.347093
H5    H     H_    0.398695 0.291474 0.731126 0.169515
H6    H     H_    0.601305 0.791475 0.268874 0.169515
H7    H     H_    0.108411 0.963805 0.772328 0.143874
H8    H     H_    0.891589 0.463806 0.227671 0.143874
O11   O     O_R   0.920750 0.773600 0.061260 -0.544094
O12   O     O_R   0.079250 0.273600 0.938740 -0.544094
O13   O     O_R   0.085340 0.439850 0.092570 -0.554013
O14   O     O_R   0.914660 0.939850 0.907430 -0.554013
C33   C     C_R   0.113717 0.608841 0.113086 0.761225
C34   C     C_R   0.886283 0.108841 0.886914 0.761225
O15   O     O_R   0.921720 0.444130 0.070790 -0.516728
O16   O     O_R   0.078280 0.944130 0.929210 -0.516728
O17   O     O_R   0.914480 0.269530 0.916840 -0.518976
O18   O     O_R   0.085520 0.769530 0.083160 -0.518976
C35   C     C_R   0.895294 0.613134 0.085691 0.679450
C36   C     C_R   0.104706 0.113134 0.914309 0.679450
O19   O     O_3   0.997840 0.601520 0.949550 -0.380820
O20   O     O_3   0.002160 0.101520 0.050450 -0.380820
V3    V     V_3+5 0.000400 0.328340 0.009360 1.491252
V4    V     V_3+5 0.999600 0.828340 0.990640 1.491253
C37   C     C_2   0.749960 0.388794 0.870397 0.416875
H9    H     H_    0.722193 0.521177 0.853547 0.011092
O21   O     O_2   0.765870 0.350219 0.940449 -0.507120
C38   C     C_2   0.250040 0.888794 0.129603 0.416874
H10   H     H_    0.277808 0.021178 0.146453 0.011092
O22   O     O_2   0.234130 0.850217 0.059551 -0.507118
O23   O     O_3   0.683718 0.950391 0.719659 -0.562727
C39   C     C_3   0.616250 0.876986 0.749323 0.075629
H11   H     H_    0.613852 0.726259 0.737079 0.134742
H12   H     H_    0.556880 0.934806 0.721662 0.109301
C40   C     C_3   0.626192 0.904479 0.838162 -0.619575
H13   H     H_    0.621522 0.053368 0.852271 0.249874
H14   H     H_    0.578541 0.827586 0.862529 0.197829
H15   H     H_    0.686060 0.852101 0.865542 0.222318
O24   O     O_3   0.316281 0.450391 0.280341 -0.562727
C41   C     C_3   0.383748 0.376985 0.250676 0.075621
H16   H     H_    0.386144 0.226256 0.262916 0.134742
H17   H     H_    0.443119 0.434796 0.278340 0.109305
C42   C     C_3   0.373808 0.404489 0.161839 -0.619579
H18   H     H_    0.378483 0.553378 0.147733 0.249869
H19   H     H_    0.421458 0.327593 0.137470 0.197831
H20   H     H_    0.313940 0.352122 0.134457 0.222326
O25   O     O_3   0.242404 0.986313 0.531497 -0.535814
C43   C     C_3   0.212081 0.132476 0.480263 0.080299
H21   H     H_    0.235529 0.271640 0.500674 0.100368
H22   H     H_    0.145378 0.134679 0.473478 0.133757
C44   C     C_3   0.234824 0.099395 0.399321 -0.679878
H23   H     H_    0.211010 0.963586 0.376244 0.215011
H24   H     H_    0.208641 0.209506 0.357891 0.190859
H25   H     H_    0.301438 0.101755 0.403534 0.231469
O26   O     O_3   0.757595 0.486312 0.468503 -0.535814
C45   C     C_3   0.787920 0.632474 0.519737 0.080300
H26   H     H_    0.764474 0.771639 0.499326 0.100367
H27   H     H_    0.854623 0.634672 0.526522 0.133758
C46   C     C_3   0.765177 0.599395 0.600678 -0.679879
H28   H     H_    0.788989 0.463585 0.623756 0.215011
H29   H     H_    0.791360 0.709505 0.642108 0.190858
H30   H     H_    0.698563 0.601757 0.596465 0.231469
C47   C     C_2   0.376927 0.355504 0.873772 0.386481
H31   H     H_    0.377090 0.497747 0.893532 0.119798
O27   O     O_2   0.440906 0.273063 0.878306 -0.525375
C48   C     C_2   0.623073 0.855505 0.126229 0.386482
H32   H     H_    0.622911 0.997748 0.106468 0.119798
O28   O     O_2   0.559094 0.773064 0.121694 -0.525376
O29   O     O_3   0.129852 0.928452 0.629774 -0.539342
C49   C     C_3   0.066076 0.055933 0.608524 0.113494
H33   H     H_    0.085735 0.186014 0.582465 0.092212
H34   H     H_    0.038492 0.093606 0.660963 0.109903
C50   C     C_3   0.001262 0.966400 0.548195 -0.720308
H35   H     H_    0.978717 0.838896 0.573307 0.215425
H36   H     H_    0.950106 0.063533 0.532081 0.193475
H37   H     H_    0.026346 0.930199 0.494097 0.221616
O30   O     O_3   0.870148 0.428453 0.370226 -0.539342
C51   C     C_3   0.933924 0.555934 0.391475 0.113493
H38   H     H_    0.914266 0.686015 0.417535 0.092213
H39   H     H_    0.961507 0.593608 0.339036 0.109903
C52   C     C_3   0.998739 0.466401 0.451804 -0.720307
H40   H     H_    0.021284 0.338897 0.426690 0.215425
H41   H     H_    0.049895 0.563533 0.467917 0.193475
H42   H     H_    0.973655 0.430199 0.505902 0.221615
C53   C     C_2   0.250028 0.322174 0.972071 0.394224
H43   H     H_    0.227598 0.249742 0.019468 0.045491
O31   O     O_2   0.279372 0.475428 0.985161 -0.524466
C54   C     C_2   0.749972 0.822174 0.027929 0.394225
H44   H     H_    0.772402 0.749742 0.980532 0.045492
O32   O     O_2   0.720627 0.975427 0.014838 -0.524467

loop_
_geom_bond_atom_site_label_1
_geom_bond_atom_site_label_2
_ccdc_geom_bond_type
C30   O26   S    
C5    C37   S    
C12   O24   S    
C47   O27   D    
C44   H23   S    
O1    C3    A    
C39   C40   S    
C42   H18   S    
O2    C4    A    
C2    O7    A    
C49   H33   S    
C44   H25   S    
C33   O18   A    
C23   C25   A    
O5    C3    A    
C5    C9    S    
C6    C10   S    
C16   C20   A    
C7    H1    S    
C10   C12   D    
C1    C14   S    
C20   C54   S    
C21   H7    S    
C22   H8    S    
C24   C32   A    
C37   O21   D    
O11   V4    S    
C48   H32   S    
C43   H21   S    
O15   V3    S    
O24   C41   S    
C54   H44   S    
C18   C26   A    
C52   H42   S    
C47   H31   S    
C41   C42   S    
C16   C22   A    
C19   C53   S    
C18   C20   A    
C34   O17   A    
O5    V1    S    
O20   V3    S    
O6    V2    S    
C13   C27   A    
C17   C47   S    
C25   C27   A    
C14   C28   A    
C26   C28   A    
C45   H27   S    
C29   C31   A    
C7    C34   S    
C6    C38   S    
C30   C32   A    
C39   H11   S    
C38   O22   D    
C50   H37   S    
C32   O30   S    
C40   H14   S    
C27   H5    S    
O12   V3    S    
C3    C12   S    
O14   V4    S    
C45   C46   S    
C15   C21   A    
C13   C29   A    
C11   O23   S    
O4    V2    S    
O23   C39   S    
O17   V3    S    
O13   V3    S    
O26   C45   S    
O6    C4    A    
O19   V4    S    
C2    C13   S    
C43   H22   S    
C46   H29   S    
O1    V2    S    
C41   H16   S    
O2    V1    S    
O30   C51   S    
O4    C2    A    
C8    H2    S    
C9    H3    S    
O13   C33   A    
C52   H40   S    
C18   C48   S    
C15   C19   A    
C42   H20   S    
C51   H39   S    
O25   C43   S    
O3    V1    S    
C23   C31   A    
O29   C49   S    
C28   H6    S    
C31   O29   S    
C8    C33   S    
C15   C36   S    
C14   C30   A    
C10   H4    S    
C16   C35   S    
C39   H12   S    
C38   H10   S    
O3    C1    A    
C40   H15   S    
C49   H34   S    
C44   H24   S    
O15   C35   A    
O18   V4    S    
C4    C11   S    
O16   C36   A    
C17   C25   A    
C51   C52   S    
C50   H36   S    
C53   H43   S    
C1    O8    A    
C21   C23   A    
O8    V2    S    
C50   H35   S    
C22   C24   A    
O11   C35   A    
C17   C19   A    
O12   C36   A    
C24   C26   A    
C45   H26   S    
C5    C7    D    
O14   C34   A    
C46   H30   S    
C6    C8    D    
C43   C44   S    
O7    V1    S    
C37   H9    S    
C29   O25   S    
C48   O28   D    
C49   C50   S    
C40   H13   S    
C9    C11   D    
O16   V4    S    
C54   O32   D    
O9    V2    S    
C46   H28   S    
C52   H41   S    
C42   H19   S    
O10   V1    S    
C41   H17   S    
C51   H38   S    
C53   O31   D    
