data_mof_unit_41021.cif
_audit_creation_date              2012-10-26T19:27:36-0400
_audit_creation_method            fapswitch 2.2
_symmetry_space_group_name_H-M    P1
_symmetry_Int_Tables_number       1
_space_group_crystal_system       triclinic
_cell_length_a                    20.570749
_cell_length_b                    21.227938
_cell_length_c                    14.83699
_cell_angle_alpha                 89.027616
_cell_angle_beta                  128.562836
_cell_angle_gamma                 90.720303
_cell_volume                      5065.29622769

loop_
_atom_site_label
_atom_site_type_symbol
_atom_type_description
_atom_site_fract_x
_atom_site_fract_y
_atom_site_fract_z
_atom_type_partial_charge
C1    C     C_R   0.602032 0.912681 0.630494 0.541523
C2    C     C_R   0.652757 0.235224 0.048556 -0.141384
C3    C     C_R   0.686999 0.743277 0.915122 0.029294
C4    C     C_R   0.197085 0.746485 0.929463 0.030538
C5    C     C_R   0.778709 0.273784 0.036495 0.031078
C6    C     C_R   0.747858 0.698892 0.994852 0.034063
C7    C     C_R   0.259919 0.306333 0.013205 0.034247
C8    C     C_R   0.304918 0.821350 0.979644 -0.141331
C9    C     C_R   0.656132 0.210545 0.965858 -0.142166
C10   C     C_R   0.622227 0.757025 0.919748 -0.152356
C11   C     C_R   0.383602 0.246324 0.085187 -0.153677
C12   C     C_R   0.835011 0.297153 0.019431 -0.147854
C13   C     C_R   0.625230 0.736637 0.011556 -0.147921
C14   C     C_R   0.136337 0.727340 0.940380 -0.148959
C15   C     C_R   0.209377 0.332486 0.036966 -0.143270
C16   C     C_R   0.800965 0.674469 0.974090 -0.142866
C17   C     C_3   0.360681 0.062736 0.012485 -0.289080
C18   C     C_3   0.298061 0.114372 0.932641 -0.435909
C19   C     C_3   0.640289 0.948342 0.989232 -0.288764
C20   C     C_3   0.700127 0.895370 0.068943 -0.437006
C21   C     C_3   0.842782 0.482649 0.994131 -0.286245
C22   C     C_3   0.766813 0.443884 0.900150 -0.435789
C23   C     C_3   0.153898 0.542263 0.002534 -0.288117
C24   C     C_R   0.381310 0.268290 0.994619 -0.148274
C25   C     C_3   0.221125 0.587928 0.092962 -0.431156
C26   C     C_3   0.323297 0.746960 0.727969 -0.279875
C27   C     C_3   0.333638 0.710307 0.649852 -0.456533
C28   C     C_3   0.633895 0.288952 0.210967 -0.278622
C29   C     C_3   0.629854 0.323547 0.296978 -0.452163
C30   C     C_3   0.640208 0.714428 0.218913 -0.278923
C31   C     C_3   0.659265 0.702269 0.335157 -0.450239
C32   C     C_3   0.374273 0.301962 0.796645 -0.278549
C33   C     C_3   0.364525 0.326116 0.691108 -0.452781
C34   C     C_3   0.815315 0.252969 0.721236 -0.279264
C35   C     C_R   0.830232 0.279145 0.926125 -0.146995
C36   C     C_3   0.800277 0.234690 0.610430 -0.456545
C37   C     C_3   0.147285 0.776223 0.230145 -0.277997
C38   C     C_3   0.155769 0.800336 0.333711 -0.453395
C39   C     C_3   0.201883 0.258203 0.303210 -0.279158
C40   C     C_3   0.201080 0.224357 0.394434 -0.453511
C41   C     C_3   0.821299 0.756920 0.725024 -0.278487
C42   C     C_3   0.828134 0.794906 0.642625 -0.452991
C43   C     C_3   0.719594 0.999641 0.526648 -0.237886
C44   C     C_3   0.778579 0.055865 0.566230 -0.468392
C45   C     C_3   0.282889 0.966980 0.488553 -0.220870
C46   C     C_R   0.139130 0.746990 0.031271 -0.148154
C47   C     C_3   0.243489 0.012777 0.386669 -0.388420
C48   C     C_3   0.218913 0.491271 0.522728 -0.240991
C49   C     C_3   0.280300 0.544251 0.552632 -0.471052
C50   C     C_3   0.784612 0.468985 0.499761 -0.236478
C51   C     C_3   0.736267 0.505736 0.386202 -0.412391
C52   C     C_R   0.211460 0.309576 0.127005 -0.143077
C53   C     C_R   0.801389 0.698900 0.887147 -0.143642
C54   C     C_R   0.321844 0.004889 0.669826 -0.149306
C55   C     C_R   0.679133 0.999635 0.332329 -0.135740
C56   C     C_R   0.824885 0.529367 0.666284 -0.148238
C57   C     C_R   0.399631 0.088611 0.371375 0.538605
C58   C     C_R   0.173556 0.476081 0.327067 -0.137783
C59   C     C_R   0.349251 0.994644 0.606130 0.165542
C60   C     C_R   0.651181 0.000673 0.396900 0.170100
C61   C     C_R   0.849970 0.506977 0.604351 0.176707
C62   C     C_R   0.149073 0.487972 0.394091 0.172350
C63   C     C_R   0.488889 0.008160 0.775143 0.010488
C64   C     C_R   0.511286 0.999772 0.223990 0.012672
C65   C     C_R   0.989330 0.501079 0.776088 0.012024
C66   C     C_R   0.011666 0.508920 0.224547 0.013537
C67   C     C_R   0.463275 0.005389 0.845933 -0.017552
C68   C     C_R   0.395841 0.913831 0.367226 0.539897
C69   C     C_R   0.538001 0.005803 0.154816 -0.016022
C70   C     C_R   0.964422 0.515047 0.845322 -0.015523
C71   C     C_R   0.035120 0.499955 0.152116 -0.016236
C72   C     C_R   0.377576 0.009017 0.788170 0.001847
C73   C     C_R   0.623919 0.002033 0.213283 0.002519
C74   C     C_R   0.880078 0.529196 0.786110 -0.002053
C75   C     C_R   0.119037 0.485093 0.208606 0.001809
C76   C     C_R   0.517621 0.000803 0.970044 0.011482
C77   C     C_R   0.484124 0.012284 0.030941 0.010489
C78   C     C_R   0.017767 0.511861 0.969623 0.014130
C79   C     C_R   0.603619 0.086326 0.631632 0.541564
C80   C     C_R   0.981062 0.507275 0.027712 0.011109
C81   C     C_R   0.398385 0.029019 0.964689 0.001094
C82   C     C_R   0.603311 0.984070 0.036361 0.003482
C83   C     C_R   0.892516 0.510496 0.958122 -0.001961
C84   C     C_R   0.105930 0.510825 0.038335 -0.000805
C85   C     C_R   0.346180 0.018120 0.846882 -0.110059
C86   C     C_R   0.655568 0.995209 0.154248 -0.107745
C87   C     C_R   0.847253 0.532428 0.844475 -0.118651
C88   C     C_R   0.152136 0.487173 0.150476 -0.118187
C89   C     C_R   0.662718 0.136985 0.704991 -0.027025
C90   C     C_R   0.105661 0.415392 0.635223 0.541844
C91   C     C_R   0.331224 0.867565 0.284659 -0.031693
C92   C     C_R   0.350779 0.146229 0.309732 -0.028517
C93   C     C_R   0.655052 0.857841 0.696666 -0.025707
C94   C     C_R   0.158436 0.640623 0.699775 -0.027184
C95   C     C_R   0.833701 0.365629 0.289607 -0.029518
C96   C     C_R   0.828820 0.629336 0.281224 -0.031272
C97   C     C_R   0.175404 0.374241 0.723870 -0.029485
C98   C     C_R   0.764996 0.217306 0.749763 0.017288
C99   C     C_R   0.210093 0.801859 0.215514 0.019471
C100  C     C_R   0.256345 0.229189 0.277480 0.017266
C101  C     C_R   0.895611 0.585562 0.366368 0.540061
C102  C     C_R   0.759353 0.781137 0.740930 0.016951
C103  C     C_R   0.262586 0.719405 0.745163 0.018734
C104  C     C_R   0.706268 0.306058 0.210697 0.020355
C105  C     C_R   0.702420 0.688273 0.205063 0.017569
C106  C     C_R   0.307087 0.321565 0.805371 0.018471
C107  C     C_R   0.708705 0.169050 0.678301 -0.118250
C108  C     C_R   0.276986 0.839972 0.300356 -0.117144
C109  C     C_R   0.302936 0.174219 0.335467 -0.115735
C110  C     C_R   0.709875 0.834446 0.679612 -0.114413
C111  C     C_R   0.211818 0.667138 0.681219 -0.116247
C112  C     C_R   0.896028 0.413840 0.367791 0.542276
C113  C     C_R   0.767234 0.349926 0.288839 -0.119392
C114  C     C_R   0.770618 0.651468 0.292675 -0.121958
C115  C     C_R   0.236677 0.355932 0.715812 -0.118999
C116  C     C_R   0.670165 0.154574 0.801064 -0.143652
C117  C     C_R   0.323115 0.852407 0.186633 -0.143950
C118  C     C_R   0.356905 0.175604 0.230501 -0.148300
C119  C     C_R   0.647576 0.827362 0.773537 -0.149508
C120  C     C_R   0.155203 0.666441 0.782779 -0.145642
C121  C     C_R   0.839493 0.337506 0.210664 -0.145184
C122  C     C_R   0.821445 0.646006 0.183998 -0.145819
C123  C     C_R   0.102949 0.587017 0.630869 0.541528
C124  C     C_R   0.183547 0.357546 0.821891 -0.146559
C125  C     C_R   0.719948 0.205539 0.869317 0.019587
C126  C     C_R   0.260121 0.811880 0.101543 0.018255
C127  C     C_R   0.314294 0.231825 0.173502 0.016098
C128  C     C_R   0.693469 0.773031 0.834286 0.016276
C129  C     C_R   0.201612 0.720084 0.845483 0.016293
C130  C     C_R   0.777632 0.296600 0.125642 0.015908
C131  C     C_R   0.753955 0.681166 0.093048 0.018665
C132  C     C_R   0.252790 0.323979 0.914181 0.018152
C133  C     C_R   0.772205 0.234126 0.848265 0.048693
C134  C     C_R   0.304863 0.798755 0.892382 -0.141929
C135  C     C_R   0.202583 0.786918 0.116114 0.048136
C136  C     C_R   0.260471 0.257156 0.193184 0.048811
C137  C     C_R   0.751488 0.750644 0.820049 0.047754
C138  C     C_R   0.256598 0.746317 0.827263 0.047937
C139  C     C_R   0.712085 0.278877 0.128845 0.049222
C140  C     C_R   0.693290 0.701972 0.103273 0.049375
C141  C     C_R   0.314282 0.304645 0.904657 0.048759
C142  C     C_R   0.718728 0.228623 0.957956 0.033973
C143  C     C_R   0.254758 0.793801 0.004504 0.033923
C144  C     C_R   0.319951 0.261032 0.091501 0.027911
Cu1   Cu    Cu3+1 0.526640 0.000000 0.436960 0.909254
Cu2   Cu    Cu3+1 0.473360 0.000000 0.563040 0.914154
Cu3   Cu    Cu3+1 0.026640 0.500000 0.436960 0.910725
Cu4   Cu    Cu3+1 0.973360 0.500000 0.563040 0.916439
H1    H     H_    0.344808 0.822674 0.878657 0.104455
H2    H     H_    0.637708 0.126638 0.823089 0.119808
H3    H     H_    0.767602 0.795766 0.554437 0.143929
H4    H     H_    0.849148 0.843769 0.674068 0.146910
H5    H     H_    0.874641 0.772501 0.638349 0.144562
H6    H     H_    0.884310 0.756265 0.810272 0.141784
H7    H     H_    0.804033 0.707802 0.693001 0.143867
H8    H     H_    0.742839 0.098821 0.517106 0.151424
H9    H     H_    0.813051 0.063840 0.659730 0.138973
H10   H     H_    0.824801 0.047165 0.552276 0.136639
H11   H     H_    0.698069 0.999979 0.577292 0.213211
H12   H     H_    0.755914 0.955460 0.551467 0.100933
H13   H     H_    0.607294 0.848249 0.787851 0.122539
H14   H     H_    0.247984 0.061830 0.414445 0.140183
H15   H     H_    0.271541 0.008000 0.343374 0.181571
H16   H     H_    0.176464 0.001350 0.320745 0.108226
H17   H     H_    0.304983 0.923374 0.479245 0.155751
H18   H     H_    0.230428 0.948514 0.485064 0.084202
H19   H     H_    0.246549 0.589189 0.511736 0.152970
H20   H     H_    0.324520 0.550048 0.647605 0.131938
H21   H     H_    0.316939 0.533264 0.523203 0.141893
H22   H     H_    0.198331 0.499774 0.573536 0.212232
H23   H     H_    0.252808 0.445906 0.552770 0.101196
H24   H     H_    0.393305 0.152630 0.211246 0.121719
H25   H     H_    0.721224 0.553362 0.397555 0.131643
H26   H     H_    0.770739 0.508622 0.351758 0.188156
H27   H     H_    0.676859 0.481136 0.320756 0.112710
H28   H     H_    0.812598 0.425471 0.499396 0.160430
H29   H     H_    0.738091 0.450744 0.509195 0.096168
H30   H     H_    0.894005 0.348013 0.218374 0.126495
H31   H     H_    0.116815 0.642764 0.798836 0.122827
H32   H     H_    0.133437 0.369732 0.823141 0.123087
H33   H     H_    0.870611 0.631837 0.182199 0.121500
H34   H     H_    0.288192 0.847317 0.380021 0.115827
H35   H     H_    0.699825 0.155981 0.601499 0.134490
H36   H     H_    0.713871 0.858775 0.618735 0.130241
H37   H     H_    0.601833 0.219772 0.047121 0.099125
H38   H     H_    0.302616 0.152601 0.401356 0.132499
H39   H     H_    0.762806 0.372612 0.348505 0.122056
H40   H     H_    0.213220 0.646402 0.616651 0.133557
H41   H     H_    0.228576 0.368800 0.638881 0.126357
H42   H     H_    0.779330 0.639622 0.370526 0.133469
H43   H     H_    0.344120 0.861713 0.024452 0.101164
H44   H     H_    0.605286 0.179828 0.904743 0.105577
H45   H     H_    0.568035 0.783717 0.852981 0.104995
H46   H     H_    0.436560 0.217968 0.150237 0.106219
H47   H     H_    0.880909 0.332712 0.072405 0.104885
H48   H     H_    0.574509 0.750428 0.010887 0.099957
H49   H     H_    0.084711 0.697267 0.879037 0.106401
H50   H     H_    0.169294 0.372324 0.989391 0.100545
H51   H     H_    0.842445 0.635561 0.022541 0.099194
H52   H     H_    0.279537 0.021734 0.797960 0.112216
H53   H     H_    0.722176 0.991083 0.203175 0.110691
H54   H     H_    0.781538 0.542003 0.795379 0.115839
H55   H     H_    0.218075 0.478936 0.198270 0.111447
H56   H     H_    0.447115 0.992426 0.185536 0.119301
H57   H     H_    0.552575 0.017370 0.812327 0.120694
H58   H     H_    0.951212 0.526107 0.189655 0.118266
H59   H     H_    0.431142 0.253617 0.994013 0.094820
H60   H     H_    0.051865 0.487198 0.814658 0.117693
H61   H     H_    0.255640 0.005418 0.627107 0.088252
H62   H     H_    0.745222 0.995867 0.375927 0.094033
H63   H     H_    0.758979 0.535860 0.621997 0.088425
H64   H     H_    0.238030 0.464698 0.369117 0.089888
H65   H     H_    0.324242 0.146221 0.902303 0.166773
H66   H     H_    0.238574 0.094035 0.857443 0.138001
H67   H     H_    0.282792 0.142043 0.979886 0.155211
H68   H     H_    0.328052 0.027951 0.028588 0.136880
H69   H     H_    0.410209 0.087129 0.093314 0.145119
H70   H     H_    0.873164 0.301439 0.916489 0.103619
H71   H     H_    0.759981 0.914374 0.145593 0.139147
H72   H     H_    0.671443 0.864564 0.096875 0.162920
H73   H     H_    0.715057 0.866688 0.022233 0.154800
H74   H     H_    0.590501 0.924178 0.908315 0.146607
H75   H     H_    0.674327 0.981759 0.973457 0.137781
H76   H     H_    0.715372 0.474918 0.832631 0.139828
H77   H     H_    0.783564 0.411036 0.860108 0.161985
H78   H     H_    0.743390 0.416026 0.938698 0.153198
H79   H     H_    0.881624 0.449001 0.066938 0.144528
H80   H     H_    0.821157 0.521007 0.019617 0.135679
H81   H     H_    0.091825 0.728446 0.035353 0.101470
H82   H     H_    0.195130 0.620482 0.121019 0.165390
H83   H     H_    0.274542 0.562130 0.169143 0.140257
H84   H     H_    0.245056 0.616095 0.055416 0.152039
H85   H     H_    0.183623 0.505711 0.986331 0.135910
H86   H     H_    0.111891 0.571530 0.923871 0.141984
H87   H     H_    0.357214 0.662265 0.685668 0.152481
H88   H     H_    0.274056 0.707690 0.561034 0.140963
H89   H     H_    0.379738 0.734775 0.645619 0.141761
H90   H     H_    0.303344 0.795639 0.692552 0.140362
H91   H     H_    0.386099 0.749430 0.813316 0.139148
H92   H     H_    0.171520 0.332290 0.140655 0.106686
H93   H     H_    0.686788 0.314826 0.386603 0.140660
H94   H     H_    0.621648 0.374854 0.277624 0.148179
H95   H     H_    0.575626 0.306023 0.289620 0.146329
H96   H     H_    0.574723 0.299104 0.123841 0.137331
H97   H     H_    0.636439 0.237611 0.228922 0.142262
H98   H     H_    0.654674 0.651264 0.347764 0.141140
H99   H     H_    0.722034 0.720260 0.406520 0.148711
H100  H     H_    0.613051 0.727291 0.337068 0.146072
H101  H     H_    0.636998 0.766398 0.206133 0.141533
H102  H     H_    0.577777 0.694321 0.150842 0.143557
H103  H     H_    0.844015 0.677965 0.876828 0.108115
H104  H     H_    0.305759 0.308684 0.610474 0.144621
H105  H     H_    0.366311 0.378386 0.690359 0.146222
H106  H     H_    0.416890 0.308538 0.695066 0.146120
H107  H     H_    0.435363 0.319534 0.873624 0.141840
H108  H     H_    0.376626 0.249649 0.797380 0.140919
H109  H     H_    0.823383 0.186363 0.619101 0.148999
H110  H     H_    0.733347 0.238267 0.535198 0.145830
H111  H     H_    0.835323 0.267289 0.595252 0.142555
H112  H     H_    0.801130 0.304033 0.714020 0.140982
H113  H     H_    0.882606 0.246135 0.793361 0.143240
H114  H     H_    0.368686 0.871657 0.180296 0.124857
H115  H     H_    0.215728 0.785252 0.415588 0.141929
H116  H     H_    0.150919 0.852525 0.330040 0.146715
H117  H     H_    0.104915 0.780345 0.332121 0.145865
H118  H     H_    0.083796 0.789428 0.152341 0.143390
H119  H     H_    0.151545 0.723962 0.236314 0.141779
H120  H     H_    0.175899 0.175857 0.366382 0.145863
H121  H     H_    0.264580 0.222713 0.478556 0.147071
H122  H     H_    0.160447 0.250444 0.406250 0.143788
H123  H     H_    0.222986 0.307418 0.332267 0.140871
H124  H     H_    0.136588 0.259573 0.222310 0.144306
N1    N     N_R   0.433280 0.000000 0.657760 -0.218664
N2    N     N_R   0.566720 0.000000 0.342240 -0.225617
N3    N     N_R   0.933280 0.500000 0.657760 -0.224302
N4    N     N_R   0.066720 0.500000 0.342240 -0.224826
O1    O     O_R   0.600040 0.935040 0.546740 -0.520487
O2    O     O_R   0.444990 0.064930 0.346780 -0.502711
O3    O     O_R   0.444990 0.935070 0.346780 -0.501617
O4    O     O_R   0.555010 0.064930 0.653220 -0.505578
O5    O     O_R   0.055010 0.435070 0.653220 -0.503548
O6    O     O_R   0.944990 0.564930 0.346780 -0.506908
O7    O     O_R   0.944990 0.435070 0.346780 -0.498329
O8    O     O_R   0.055010 0.564930 0.653220 -0.501593
O9    O     O_R   0.399960 0.064960 0.453260 -0.497815
O10   O     O_R   0.399960 0.935040 0.453260 -0.509093
O11   O     O_R   0.600040 0.064960 0.546740 -0.512774
O12   O     O_R   0.100040 0.435040 0.546740 -0.517968
O13   O     O_R   0.899960 0.564960 0.453260 -0.496625
O14   O     O_R   0.899960 0.435040 0.453260 -0.509968
O15   O     O_R   0.100040 0.564960 0.546740 -0.513110
O16   O     O_R   0.555010 0.935070 0.653220 -0.502552

loop_
_geom_bond_atom_site_label_1
_geom_bond_atom_site_label_2
_ccdc_geom_bond_type
C93   C119  A    
C58   C62   A    
C83   C87   A    
C25   H84   S    
C114  H42   S    
C57   C92   S    
C65   N3    A    
C44   H10   S    
C41   C42   S    
C94   C111  A    
C66   N4    A    
Cu1   O2    S    
C11   H46   S    
C119  H13   S    
C121  C130  A    
C128  C137  A    
Cu2   N1    S    
C31   H99   S    
C35   C133  A    
C4    C143  A    
C116  H2    S    
C72   C85   A    
C5    C142  A    
C17   H69   S    
C14   C46   A    
C68   O3    A    
Cu3   O15   S    
C40   H121  S    
C99   C108  A    
C98   C133  A    
C55   C60   A    
C111  H40   S    
C60   N2    A    
C101  O6    A    
C53   C137  A    
C2    C139  A    
C103  C111  A    
C28   C29   S    
C120  H31   S    
C102  C137  A    
C49   H19   S    
C97   C124  A    
C43   H11   S    
C123  O8    A    
C53   H103  S    
C30   C31   S    
C66   H58   S    
C78   C80   A    
C92   C109  A    
C70   C78   A    
C8    H43   S    
C65   C70   A    
C113  H39   S    
C11   C24   A    
C68   C91   S    
C112  O14   A    
C41   C102  S    
C124  C132  A    
C50   H28   S    
C67   C72   A    
C37   H119  S    
C36   H111  S    
C51   H25   S    
C92   C118  A    
C16   C53   A    
C7    C144  A    
C131  C140  A    
C29   H95   S    
Cu3   Cu4   S    
C33   H106  S    
C46   C135  A    
C23   H86   S    
C94   C120  A    
C26   H91   S    
C63   N1    A    
C122  H33   S    
C25   H83   S    
C129  C138  A    
C21   C83   S    
C79   O4    A    
C13   H48   S    
C90   O12   A    
C70   C74   A    
C29   H94   S    
C91   C117  A    
C31   H98   S    
C69   C73   A    
C36   H110  S    
C74   C87   A    
C97   C115  A    
C17   H68   S    
C42   H4    S    
C45   H18   S    
C125  C142  A    
C90   C97   S    
C99   C135  A    
Cu3   N4    S    
C34   H113  S    
C27   H87   S    
C93   C110  A    
C127  C144  A    
C47   H15   S    
C57   O2    A    
C95   C121  A    
C7    C15   A    
C64   H56   S    
C89   C116  A    
C110  H36   S    
C100  C109  A    
C32   C106  S    
C96   C101  S    
C90   O5    A    
C4    C14   A    
C44   H9    S    
C20   H72   S    
C96   C114  A    
C18   H66   S    
C19   H74   S    
Cu2   O16   S    
C80   C83   A    
Cu2   O4    S    
C130  C139  A    
C101  O13   A    
C71   C80   A    
C49   H21   S    
C39   H123  S    
C58   C75   A    
Cu1   Cu2   S    
C54   C59   A    
C45   C47   S    
C79   O11   A    
C21   H79   S    
C14   H49   S    
C63   C67   A    
C25   H82   S    
C56   C74   A    
Cu4   O5    S    
C8    C134  A    
C120  C129  A    
C44   H8    S    
C13   C140  A    
C105  C114  A    
C42   H5    S    
C19   H75   S    
C127  C136  A    
C54   H61   S    
C49   H20   S    
C43   H12   S    
C23   C84   S    
C10   H45   S    
C76   C82   A    
C39   C40   S    
C22   H77   S    
Cu3   O6    S    
C57   O9    A    
C3    C128  A    
C64   N2    A    
C15   C52   A    
C134  H1    S    
C22   H76   S    
C28   C104  S    
C78   C84   A    
C98   C107  A    
C30   H102  S    
C1    O16   A    
C107  H35   S    
C112  O7    A    
C55   C73   A    
C51   H26   S    
C43   C44   S    
C1    O1    A    
C37   C38   S    
Cu2   O10   S    
C108  H34   S    
C38   H116  S    
C26   C103  S    
C48   H23   S    
Cu3   O7    S    
C26   H90   S    
C85   H52   S    
C48   C62   S    
C66   C71   A    
C118  H24   S    
C24   C141  A    
C20   H73   S    
Cu4   O14   S    
C32   H108  S    
C17   C18   S    
C61   N3    A    
Cu4   N3    S    
C34   H112  S    
C50   C51   S    
C62   N4    A    
C36   H109  S    
C76   C77   A    
C12   C35   A    
C51   H27   S    
C42   H3    S    
C86   H53   S    
C7    C132  A    
C4    C129  A    
C16   H51   S    
C43   C60   S    
C5    C12   A    
C48   H22   S    
C117  H114  S    
C27   H88   S    
C65   H60   S    
C5    C130  A    
C126  C135  A    
C58   H64   S    
C116  C125  A    
C30   C105  S    
C26   C27   S    
C89   C107  A    
C52   C136  A    
C20   H71   S    
C68   O10   A    
C31   H100  S    
C103  C138  A    
C18   H65   S    
C118  C127  A    
C47   H16   S    
Cu4   O8    S    
C9    H44   S    
C35   H70   S    
C40   H120  S    
C122  C131  A    
Cu1   O3    S    
C33   H104  S    
C123  O15   A    
C39   H124  S    
C27   H89   S    
C106  C141  A    
C41   H6    S    
C11   C144  A    
C125  C133  A    
C132  C141  A    
C15   H50   S    
C21   H80   S    
C45   C59   S    
C87   H54   S    
C19   C82   S    
C91   C108  A    
C38   H117  S    
Cu1   O1    S    
C50   H29   S    
C84   C88   A    
C6    C131  A    
C10   C13   A    
C134  C138  A    
C9    C142  A    
C30   H101  S    
C121  H30   S    
C22   H78   S    
C12   H47   S    
C40   H122  S    
C109  H38   S    
Cu3   O12   S    
C24   H59   S    
C17   C81   S    
C104  C139  A    
C96   C122  A    
C106  C115  A    
C95   C112  S    
C32   C33   S    
C19   C20   S    
C33   H105  S    
Cu1   N2    S    
C2    H37   S    
Cu2   O9    S    
C82   C86   A    
C38   H115  S    
C119  C128  A    
C105  C140  A    
C71   C75   A    
C2    C9    A    
C37   C99   S    
C69   C77   A    
C39   C100  S    
C95   C113  A    
C48   C49   S    
Cu4   O13   S    
C59   N1    A    
C32   H107  S    
C34   C98   S    
C8    C143  A    
C34   C36   S    
C28   H97   S    
C23   C25   S    
C88   H55   S    
C56   H63   S    
C64   C69   A    
Cu1   O11   S    
C73   C86   A    
C79   C89   S    
C18   H67   S    
C102  C110  A    
C52   H92   S    
C6    C16   A    
C104  C113  A    
C115  H41   S    
C37   H118  S    
C126  C143  A    
C124  H32   S    
C54   C72   A    
C23   H85   S    
C1    C93   S    
C77   C81   A    
C63   H57   S    
C3    C6    A    
C100  C136  A    
C3    C10   A    
C50   C61   S    
C29   H93   S    
C56   C61   A    
C117  C126  A    
C75   C88   A    
C28   H96   S    
C41   H7    S    
C21   C22   S    
C94   C123  S    
C45   H17   S    
C47   H14   S    
C81   C85   A    
C67   C76   A    
C46   H81   S    
C55   H62   S    
