data_mof_unit_9190.cif
_audit_creation_date              2012-12-10T17:17:25-0500
_audit_creation_method            fapswitch 2.2
_symmetry_space_group_name_H-M    P1
_symmetry_Int_Tables_number       1
_space_group_crystal_system       triclinic
_cell_length_a                    10.194116
_cell_length_b                    10.657179
_cell_length_c                    12.277748
_cell_angle_alpha                 90.928323
_cell_angle_beta                  109.263031
_cell_angle_gamma                 95.984211
_cell_volume                      1250.50190519

loop_
_atom_site_label
_atom_site_type_symbol
_atom_type_description
_atom_site_fract_x
_atom_site_fract_y
_atom_site_fract_z
_atom_type_partial_charge
C1    C     C_R   0.047790 0.732821 0.486418 0.964866
C2    C     C_R   0.428422 0.524398 0.992103 0.083885
C3    C     C_R   0.353754 0.560018 0.880992 0.093106
C4    C     C_R   0.575225 0.528927 0.023544 0.085123
C5    C     C_R   0.646766 0.585978 0.951990 0.185453
C6    C     C_R   0.571428 0.636392 0.849395 -0.268522
C7    C     C_R   0.426578 0.624444 0.814593 -0.204368
C8    C     C_R   0.652916 0.477115 0.124202 -0.244843
C9    C     C_R   0.868970 0.554173 0.093508 -0.199259
C10   C     C_R   0.207823 0.527779 0.837971 -0.113517
C11   C     C_2   0.064524 0.865299 0.463293 -0.416782
C12   C     C_R   0.135149 0.516571 0.713941 0.845066
C13   C     C_2   0.950786 0.926976 0.423870 0.496289
C14   C     C_2   0.904204 0.131013 0.483277 -0.380865
C15   C     C_2   0.972552 0.063619 0.430949 -0.289538
C16   C     C_2   0.433459 0.509582 0.514475 -0.250362
C17   C     C_2   0.574233 0.471721 0.515697 0.502779
C18   C     C_R   0.945495 0.266070 0.502255 0.945845
C19   C     C_R   0.866195 0.488651 0.285952 0.879644
C20   C     C_R   0.793220 0.594953 0.986133 -0.206818
C21   C     C_R   0.797503 0.498855 0.163560 -0.054707
C22   C     C_R   0.134830 0.487399 0.912351 -0.202087
C23   C     C_R   0.207565 0.470433 0.027432 -0.150931
C24   C     C_R   0.353085 0.485786 0.066975 -0.182280
H1    H     H_    0.982003 0.572418 0.124349 0.156005
H2    H     H_    0.820662 0.087049 0.511480 0.162328
H3    H     H_    0.169574 0.914811 0.486272 0.099104
H4    H     H_    0.433428 0.591277 0.568198 0.144829
H5    H     H_    0.672978 0.644012 0.566551 0.115955
H6    H     H_    0.317223 0.370484 0.403450 0.181725
H7    H     H_    0.624281 0.684000 0.795475 0.135376
H8    H     H_    0.848939 0.639217 0.932737 0.139635
H9    H     H_    0.603524 0.424692 0.177489 0.152013
H10   H     H_    0.022150 0.464365 0.880578 0.156108
H11   H     H_    0.403407 0.469521 0.156888 0.141029
H12   H     H_    0.151367 0.439550 0.085008 0.144919
H13   H     H_    0.371934 0.667265 0.735597 0.155851
H14   H     H_    0.057670 0.107491 0.404479 0.172644
N1    N     N_2   0.313640 0.446500 0.454900 -0.190936
N2    N     N_2   0.686360 0.553430 0.545150 -0.216844
O1    O     O_R   0.936910 0.692950 0.509080 -0.543546
O2    O     O_R   0.138320 0.658600 0.480130 -0.624834
O3    O     O_R   0.002900 0.525670 0.675280 -0.624651
O4    O     O_R   0.204310 0.491320 0.646330 -0.600052
O5    O     O_R   0.861680 0.341400 0.519870 -0.568991
O6    O     O_R   0.063090 0.307050 0.490920 -0.608543
O7    O     O_R   0.795690 0.508680 0.353670 -0.571518
O8    O     O_R   0.997100 0.474330 0.324720 -0.623568
Zn1   Zn    Zn3+2 0.865520 0.522940 0.519330 0.989947
Zn2   Zn    Zn3+2 0.134480 0.477060 0.480670 0.923920
O9    O     O_3   0.816898 0.862936 0.385564 -0.739045
H15   H     H_    0.749293 0.924534 0.353801 0.333779
O10   O     O_3   0.585948 0.348411 0.485632 -0.614830
C25   C     C_3   0.555364 0.264660 0.565156 0.058844
H16   H     H_    0.548238 0.166790 0.529409 0.155643
H17   H     H_    0.451729 0.274057 0.574064 0.142779
C26   C     C_3   0.670363 0.279146 0.684772 -0.339667
H18   H     H_    0.770871 0.257076 0.676772 0.233440
H19   H     H_    0.685097 0.377610 0.721581 0.210654
C27   C     C_3   0.632637 0.190426 0.768937 -0.959537
H20   H     H_    0.534146 0.212655 0.781185 0.272790
H21   H     H_    0.717682 0.202392 0.853983 0.269916
H22   H     H_    0.619460 0.090585 0.735962 0.260153

loop_
_geom_bond_atom_site_label_1
_geom_bond_atom_site_label_2
_ccdc_geom_bond_type
C16   H4    S    
C1    O1    A    
C2    C4    A    
C23   C24   A    
C15   H14   S    
C6    C7    A    
O5    Zn1   S    
C14   C18   S    
C9    C20   A    
C1    C11   S    
C11   H3    S    
C4    C8    A    
C14   H2    S    
O8    Zn2   S    
C6    H7    S    
C7    H13   S    
C9    H1    S    
C27   H20   S    
O7    Zn1   S    
C3    C10   A    
O10   C25   S    
C10   C22   A    
C11   C13   D    
C9    C21   A    
C26   H18   S    
C16   C17   S    
C10   C12   S    
O2    Zn2   S    
C27   H22   S    
C18   O6    A    
H5    N2    S    
O1    Zn1   S    
C19   C21   S    
H6    N1    S    
C2    C3    A    
C12   O3    A    
C3    C7    A    
C8    H9    S    
C13   C15   S    
C2    C24   A    
C5    C6    A    
C22   H10   S    
C25   H17   S    
C26   H19   S    
C24   H11   S    
C16   N1    D    
O9    H15   S    
C18   O5    A    
C17   O10   S    
C1    O2    A    
N1    Zn2   S    
C27   H21   S    
C23   H12   S    
C20   H8    S    
C19   O7    A    
O4    Zn2   S    
C25   H16   S    
C5    C20   A    
O6    Zn2   S    
C22   C23   A    
C12   O4    A    
C26   C27   S    
C14   C15   D    
C19   O8    A    
C13   O9    S    
C17   N2    D    
O3    Zn1   S    
N2    Zn1   S    
C4    C5    A    
C25   C26   S    
C8    C21   A    
