data_mof_unit_19716.cif
_audit_creation_date              2012-12-10T19:35:28-0500
_audit_creation_method            fapswitch 2.2
_symmetry_space_group_name_H-M    P1
_symmetry_Int_Tables_number       1
_space_group_crystal_system       triclinic
_cell_length_a                    13.651444
_cell_length_b                    15.769911
_cell_length_c                    17.074075
_cell_angle_alpha                 83.396657
_cell_angle_beta                  89.20552
_cell_angle_gamma                 108.203139
_cell_volume                      3463.79356895

loop_
_atom_site_label
_atom_site_type_symbol
_atom_type_description
_atom_site_fract_x
_atom_site_fract_y
_atom_site_fract_z
_atom_type_partial_charge
C1    C     C_R   0.501348 0.510972 0.348366 0.932159
C2    C     C_R   0.814106 0.569622 0.513730 -0.154264
C3    C     C_R   0.497159 0.516391 0.262203 -0.222677
C4    C     C_R   0.702353 0.546348 0.499552 0.932331
C5    C     C_R   0.532246 0.458756 0.220501 0.301836
C6    C     C_R   0.515870 0.458046 0.139315 0.333590
C7    C     C_R   0.475265 0.522549 0.098471 0.085687
C8    C     C_R   0.442711 0.581490 0.141089 0.360651
C9    C     C_R   0.453793 0.577461 0.222194 -0.274008
C10   C     C_R   0.419736 0.491153 0.862277 0.397735
C11   C     C_R   0.413219 0.486626 0.781096 0.246934
C12   C     C_R   0.970918 0.526371 0.533210 0.079442
C13   C     C_R   0.516407 0.503412 0.897349 0.032668
C14   C     C_R   0.500465 0.485152 0.736273 -0.327339
C15   C     C_R   0.593657 0.490220 0.771893 0.249729
C16   C     C_R   0.499433 0.489435 0.650984 0.895338
C17   C     C_R   0.603053 0.505979 0.851144 0.269350
C18   C     C_R   0.528935 0.260844 0.445998 -0.060769
C19   C     C_R   0.513941 0.170435 0.436075 0.242416
C20   C     C_R   0.459662 0.101420 0.496555 0.070189
C21   C     C_R   0.409987 0.126900 0.559204 0.178044
C22   C     C_R   0.428763 0.219470 0.566611 0.582485
C23   C     C_R   0.870718 0.508069 0.504459 -0.104440
C24   C     C_R   0.479184 0.839483 0.545959 0.303666
C25   C     C_R   0.467912 0.747280 0.548554 0.381430
C26   C     C_R   0.525085 0.899739 0.478170 0.076503
C27   C     C_R   0.568590 0.774853 0.428178 0.410282
C28   C     C_R   0.297856 0.452766 0.507131 0.831411
C29   C     C_R   0.575479 0.868081 0.421262 0.188774
C30   C     C_R   0.018158 0.307186 0.538562 0.510473
C31   C     C_R   0.184522 0.425211 0.521200 -0.295480
C32   C     C_R   0.859468 0.647386 0.551524 0.443235
C33   C     C_R   0.957806 0.662163 0.580493 -0.253962
C34   C     C_R   0.024979 0.463841 0.527493 -0.087083
C35   C     C_R   0.012031 0.602697 0.572162 -0.140845
C36   C     C_3   0.282339 0.401461 0.943923 0.113149
C37   C     C_3   0.185585 0.355238 0.901658 -0.310816
C38   C     C_3   0.123090 0.265890 0.948737 -0.948772
C39   C     C_3   0.710429 0.416334 0.749926 0.100781
C40   C     C_3   0.827145 0.440999 0.734452 -0.306165
C41   C     C_3   0.869597 0.370275 0.776747 -0.955305
C42   C     C_3   0.450760 0.323015 0.090297 0.066204
C43   C     C_3   0.439157 0.243613 0.154283 -0.349568
C44   C     C_3   0.348561 0.162149 0.139894 -0.884939
C45   C     C_R   0.968400 0.373141 0.522286 -0.249693
C46   C     C_3   0.754770 0.614100 0.864758 0.099571
C47   C     C_3   0.860637 0.632596 0.899767 -0.322225
C48   C     C_3   0.927432 0.730191 0.876624 -0.911262
C49   C     C_3   0.523119 0.916928 0.652933 0.086152
C50   C     C_3   0.561265 0.853363 0.710390 -0.319649
C51   C     C_3   0.646183 0.906034 0.759722 -0.956612
C52   C     C_3   0.749617 0.209549 0.527427 0.107852
C53   C     C_3   0.713439 0.247052 0.598629 -0.453273
C54   C     C_3   0.652567 0.170749 0.661095 -0.979819
C55   C     C_3   0.421739 0.228714 0.699209 0.082973
C56   C     C_R   0.868995 0.354182 0.492561 0.389802
C57   C     C_3   0.351903 0.237492 0.766356 -0.323364
C58   C     C_3   0.401226 0.231656 0.845639 -0.960098
C59   C     C_3   0.733388 0.955362 0.363505 0.051129
C60   C     C_3   0.768834 0.043476 0.400110 -0.333208
C61   C     C_3   0.886394 0.082376 0.396248 -0.833835
C62   C     C_3   0.942097 0.198023 0.641381 0.032542
C63   C     C_3   0.030384 0.177863 0.686410 -0.323278
C64   C     C_3   0.994483 0.135121 0.770972 -0.934081
C65   C     C_3   0.843146 0.790176 0.551616 0.072689
C66   C     C_3   0.854586 0.839946 0.624492 -0.363704
C67   C     C_R   0.830921 0.427044 0.469908 0.345397
C68   C     C_3   0.888009 0.941685 0.601831 -0.900642
C69   C     C_R   0.133376 0.490585 0.521510 0.325493
C70   C     C_R   0.125558 0.333015 0.535171 0.242996
Cu1   Cu    Cu3+1 0.505120 0.585970 0.496130 1.028137
Cu2   Cu    Cu3+1 0.494880 0.414030 0.503870 1.007167
H1    H     H_    0.426699 0.621889 0.254406 0.222136
H2    H     H_    0.169047 0.218688 0.954357 0.257383
H3    H     H_    0.052027 0.235211 0.917986 0.267127
H4    H     H_    0.100156 0.276609 0.008575 0.264265
H5    H     H_    0.396141 0.640957 0.048743 0.357774
H6    H     H_    0.671468 0.362304 0.714121 0.123282
H7    H     H_    0.690693 0.388657 0.813336 0.172034
H8    H     H_    0.844469 0.447153 0.670058 0.199746
H9    H     H_    0.866603 0.506992 0.754984 0.240274
H10   H     H_    0.864050 0.371010 0.841616 0.276059
H11   H     H_    0.952026 0.385389 0.757662 0.258344
H12   H     H_    0.571382 0.312285 0.399958 0.248850
H13   H     H_    0.825550 0.302087 0.762945 0.253569
H14   H     H_    0.459565 0.301097 0.031763 0.173162
H15   H     H_    0.378493 0.341970 0.089929 0.110450
H16   H     H_    0.511227 0.224926 0.154788 0.246575
H17   H     H_    0.425863 0.263212 0.212979 0.241915
H18   H     H_    0.275413 0.179037 0.140225 0.253393
H19   H     H_    0.341796 0.105910 0.187345 0.272567
H20   H     H_    0.360843 0.139879 0.082182 0.256148
H21   H     H_    0.714096 0.657331 0.889258 0.142212
H22   H     H_    0.766403 0.632201 0.799461 0.175181
H23   H     H_    0.082999 0.613568 0.602430 0.174692
H24   H     H_    0.850722 0.618327 0.965188 0.240365
H25   H     H_    0.900514 0.587461 0.878195 0.226820
H26   H     H_    0.940401 0.745132 0.811415 0.251794
H27   H     H_    0.003452 0.741694 0.903354 0.272405
H28   H     H_    0.889550 0.776650 0.898243 0.258399
H29   H     H_    0.612116 0.374837 0.222657 0.366010
H30   H     H_    0.379786 0.632707 0.597167 0.353780
H31   H     H_    0.493384 0.959898 0.687701 0.179724
H32   H     H_    0.589058 0.963492 0.614318 0.121908
H33   H     H_    0.495702 0.809135 0.750281 0.260327
H34   H     H_    0.989990 0.717162 0.614662 0.154504
H35   H     H_    0.592520 0.810293 0.676928 0.219959
H36   H     H_    0.712641 0.950464 0.720828 0.253850
H37   H     H_    0.673418 0.858451 0.799816 0.264279
H38   H     H_    0.616314 0.947748 0.795868 0.268633
H39   H     H_    0.329016 0.002816 0.599188 0.371980
H40   H     H_    0.780861 0.154824 0.548091 0.182385
H41   H     H_    0.680925 0.174128 0.497449 0.175871
H42   H     H_    0.779941 0.289695 0.627275 0.214833
H43   H     H_    0.664737 0.289036 0.578344 0.230183
H44   H     H_    0.627615 0.198825 0.711582 0.247666
H45   H     H_    0.218560 0.278790 0.585835 0.352775
H46   H     H_    0.701091 0.129508 0.683799 0.258326
H47   H     H_    0.583662 0.126635 0.635951 0.256548
H48   H     H_    0.498993 0.279484 0.700357 0.141717
H49   H     H_    0.430773 0.160711 0.710122 0.172845
H50   H     H_    0.336635 0.302813 0.755169 0.218452
H51   H     H_    0.276808 0.182747 0.768631 0.233942
H52   H     H_    0.421745 0.168616 0.856268 0.267562
H53   H     H_    0.345799 0.231374 0.893793 0.252969
H54   H     H_    0.471859 0.290349 0.846873 0.243622
H55   H     H_    0.641783 0.788063 0.326173 0.334348
H56   H     H_    0.258439 0.408284 0.004748 0.162615
H57   H     H_    0.510366 0.092850 0.355420 0.369832
H58   H     H_    0.770222 0.967156 0.303096 0.175433
H59   H     H_    0.761555 0.903749 0.397689 0.112975
H60   H     H_    0.736627 0.093377 0.368090 0.278255
H61   H     H_    0.739938 0.030840 0.462819 0.194976
H62   H     H_    0.920413 0.034022 0.428540 0.250944
H63   H     H_    0.909857 0.145702 0.423591 0.316966
H64   H     H_    0.917113 0.097627 0.333874 0.250461
H65   H     H_    0.873665 0.136837 0.652326 0.161967
H66   H     H_    0.921590 0.252611 0.666592 0.122251
H67   H     H_    0.332925 0.357847 0.950339 0.089368
H68   H     H_    0.059832 0.131440 0.655872 0.271514
H69   H     H_    0.093884 0.241551 0.689327 0.200084
H70   H     H_    0.961759 0.179289 0.801786 0.259918
H71   H     H_    0.061072 0.125716 0.803360 0.265519
H72   H     H_    0.934738 0.068445 0.771296 0.257181
H73   H     H_    0.227161 0.598687 0.548501 0.322833
H74   H     H_    0.788992 0.811866 0.512338 0.161098
H75   H     H_    0.918891 0.809713 0.517489 0.127868
H76   H     H_    0.779594 0.818304 0.659239 0.234232
H77   H     H_    0.912659 0.822579 0.662495 0.214109
H78   H     H_    0.136546 0.399837 0.893777 0.244834
H79   H     H_    0.962471 0.965181 0.566353 0.275703
H80   H     H_    0.898252 0.975318 0.656126 0.257792
H81   H     H_    0.828072 0.960894 0.567483 0.247200
H82   H     H_    0.755539 0.368616 0.384120 0.363536
H83   H     H_    0.320187 0.469003 0.693622 0.291421
H84   H     H_    0.208002 0.342273 0.842544 0.235173
N1    N     N_2   0.461590 0.525819 0.016087 -0.205747
N2    N     N_2   0.530709 0.508634 0.979029 -0.110355
N3    N     N_R   0.487180 0.284900 0.509690 -0.283627
N4    N     N_2   0.453282 0.008127 0.498006 -0.176027
N5    N     N_2   0.530629 0.993298 0.469472 -0.183471
N6    N     N_R   0.512820 0.715120 0.490310 -0.267522
O1    O     O_R   0.504790 0.580580 0.382450 -0.538433
O2    O     O_3   0.332101 0.489365 0.905202 -0.543027
O3    O     O_3   0.399468 0.643943 0.106236 -0.694700
O4    O     O_3   0.679483 0.492736 0.726105 -0.592585
O5    O     O_3   0.541100 0.394874 0.100053 -0.582467
O6    O     O_3   0.697812 0.522195 0.884717 -0.568348
O7    O     O_3   0.581985 0.404098 0.260498 -0.713645
O8    O     O_3   0.413072 0.692226 0.613306 -0.679758
O9    O     O_3   0.440565 0.868259 0.609868 -0.545012
O10   O     O_3   0.342220 0.063938 0.614322 -0.718973
O11   O     O_3   0.819960 0.270976 0.468649 -0.604052
O12   O     O_R   0.496140 0.435390 0.388990 -0.549322
O13   O     O_3   0.377592 0.243436 0.626477 -0.580073
O14   O     O_3   0.618872 0.742965 0.373497 -0.685440
O15   O     O_3   0.552487 0.153374 0.366589 -0.712260
O16   O     O_3   0.625095 0.927388 0.355968 -0.573266
O17   O     O_3   0.964185 0.216859 0.558329 -0.575059
O18   O     O_3   0.186621 0.580492 0.502290 -0.679976
O19   O     O_3   0.798510 0.696677 0.575412 -0.589157
O20   O     O_3   0.763632 0.423476 0.409719 -0.700672
O21   O     O_3   0.320080 0.483482 0.748449 -0.701919
O22   O     O_R   0.657420 0.608020 0.495150 -0.519180
O23   O     O_R   0.648770 0.462830 0.501690 -0.567695
O24   O     O_R   0.503860 0.564610 0.611010 -0.573479
O25   O     O_R   0.495210 0.419420 0.617550 -0.582101
O26   O     O_R   0.351230 0.537170 0.498310 -0.594209
O27   O     O_R   0.342580 0.391980 0.504850 -0.544192
O28   O     O_3   0.170176 0.265655 0.542925 -0.663448

loop_
_geom_bond_atom_site_label_1
_geom_bond_atom_site_label_2
_ccdc_geom_bond_type
C25   O8    S    
H30   O8    S    
C66   C68   S    
C55   H49   S    
C59   H58   S    
N1    N2    D    
Cu1   N6    S    
C27   C29   A    
C63   H68   S    
C13   N2    S    
C30   C45   A    
C19   C20   A    
C37   H78   S    
C28   O27   A    
C60   H60   S    
C49   H32   S    
C22   O13   S    
C7    C8    A    
C65   O19   S    
C53   C54   S    
C53   H42   S    
C12   C23   A    
C59   H59   S    
C62   C63   S    
Cu2   N3    S    
C46   O6    S    
C3    C9    A    
C43   H16   S    
C36   C37   S    
C24   C26   A    
C18   C19   A    
C28   O26   A    
C27   N6    A    
C5    C6    A    
C11   C14   A    
H83   O21   S    
C22   N3    A    
C52   H40   S    
H5    O3    S    
C41   H11   S    
C2    C32   A    
H39   O10   S    
C23   C67   A    
C49   C50   S    
C24   O9    S    
C18   N3    A    
C57   H50   S    
C46   C47   S    
C31   C70   A    
C45   C56   A    
C8    C9    A    
C54   H44   S    
C50   H33   S    
C18   H12   S    
C47   H24   S    
C40   H8    S    
C15   O4    S    
H29   O7    S    
C42   H14   S    
Cu2   O12   S    
C65   H75   S    
Cu1   O26   S    
C66   H76   S    
C44   H20   S    
C38   H3    S    
C59   C60   S    
C51   H37   S    
C21   C22   A    
C37   H84   S    
C36   H56   S    
C9    H1    S    
H45   O28   S    
Cu1   O22   S    
C30   C70   A    
C61   H62   S    
C58   H53   S    
C55   H48   S    
C28   C31   S    
C48   H28   S    
C1    O12   A    
C39   H6    S    
C32   O19   S    
C11   O21   S    
C24   C25   A    
C66   H77   S    
C68   H81   S    
C10   C11   A    
C62   O17   S    
C49   O9    S    
C51   H36   S    
C38   H4    S    
C64   H72   S    
C52   H41   S    
H57   O15   S    
C10   C13   A    
C62   H66   S    
C60   C61   S    
C1    C3    S    
C39   H7    S    
C4    O23   A    
C2    C4    S    
C43   C44   S    
Cu2   O25   S    
C37   C38   S    
C68   H80   S    
C67   O20   S    
C57   H51   S    
C47   C48   S    
C46   H22   S    
C25   N6    A    
C30   O17   S    
C50   C51   S    
C63   H69   S    
C34   C45   A    
C43   H17   S    
C4    O22   A    
C12   C35   A    
C34   C69   A    
C55   O13   S    
C44   H19   S    
Cu1   O1    S    
C16   O25   A    
C40   C41   S    
C58   H54   S    
C51   H38   S    
C29   O16   S    
C55   C57   S    
C50   H35   S    
C14   C16   S    
C42   C43   S    
Cu1   O24   S    
C12   C34   A    
C21   O10   S    
Cu2   O27   S    
C39   C40   S    
C44   H18   S    
C52   C53   S    
C70   O28   S    
C38   H2    S    
H55   O14   S    
C15   C17   A    
C48   H27   S    
C19   O15   S    
C6    O5    S    
C10   O2    S    
C40   H9    S    
C59   O16   S    
C33   H34   S    
C3    C5    A    
C17   O6    S    
C27   O14   S    
C49   H31   S    
C6    C7    A    
C7    N1    S    
C64   H71   S    
C35   H23   S    
C56   C67   A    
C48   H26   S    
C26   N5    S    
C58   H52   S    
C47   H25   S    
C13   C17   A    
C56   O11   S    
N4    N5    D    
C39   O4    S    
C54   H46   S    
Cu1   Cu2   S    
C69   O18   S    
C68   H79   S    
C16   O24   A    
C52   O11   S    
C32   C33   A    
C57   C58   S    
C46   H21   S    
C64   H70   S    
C41   H10   S    
H82   O20   S    
H73   O18   S    
C33   C35   A    
C62   H65   S    
C36   H67   S    
Cu2   O23   S    
C8    O3    S    
C63   C64   S    
C42   O5    S    
C31   C69   A    
C20   C21   A    
C1    O1    A    
C26   C29   A    
C65   C66   S    
C20   N4    S    
C2    C23   A    
C36   O2    S    
C5    O7    S    
C14   C15   A    
C42   H15   S    
C65   H74   S    
C54   H47   S    
C60   H61   S    
C61   H63   S    
C41   H13   S    
C53   H43   S    
C61   H64   S    
