data_mof_unit_10588.cif
_audit_creation_date              2012-12-10T19:32:14-0500
_audit_creation_method            fapswitch 2.2
_symmetry_space_group_name_H-M    P1
_symmetry_Int_Tables_number       1
_space_group_crystal_system       triclinic
_cell_length_a                    23.441417
_cell_length_b                    15.7419
_cell_length_c                    14.902753
_cell_angle_alpha                 89.854785
_cell_angle_beta                  89.990035
_cell_angle_gamma                 90.301164
_cell_volume                      5499.20755317

loop_
_atom_site_label
_atom_site_type_symbol
_atom_type_description
_atom_site_fract_x
_atom_site_fract_y
_atom_site_fract_z
_atom_type_partial_charge
C1    C     C_R   0.500137 0.337544 0.500071 0.908154
C2    C     C_R   0.499837 0.662453 0.499872 0.908312
C3    C     C_R   0.231107 0.523021 0.438219 0.110401
C4    C     C_R   0.770161 0.489060 0.439247 0.105859
C5    C     C_R   0.291355 0.529824 0.429170 0.047273
C6    C     C_R   0.710015 0.482356 0.427914 0.052068
C7    C     C_R   0.325959 0.503258 0.502572 -0.136404
C8    C     C_R   0.674293 0.502049 0.502483 -0.134956
C9    C     C_R   0.300838 0.479627 0.584366 -0.251662
C10   C     C_R   0.698476 0.524725 0.585247 -0.256296
C11   C     C_R   0.242290 0.482898 0.597435 0.126304
C12   C     C_R   0.757057 0.526692 0.598484 0.127504
C13   C     C_R   0.207579 0.502466 0.523393 0.242501
C14   C     C_R   0.792573 0.509501 0.524996 0.247782
C15   C     C_3   0.546127 0.971739 0.459715 0.481539
C16   C     C_3   0.453184 0.028236 0.538797 0.482913
C17   C     C_3   0.501287 0.027870 0.414166 0.014933
C18   C     C_3   0.498030 0.972136 0.584348 0.014101
C19   C     C_1   0.500512 0.248920 0.500142 -0.183119
C20   C     C_1   0.499182 0.751063 0.499474 -0.180387
C21   C     C_3   0.546761 0.027664 0.544531 -0.345983
C22   C     C_3   0.452549 0.972294 0.453970 -0.346685
C23   C     C_R   0.388769 0.501389 0.500010 0.886248
C24   C     C_R   0.611336 0.499654 0.499910 0.882790
C25   C     C_3   0.500812 0.083237 0.499050 0.044669
C26   C     C_3   0.498503 0.916739 0.499487 0.044984
C27   C     C_1   0.500759 0.173835 0.499812 0.008253
C28   C     C_1   0.498705 0.826141 0.499223 0.007796
C29   C     C_3   0.458520 0.446026 0.970372 -0.005321
C30   C     C_3   0.540890 0.552785 0.029507 -0.007160
C31   C     C_3   0.509528 0.422053 0.030715 0.432596
C32   C     C_3   0.489831 0.576850 0.969298 0.439559
C33   C     C_3   0.448266 0.525884 0.029426 -0.001583
C34   C     C_3   0.551119 0.472917 0.970501 -0.007868
C35   C     C_3   0.499481 0.500752 0.090056 -0.092988
C36   C     C_3   0.499964 0.498128 0.909900 -0.099844
C37   C     C_1   0.499774 0.500192 0.189884 0.087740
C38   C     C_1   0.499971 0.499296 0.810108 0.112483
C39   C     C_R   0.881422 0.586477 0.533845 0.470937
C40   C     C_R   0.118026 0.428228 0.538027 0.470737
C41   C     C_R   0.879741 0.435925 0.554479 0.478742
C42   C     C_R   0.120700 0.579700 0.544979 0.481099
C43   C     C_R   0.938984 0.433630 0.559427 -0.041416
C44   C     C_R   0.061364 0.583049 0.549243 -0.042351
C45   C     C_R   0.970118 0.510088 0.552949 -0.039229
C46   C     C_R   0.030013 0.506738 0.552534 -0.038909
C47   C     C_R   0.941409 0.589273 0.544477 -0.053784
C48   C     C_R   0.058592 0.427219 0.553381 -0.053846
C49   C     C_R   0.967086 0.356007 0.569501 -0.175304
C50   C     C_R   0.033452 0.661297 0.548543 -0.174764
C51   C     C_R   0.026763 0.350892 0.568134 0.085876
C52   C     C_R   0.973726 0.666695 0.545475 0.082773
H1    H     H_    0.941704 0.298983 0.576516 0.188034
H2    H     H_    0.059211 0.718274 0.547664 0.187661
H3    H     H_    0.327797 0.459548 0.639085 0.174051
H4    H     H_    0.670783 0.540693 0.640459 0.174394
H5    H     H_    0.414038 0.948476 0.418507 0.161353
H6    H     H_    0.585299 0.051397 0.579972 0.163131
N1    N     N_R   0.852873 0.510849 0.538618 -0.344715
N2    N     N_R   0.147182 0.503429 0.536037 -0.346257
N3    N     N_1   0.500020 0.500000 0.268010 -0.104615
N4    N     N_1   0.499980 0.500000 0.731990 -0.098207
O1    O     O_R   0.500000 0.376780 0.574460 -0.610484
O2    O     O_R   0.500000 0.623220 0.425540 -0.610134
O3    O     O_R   0.500010 0.376780 0.425520 -0.604705
O4    O     O_R   0.499990 0.623220 0.574480 -0.604139
O5    O     O_R   0.416150 0.499970 0.574490 -0.619902
O6    O     O_R   0.583850 0.500030 0.425510 -0.615973
O7    O     O_R   0.416160 0.499980 0.425550 -0.615080
O8    O     O_R   0.583840 0.500020 0.574450 -0.622270
O9    O     O_2   0.851216 0.657386 0.517299 -0.609296
O10   O     O_2   0.146844 0.355824 0.522687 -0.601395
O11   O     O_2   0.848855 0.363637 0.562700 -0.580209
O12   O     O_2   0.151959 0.651996 0.546640 -0.579601
Zn1   Zn    Zn3+2 0.499990 0.500000 0.599450 0.973630
Zn2   Zn    Zn3+2 0.500010 0.500000 0.400550 0.963206
O13   O     O_3   0.519794 0.340892 0.065349 -0.786195
H7    H     H_    0.524615 0.303725 0.012347 0.326304
O14   O     O_3   0.479397 0.658022 0.934893 -0.783173
H8    H     H_    0.474668 0.695038 0.988046 0.323086
C53   C     C_3   0.415830 0.381852 0.931723 -0.403581
C54   C     C_3   0.379092 0.339985 0.004655 -0.324665
C55   C     C_3   0.340851 0.270926 0.965018 -0.886731
H9    H     H_    0.312504 0.298136 0.912724 0.267408
H10   H     H_    0.367155 0.219906 0.934864 0.267256
H11   H     H_    0.313961 0.242694 0.018823 0.252979
H12   H     H_    0.406726 0.311096 0.056894 0.257083
H13   H     H_    0.351605 0.388158 0.036985 0.220642
H14   H     H_    0.388130 0.414297 0.882020 0.193617
H15   H     H_    0.440280 0.332278 0.895516 0.199728
C56   C     C_3   0.584480 0.615945 0.067326 -0.403689
C57   C     C_3   0.618442 0.660849 0.993038 -0.320824
C58   C     C_3   0.663587 0.720013 0.032512 -0.894201
H16   H     H_    0.643196 0.769410 0.074667 0.269825
H17   H     H_    0.694278 0.683343 0.073931 0.261340
H18   H     H_    0.687397 0.751807 0.977331 0.255202
H19   H     H_    0.640056 0.613558 0.950071 0.221444
H20   H     H_    0.589238 0.698663 0.950185 0.255063
H21   H     H_    0.561300 0.664055 0.107577 0.197383
H22   H     H_    0.613771 0.581576 0.113148 0.195654
C59   C     C_3   0.606803 0.436778 0.933143 -0.398238
C60   C     C_3   0.650471 0.419169 0.007331 -0.330497
C61   C     C_3   0.701370 0.369862 0.971308 -0.892822
H23   H     H_    0.687335 0.306857 0.945901 0.266549
H24   H     H_    0.722411 0.405721 0.916185 0.272719
H25   H     H_    0.732810 0.359913 0.026015 0.248794
H26   H     H_    0.666253 0.479941 0.035731 0.220050
H27   H     H_    0.630339 0.381594 0.062008 0.255561
H28   H     H_    0.596418 0.376757 0.897436 0.198940
H29   H     H_    0.625092 0.481816 0.883312 0.190165
C62   C     C_3   0.392411 0.560310 0.067703 -0.415739
C63   C     C_3   0.349012 0.581357 0.994190 -0.307319
C64   C     C_3   0.292595 0.610151 0.034766 -0.910596
H30   H     H_    0.274231 0.559167 0.077811 0.261692
H31   H     H_    0.299102 0.668339 0.075565 0.263317
H32   H     H_    0.261848 0.624513 0.980194 0.259920
H33   H     H_    0.366024 0.632722 0.950342 0.254265
H34   H     H_    0.340708 0.524788 0.952077 0.222965
H35   H     H_    0.374272 0.512837 0.115143 0.198393
H36   H     H_    0.402333 0.618854 0.106128 0.196271
C65   C     C_3   0.056102 0.265678 0.585022 -0.335142
C66   C     C_3   0.018553 0.193939 0.623894 -0.424926
C67   C     C_3   0.054350 0.116867 0.649655 -0.853218
H37   H     H_    0.076493 0.091266 0.589697 0.267181
H38   H     H_    0.086478 0.134460 0.701241 0.264866
H39   H     H_    0.026235 0.066487 0.677861 0.251161
H40   H     H_    0.995998 0.216767 0.684817 0.236953
H41   H     H_    0.986694 0.173176 0.573140 0.229951
H42   H     H_    0.074656 0.242847 0.520891 0.243341
H43   H     H_    0.091000 0.276721 0.634256 0.232506
C68   C     C_3   0.944995 0.753875 0.543790 -0.334579
C69   C     C_3   0.983936 0.832197 0.555070 -0.427781
C70   C     C_3   0.949185 0.913949 0.557104 -0.846627
H44   H     H_    0.924099 0.920804 0.494291 0.267204
H45   H     H_    0.919707 0.913653 0.615475 0.263592
H46   H     H_    0.978382 0.969386 0.563068 0.254001
H47   H     H_    0.008235 0.827263 0.618927 0.235022
H48   H     H_    0.014222 0.836523 0.497801 0.233011
H49   H     H_    0.922696 0.761134 0.478434 0.244366
H50   H     H_    0.913342 0.755564 0.599341 0.237007
C71   C     C_3   0.191462 0.536437 0.358155 -0.397894
C72   C     C_3   0.195940 0.462610 0.291311 -0.352520
C73   C     C_3   0.160998 0.479924 0.206918 -0.887628
H51   H     H_    0.115304 0.488392 0.224341 0.267636
H52   H     H_    0.177028 0.537999 0.172494 0.260568
H53   H     H_    0.164767 0.425399 0.160202 0.254895
H54   H     H_    0.240912 0.451501 0.271399 0.217870
H55   H     H_    0.179774 0.403498 0.323708 0.253588
H56   H     H_    0.146084 0.540273 0.378202 0.208577
H57   H     H_    0.200208 0.598726 0.325810 0.201527
C74   C     C_3   0.811149 0.475013 0.361087 -0.407372
C75   C     C_3   0.813343 0.553268 0.299385 -0.343645
C76   C     C_3   0.848835 0.536052 0.215636 -0.888885
H58   H     H_    0.893162 0.518958 0.234541 0.266580
H59   H     H_    0.829524 0.483418 0.176263 0.260511
H60   H     H_    0.850205 0.593941 0.172946 0.255022
H61   H     H_    0.769828 0.572532 0.278439 0.219110
H62   H     H_    0.832723 0.607402 0.336413 0.257830
H63   H     H_    0.855277 0.462673 0.383925 0.207577
H64   H     H_    0.799654 0.416360 0.323947 0.200871
C77   C     C_3   0.318117 0.570196 0.345379 -0.413697
C78   C     C_3   0.343659 0.658073 0.366715 -0.294764
C79   C     C_3   0.377299 0.693621 0.287343 -0.883004
H65   H     H_    0.413460 0.651053 0.270959 0.270039
H66   H     H_    0.349177 0.700181 0.227810 0.252154
H67   H     H_    0.394726 0.757217 0.304751 0.247147
H68   H     H_    0.308537 0.702559 0.383291 0.219432
H69   H     H_    0.372511 0.655237 0.425615 0.217679
H70   H     H_    0.349895 0.527089 0.315100 0.224353
H71   H     H_    0.287525 0.579653 0.290047 0.196240
C80   C     C_3   0.684676 0.450687 0.339284 -0.410678
C81   C     C_3   0.662096 0.359215 0.348400 -0.329607
C82   C     C_3   0.634020 0.329127 0.261672 -0.827801
H72   H     H_    0.598189 0.371616 0.243141 0.283132
H73   H     H_    0.665817 0.328356 0.206445 0.246782
H74   H     H_    0.616993 0.263737 0.271031 0.247770
H75   H     H_    0.698183 0.316290 0.364658 0.219248
H76   H     H_    0.630498 0.353945 0.403590 0.226802
H77   H     H_    0.651567 0.494762 0.314435 0.223473
H78   H     H_    0.715497 0.451237 0.283347 0.194699
C83   C     C_3   0.215071 0.465474 0.688971 -0.381989
C84   C     C_3   0.256393 0.456477 0.768714 -0.383405
C85   C     C_3   0.223966 0.447002 0.857079 -0.883339
H79   H     H_    0.197963 0.504454 0.870117 0.266709
H80   H     H_    0.195606 0.390289 0.854949 0.265170
H81   H     H_    0.254664 0.439027 0.913135 0.254964
H82   H     H_    0.283280 0.399163 0.759707 0.225430
H83   H     H_    0.284331 0.513622 0.773145 0.231432
H84   H     H_    0.185701 0.518782 0.704218 0.211210
H85   H     H_    0.189168 0.406355 0.684536 0.220614
C86   C     C_3   0.783615 0.546695 0.689782 -0.380839
C87   C     C_3   0.741800 0.558036 0.768424 -0.387648
C88   C     C_3   0.773614 0.573501 0.856319 -0.881318
H86   H     H_    0.801906 0.519054 0.871969 0.263793
H87   H     H_    0.799654 0.632502 0.851641 0.267037
H88   H     H_    0.742487 0.580583 0.911920 0.255583
H89   H     H_    0.713766 0.613484 0.755534 0.229719
H90   H     H_    0.715075 0.499933 0.776119 0.225257
H91   H     H_    0.813005 0.494045 0.707509 0.213336
H92   H     H_    0.809431 0.605791 0.683387 0.222714
C89   C     C_3   0.504131 0.063007 0.318564 -0.392969
C90   C     C_3   0.501369 0.991631 0.248966 -0.321379
C91   C     C_3   0.504140 0.027231 0.153711 -0.876916
H93   H     H_    0.467655 0.070440 0.141233 0.267838
H94   H     H_    0.544731 0.062650 0.143313 0.267279
H95   H     H_    0.502074 0.974263 0.104719 0.249579
H96   H     H_    0.537604 0.947382 0.258974 0.253669
H97   H     H_    0.460915 0.955240 0.257043 0.220276
H98   H     H_    0.467739 0.106962 0.308429 0.216567
H99   H     H_    0.544508 0.099577 0.310560 0.196132
C92   C     C_3   0.495234 0.937166 0.680026 -0.391334
C93   C     C_3   0.497998 0.008661 0.749493 -0.321819
C94   C     C_3   0.495289 0.973247 0.844830 -0.876495
H100  H     H_    0.454701 0.937863 0.855376 0.268746
H101  H     H_    0.531779 0.930058 0.857345 0.267203
H102  H     H_    0.497389 0.026311 0.893703 0.249018
H103  H     H_    0.538438 0.045053 0.741302 0.221712
H104  H     H_    0.461745 0.052868 0.739439 0.253970
H105  H     H_    0.454868 0.900609 0.688133 0.201485
H106  H     H_    0.531643 0.893251 0.690213 0.215951
O15   O     O_3   0.594614 0.938695 0.418119 -0.763984
H107  H     H_    0.617616 0.988855 0.399911 0.325384
O16   O     O_3   0.404698 0.061289 0.580389 -0.763619
H108  H     H_    0.381656 0.011135 0.598490 0.326882

loop_
_geom_bond_atom_site_label_1
_geom_bond_atom_site_label_2
_ccdc_geom_bond_type
C81   H75   S    
C73   H53   S    
C63   H34   S    
C91   H93   S    
C49   H1    S    
C15   O15   S    
C58   H16   S    
C40   N2    A    
C18   C21   S    
C89   C90   S    
C23   O7    A    
C62   C63   S    
C11   C83   S    
C65   H43   S    
C80   C81   S    
C22   H5    S    
C77   C78   S    
C24   O8    A    
C67   H37   S    
C13   N2    S    
O13   H7    S    
C92   H106  S    
C91   H94   S    
C29   C36   S    
C50   H2    S    
O3    Zn2   S    
O1    Zn1   S    
C30   C35   S    
C32   C36   S    
C79   H66   S    
C86   H91   S    
C64   H30   S    
C85   H80   S    
C63   H33   S    
C74   H64   S    
C7    C23   S    
C67   H38   S    
C93   H103  S    
C69   H48   S    
C73   H51   S    
C29   C33   S    
C78   H68   S    
O7    Zn2   S    
C62   H35   S    
C23   O5    A    
C66   H40   S    
C12   C86   S    
C84   C85   S    
C68   H50   S    
C33   C35   S    
C83   H84   S    
C48   C51   A    
C73   H52   S    
C76   H58   S    
O16   H108  S    
C2    O2    A    
C69   C70   S    
C88   H87   S    
C3    C71   S    
C71   H57   S    
C70   H46   S    
C1    O3    A    
C74   C75   S    
C60   H27   S    
C9    H3    S    
C87   H90   S    
C56   H22   S    
C76   H59   S    
C19   C27   T    
C34   C36   S    
C3    C13   A    
C64   H32   S    
C53   H14   S    
C45   C47   A    
C58   H17   S    
C90   H97   S    
C4    C14   A    
C41   C43   A    
C80   H77   S    
C42   C44   A    
C1    O1    A    
C89   H98   S    
C63   C64   S    
C44   C46   A    
C57   H19   S    
C31   O13   S    
C46   C48   A    
C6    C80   S    
C82   H73   S    
N3    Zn2   S    
C91   H95   S    
C75   H62   S    
C42   O12   S    
C34   C59   S    
C1    C19   S    
C90   C91   S    
C30   C34   S    
C2    C20   S    
C86   C87   S    
C59   C60   S    
C72   H55   S    
C79   H67   S    
C86   H92   S    
C41   N1    A    
C4    C6    A    
C85   H81   S    
C42   N2    A    
C56   C57   S    
C5    C7    A    
C24   O6    A    
C43   C49   A    
C15   C26   S    
C6    C8    A    
C20   C28   T    
C49   C51   A    
C59   H29   S    
C82   H72   S    
C53   C54   S    
C67   H39   S    
C38   N4    T    
C62   H36   S    
C7    C9    A    
C74   H63   S    
C83   C84   S    
C85   H79   S    
C92   C93   S    
C29   C53   S    
O15   H107  S    
C14   N1    S    
C9    C11   A    
C83   H85   S    
C50   C52   A    
C55   H9    S    
C94   H100  S    
C88   H88   S    
C39   N1    A    
C18   C26   S    
O2    Zn2   S    
C31   C34   S    
C60   H26   S    
C61   H24   S    
C16   C18   S    
C84   H83   S    
C87   H89   S    
C93   C94   S    
C76   H60   S    
C17   C89   S    
C43   C45   A    
C65   C66   S    
C10   C12   A    
C33   C62   S    
C53   H15   S    
C81   H76   S    
C55   H10   S    
C12   C14   A    
C54   C55   S    
C58   H18   S    
C90   H96   S    
C70   H44   S    
C51   C65   S    
C78   H69   S    
N4    Zn1   S    
O5    Zn1   S    
C77   H71   S    
C68   C69   S    
C3    C5    A    
C89   H99   S    
O8    Zn1   S    
C10   H4    S    
C81   C82   S    
C39   C47   A    
C78   C79   S    
C94   H102  S    
C44   C50   A    
C16   C25   S    
C40   C48   A    
C4    C74   S    
C21   C25   S    
C75   H61   S    
C16   C22   S    
C40   O10   S    
C35   C37   S    
C52   C68   S    
C72   H54   S    
C65   H42   S    
C30   C56   S    
C2    O4    A    
C37   N3    T    
C82   H74   S    
C15   C17   S    
C47   C52   A    
O6    Zn2   S    
C92   H105  S    
C71   H56   S    
C26   C28   S    
C17   C22   S    
C17   C25   S    
C32   C33   S    
C36   C38   S    
C18   C92   S    
C69   H47   S    
C94   H101  S    
C77   H70   S    
C21   H6    S    
C29   C31   S    
C71   C72   S    
C87   C88   S    
C32   O14   S    
C30   C32   S    
C11   C13   A    
C93   H104  S    
C54   H13   S    
O4    Zn1   S    
C57   C58   S    
C8    C24   S    
C61   H25   S    
C31   C35   S    
C84   H82   S    
C66   H41   S    
C60   C61   S    
C80   H78   S    
C79   H65   S    
C68   H49   S    
C57   H20   S    
C41   O11   S    
O14   H8    S    
C45   C46   A    
C15   C21   S    
C55   H11   S    
C75   C76   S    
C8    C10   A    
C88   H86   S    
C22   C26   S    
C61   H23   S    
C70   H45   S    
C39   O9    S    
C72   C73   S    
C16   O16   S    
C56   H21   S    
C66   C67   S    
C59   H28   S    
C54   H12   S    
C5    C77   S    
C64   H31   S    
C25   C27   S    
