data_mof_unit_42994.cif
_audit_creation_date              2012-12-10T17:36:22-0500
_audit_creation_method            fapswitch 2.2
_symmetry_space_group_name_H-M    P1
_symmetry_Int_Tables_number       1
_space_group_crystal_system       triclinic
_cell_length_a                    12.328297
_cell_length_b                    13.155688
_cell_length_c                    15.859097
_cell_angle_alpha                 77.762814
_cell_angle_beta                  100.792295
_cell_angle_gamma                 116.557069
_cell_volume                      2235.85916581

loop_
_atom_site_label
_atom_site_type_symbol
_atom_type_description
_atom_site_fract_x
_atom_site_fract_y
_atom_site_fract_z
_atom_type_partial_charge
C1    C     C_R   0.854999 0.286531 0.507770 0.762989
C2    C     C_3   0.001465 0.397223 0.065165 -0.470544
C3    C     C_3   0.005030 0.510443 0.081808 0.220602
C4    C     C_3   0.126112 0.608471 0.049993 -0.476640
C5    C     C_3   0.136428 0.610591 0.951171 0.727805
C6    C     C_1   0.003720 0.505514 0.174749 -0.068697
C7    C     C_1   0.004966 0.512539 0.823055 -0.026926
C8    C     C_1   0.001901 0.506506 0.748192 -0.203732
C9    C     C_R   0.277714 0.022181 0.385469 -0.191186
C10   C     C_R   0.227749 0.835060 0.471175 -0.046438
C11   C     C_R   0.813638 0.086142 0.570253 -0.189624
C12   C     C_R   0.999848 0.500723 0.659393 0.822885
C13   C     C_R   0.733288 0.972435 0.591591 -0.149198
C14   C     C_R   0.610358 0.934909 0.561198 -0.183654
C15   C     C_R   0.565405 0.010347 0.505298 0.082909
C16   C     C_R   0.650192 0.123439 0.476697 0.087021
C17   C     C_R   0.439433 0.977066 0.476067 0.083225
C18   C     C_R   0.401597 0.053926 0.414815 0.173376
C19   C     C_R   0.487952 0.160076 0.381256 -0.245836
C20   C     C_R   0.610466 0.193288 0.410161 -0.193345
C21   C     C_R   0.349546 0.869269 0.505390 -0.242665
C22   C     C_R   0.191097 0.912748 0.413050 -0.194049
C23   C     C_R   0.144963 0.713474 0.487804 0.795816
C24   C     C_R   0.772927 0.163336 0.514948 -0.113283
C25   C     C_R   0.339734 0.321303 0.633862 -0.259365
C26   C     C_R   0.759224 0.643467 0.382077 -0.008976
C27   C     C_R   0.656580 0.662678 0.348267 -0.325724
C28   C     C_R   0.547144 0.597697 0.385532 0.486640
C29   C     C_R   0.545913 0.524832 0.466212 -0.132289
C30   C     C_R   0.651191 0.502760 0.494946 0.180807
C31   C     C_R   0.443864 0.469057 0.516878 -0.108524
C32   C     C_R   0.442057 0.381002 0.586989 0.087595
C33   C     C_R   0.542157 0.353852 0.610923 0.384773
C34   C     C_R   0.000693 0.500349 0.340457 0.823285
C35   C     C_R   0.645665 0.416772 0.566186 -0.260382
C36   C     C_R   0.343655 0.498325 0.502329 0.049297
C37   C     C_R   0.242198 0.350726 0.613349 0.050520
C38   C     C_3   0.990995 0.397488 0.966411 -0.424849
C39   C     C_3   0.903519 0.544533 0.929255 -0.481657
C40   C     C_3   0.889819 0.521951 0.027637 0.144811
C41   C     C_1   0.002722 0.502441 0.250707 -0.195909
C42   C     C_3   0.009785 0.518358 0.914998 0.205308
Cu1   Cu    Cu3+1 0.098280 0.475420 0.519630 0.939130
Cu2   Cu    Cu3+1 0.901720 0.524580 0.480370 0.921024
H1    H     H_    0.922802 0.321629 0.093285 0.171124
H2    H     H_    0.058865 0.370655 0.952551 0.211821
H3    H     H_    0.085270 0.387680 0.097139 0.188493
H4    H     H_    0.134657 0.692429 0.060172 0.148081
H5    H     H_    0.096832 0.887224 0.385936 0.146589
H6    H     H_    0.460910 0.217468 0.331705 0.146471
H7    H     H_    0.248460 0.080595 0.338809 0.128176
H8    H     H_    0.371594 0.808374 0.553607 0.144320
H9    H     H_    0.907168 0.114557 0.599631 0.152337
H10   H     H_    0.553902 0.845780 0.581674 0.129579
H11   H     H_    0.765780 0.913608 0.634369 0.141114
H12   H     H_    0.899100 0.332357 0.945572 0.171857
H13   H     H_    0.673528 0.273489 0.377855 0.172088
H14   H     H_    0.163069 0.304379 0.648943 0.126000
H15   H     H_    0.334978 0.252793 0.686899 0.178610
H16   H     H_    0.342008 0.569809 0.455115 0.185310
H17   H     H_    0.841248 0.689440 0.349595 0.146812
H18   H     H_    0.659113 0.721467 0.288632 0.160911
H19   H     H_    0.719130 0.393437 0.587314 0.210892
H20   H     H_    0.918400 0.633447 0.899996 0.187755
H21   H     H_    0.816459 0.487569 0.895137 0.156082
H22   H     H_    0.812126 0.435404 0.038344 0.111097
H23   H     H_    0.201679 0.597888 0.094666 0.158286
N1    N     N_R   0.246300 0.438200 0.549400 -0.188761
N2    N     N_R   0.754300 0.561180 0.451130 -0.184278
O1    O     O_R   0.972520 0.318130 0.524690 -0.578507
O2    O     O_R   0.806530 0.359650 0.491530 -0.601128
O3    O     O_R   0.083030 0.479240 0.637150 -0.567855
O4    O     O_R   0.917040 0.520750 0.603990 -0.594032
O5    O     O_R   0.193470 0.640350 0.508470 -0.586397
O6    O     O_R   0.027480 0.681870 0.475310 -0.584324
O7    O     O_R   0.082960 0.479250 0.396010 -0.575240
O8    O     O_R   0.916970 0.520760 0.362850 -0.586154
O9    O     O_3   0.529420 0.256258 0.671290 -0.617053
C43   C     C_3   0.632222 0.271193 0.733327 0.027875
H24   H     H_    0.599502 0.245789 0.798576 0.163524
H25   H     H_    0.703407 0.361370 0.731887 0.121277
C44   C     C_3   0.686213 0.190514 0.722909 -0.301847
H26   H     H_    0.612459 0.102183 0.721427 0.237645
H27   H     H_    0.726661 0.219398 0.660596 0.209221
C45   C     C_3   0.784019 0.186889 0.796622 -0.955636
H28   H     H_    0.861114 0.273036 0.797349 0.257052
H29   H     H_    0.819017 0.126131 0.786994 0.260604
H30   H     H_    0.745608 0.157458 0.860000 0.252849
O10   O     O_3   0.442457 0.599675 0.336409 -0.635004
C46   C     C_3   0.373589 0.495473 0.301105 0.053636
H31   H     H_    0.286121 0.497246 0.268927 0.177735
H32   H     H_    0.349179 0.419068 0.352415 0.143852
C47   C     C_3   0.438667 0.481598 0.233292 -0.383396
H33   H     H_    0.469302 0.560813 0.185109 0.220475
H34   H     H_    0.520111 0.467760 0.265545 0.216191
C48   C     C_3   0.355284 0.378817 0.186764 -0.944873
H35   H     H_    0.323389 0.298804 0.234184 0.251809
H36   H     H_    0.405860 0.369464 0.140054 0.258272
H37   H     H_    0.275209 0.391456 0.150504 0.250553
N3    N     N_2   0.851333 0.599764 0.054171 -0.419559
H38   H     H_    0.800700 0.563666 0.106484 0.248579
C49   C     C_3   0.932775 0.719659 0.056369 -0.684176
H39   H     H_    0.879126 0.766372 0.062060 0.221388
H40   H     H_    0.977252 0.759643 0.996047 0.216672
H41   H     H_    0.001346 0.729433 0.114041 0.222545
O11   O     O_3   0.228066 0.577726 0.938456 -0.619799
C50   C     C_3   0.344796 0.623992 0.986651 0.055025
H42   H     H_    0.404817 0.600376 0.958380 0.171254
H43   H     H_    0.342843 0.579683 0.054233 0.138797
C51   C     C_3   0.406618 0.755523 0.982356 -0.348424
H44   H     H_    0.413513 0.796721 0.913647 0.238896
H45   H     H_    0.353888 0.784825 0.013044 0.227798
C52   C     C_3   0.535025 0.795433 0.030076 -0.942152
H46   H     H_    0.531341 0.758556 0.099852 0.258372
H47   H     H_    0.578255 0.890564 0.024792 0.258919
H48   H     H_    0.592060 0.768885 0.001192 0.258414
N4    N     N_2   0.161052 0.726424 0.903855 -0.467569
H49   H     H_    0.114497 0.767988 0.917807 0.216642
C53   C     C_3   0.190895 0.757757 0.814963 -0.684772
H50   H     H_    0.106889 0.742991 0.769413 0.220469
H51   H     H_    0.237964 0.709315 0.800937 0.263716
H52   H     H_    0.252571 0.850689 0.803741 0.220750

loop_
_geom_bond_atom_site_label_1
_geom_bond_atom_site_label_2
_ccdc_geom_bond_type
C5    C42   S    
C48   H37   S    
C47   H33   S    
C39   H21   S    
C19   C20   A    
C9    H7    S    
C3    C6    S    
C7    C8    T    
C45   H28   S    
C10   C22   A    
C39   H20   S    
C26   C27   A    
C1    O2    A    
C30   C35   A    
Cu2   O2    S    
Cu2   O8    S    
C26   H17   S    
C38   C42   S    
N4    C53   S    
C34   O8    A    
C9    C22   A    
C45   H30   S    
O11   C50   S    
C15   C16   A    
C37   N1    A    
C11   C24   A    
C49   H41   S    
C18   C19   A    
C7    C42   S    
C51   H44   S    
C25   C37   A    
Cu1   N1    S    
C6    C41   T    
C48   H36   S    
C50   H42   S    
C28   O10   S    
C37   H14   S    
C11   H9    S    
C16   C20   A    
C52   H48   S    
C25   C32   A    
C45   H29   S    
C12   O3    A    
C16   C24   A    
C40   H22   S    
C12   O4    A    
C50   H43   S    
C49   H39   S    
C34   C41   S    
C39   C42   S    
C5    O11   S    
C53   H51   S    
C10   C21   A    
C39   C40   S    
C43   H25   S    
O9    C43   S    
C17   C21   A    
C5    N4    S    
Cu2   O6    S    
Cu1   Cu2   S    
C29   C30   A    
C27   H18   S    
C4    H23   S    
C2    C38   S    
C46   H32   S    
C31   C32   A    
C8    C12   S    
C48   H35   S    
N3    C49   S    
C17   C18   A    
Cu2   N2    S    
C49   H40   S    
C51   C52   S    
C22   H5    S    
C14   H10   S    
C3    C40   S    
C47   C48   S    
C44   H27   S    
C2    H3    S    
C50   C51   S    
C23   O5    A    
C3    C4    S    
C30   N2    A    
C46   C47   S    
C52   H46   S    
C4    H4    S    
C53   H52   S    
Cu1   O7    S    
C15   C17   A    
Cu1   O3    S    
C28   C29   A    
C31   C36   A    
C23   O6    A    
C4    C5    S    
C36   H16   S    
C40   N3    S    
C43   C44   S    
C53   H50   S    
C36   N1    A    
C10   C23   S    
Cu1   O1    S    
C44   C45   S    
C1    O1    A    
C32   C33   A    
C2    C3    S    
O10   C46   S    
C29   C31   A    
N4    H49   S    
C11   C13   A    
C19   H6    S    
C46   H31   S    
Cu1   O5    S    
N3    H38   S    
C33   C35   A    
Cu2   O4    S    
C33   O9    S    
C51   H45   S    
C38   H2    S    
C2    H1    S    
C43   H24   S    
C9    C18   A    
C38   H12   S    
C1    C24   S    
C47   H34   S    
C44   H26   S    
C27   C28   A    
C26   N2    A    
C14   C15   A    
C35   H19   S    
C25   H15   S    
C13   H11   S    
C20   H13   S    
C13   C14   A    
C21   H8    S    
C34   O7    A    
C52   H47   S    
