data_mof_unit_66608.cif
_audit_creation_date              2012-12-10T18:20:00-0500
_audit_creation_method            fapswitch 2.2
_symmetry_space_group_name_H-M    P1
_symmetry_Int_Tables_number       1
_space_group_crystal_system       triclinic
_cell_length_a                    10.743889
_cell_length_b                    10.746497
_cell_length_c                    9.637807
_cell_angle_alpha                 91.477033
_cell_angle_beta                  90.19999
_cell_angle_gamma                 90.708954
_cell_volume                      1112.3102391

loop_
_atom_site_label
_atom_site_type_symbol
_atom_type_description
_atom_site_fract_x
_atom_site_fract_y
_atom_site_fract_z
_atom_type_partial_charge
C1    C     C_R   0.505941 0.260394 0.498228 0.839057
C2    C     C_R   0.493973 0.739564 0.501839 0.838425
C3    C     C_3   0.435291 0.968809 0.613940 0.079881
C4    C     C_3   0.564627 0.031052 0.386581 0.078834
C5    C     C_3   0.513874 0.610164 0.052990 0.608762
C6    C     C_3   0.485780 0.389886 0.947083 0.610252
C7    C     C_3   0.410803 0.566561 0.952378 0.115570
C8    C     C_3   0.588978 0.433445 0.047600 0.115027
C9    C     C_3   0.603006 0.544426 0.952361 0.015251
C10   C     C_3   0.396646 0.455665 0.047776 0.025825
C11   C     C_R   0.260274 0.497023 0.499761 0.872582
C12   C     C_R   0.739987 0.503442 0.500079 0.867300
C13   C     C_3   0.039683 0.463227 0.622820 0.426731
C14   C     C_3   0.961583 0.539983 0.375271 0.415034
C15   C     C_3   0.955001 0.386184 0.523301 -0.049502
C16   C     C_3   0.046766 0.617466 0.475735 -0.059174
C17   C     C_3   0.877573 0.504469 0.499384 -0.274837
C18   C     C_3   0.123198 0.498046 0.499565 -0.267334
C19   C     C_3   0.963800 0.581631 0.599617 0.415067
C20   C     C_3   0.037516 0.421343 0.400049 0.421099
C21   C     C_3   0.557880 0.045025 0.613755 0.536084
C22   C     C_3   0.442021 0.954873 0.386700 0.536292
C23   C     C_3   0.615392 0.953407 0.506135 0.002603
C24   C     C_3   0.384513 0.046444 0.494387 -0.008032
C25   C     C_3   0.492737 0.876813 0.505603 -0.199886
C26   C     C_3   0.507143 0.123074 0.494826 -0.201381
Cu1   Cu    Cu3+1 0.500030 0.499990 0.643150 0.999217
Cu2   Cu    Cu3+1 0.499970 0.500010 0.356850 0.999360
N1    N     N_3   0.500090 0.499970 0.858290 -0.227223
N2    N     N_3   0.499910 0.500030 0.141710 -0.226860
O1    O     O_R   0.500060 0.316850 0.620870 -0.485390
O2    O     O_R   0.499940 0.683150 0.379130 -0.484925
O3    O     O_R   0.500000 0.316860 0.379090 -0.615031
O4    O     O_R   0.500000 0.683140 0.620910 -0.616236
O5    O     O_R   0.316880 0.499960 0.620870 -0.550645
O6    O     O_R   0.683120 0.500040 0.379130 -0.550353
O7    O     O_R   0.316830 0.499970 0.379090 -0.578396
O8    O     O_R   0.683170 0.500030 0.620910 -0.577444
C27   C     C_3   0.901846 0.256360 0.550009 -0.803557
H1    H     H_    0.977784 0.193796 0.581344 0.247161
H2    H     H_    0.829999 0.260441 0.632066 0.240858
H3    H     H_    0.855953 0.216935 0.456087 0.215334
C28   C     C_3   0.110308 0.743519 0.453758 -0.858786
H4    H     H_    0.039531 0.816717 0.441306 0.235810
H5    H     H_    0.170735 0.767619 0.543495 0.219003
H6    H     H_    0.171845 0.739665 0.361897 0.255359
O9    O     O_3   0.095067 0.418612 0.744132 -0.565396
C29   C     C_3   0.004566 0.396329 0.845564 -0.334391
H7    H     H_    0.910991 0.372509 0.804214 0.171442
H8    H     H_    0.998912 0.478626 0.916440 0.183892
H9    H     H_    0.033599 0.314731 0.904790 0.164528
O10   O     O_3   0.908052 0.574805 0.248020 -0.577234
C30   C     C_3   0.988920 0.654133 0.175826 -0.352214
H10   H     H_    0.967417 0.647172 0.064075 0.166564
H11   H     H_    0.087866 0.628492 0.185154 0.170505
H12   H     H_    0.974318 0.752258 0.209860 0.185204
O11   O     O_3   0.910528 0.659393 0.702682 -0.593423
C31   C     C_3   0.997298 0.747297 0.756002 -0.370260
H13   H     H_    0.997080 0.831655 0.692071 0.186292
H14   H     H_    0.092454 0.709726 0.764128 0.181117
H15   H     H_    0.967784 0.776715 0.861792 0.168967
O12   O     O_3   0.088238 0.332617 0.307061 -0.589838
C32   C     C_3   0.000979 0.299410 0.203474 -0.354218
H16   H     H_    0.988551 0.377476 0.132645 0.196817
H17   H     H_    0.910111 0.270379 0.246481 0.175770
H18   H     H_    0.037563 0.219332 0.141974 0.168636
C33   C     C_3   0.744100 0.894081 0.505266 -0.840746
H19   H     H_    0.817527 0.967587 0.506522 0.230010
H20   H     H_    0.755125 0.834257 0.596271 0.251602
H21   H     H_    0.754759 0.834603 0.410291 0.257991
C34   C     C_3   0.255723 0.105444 0.495453 -0.816769
H22   H     H_    0.182503 0.031742 0.495061 0.230122
H23   H     H_    0.245334 0.165404 0.590098 0.258731
H24   H     H_    0.244244 0.164636 0.404041 0.256327
O13   O     O_3   0.613557 0.105302 0.730748 -0.522107
C35   C     C_3   0.699068 0.027575 0.795741 -0.355992
H25   H     H_    0.792018 0.037621 0.747246 0.177134
H26   H     H_    0.668920 0.928527 0.793674 0.153402
H27   H     H_    0.708439 0.058112 0.906139 0.178803
O14   O     O_3   0.386296 0.894567 0.269757 -0.522460
C36   C     C_3   0.300742 0.972271 0.204796 -0.356893
H28   H     H_    0.331026 0.071280 0.206623 0.153613
H29   H     H_    0.207858 0.962390 0.253491 0.179487
H30   H     H_    0.291139 0.941574 0.094471 0.177847
C37   C     C_3   0.353575 0.941669 0.737960 -0.851626
H31   H     H_    0.311100 0.028883 0.777225 0.249497
H32   H     H_    0.277450 0.876825 0.706773 0.212549
H33   H     H_    0.408642 0.902241 0.821594 0.223838
C38   C     C_3   0.646840 0.059065 0.263348 -0.849484
H34   H     H_    0.690910 0.972468 0.224586 0.247634
H35   H     H_    0.591690 0.097375 0.179018 0.223166
H36   H     H_    0.721595 0.125229 0.295820 0.213835
C39   C     C_3   0.303886 0.643044 0.900545 -0.834911
H37   H     H_    0.273718 0.709939 0.982985 0.221637
H38   H     H_    0.333012 0.693374 0.807797 0.254371
H39   H     H_    0.225219 0.579948 0.873253 0.276168
C40   C     C_3   0.695155 0.356275 0.099757 -0.837684
H40   H     H_    0.727082 0.291040 0.016538 0.222053
H41   H     H_    0.772725 0.419058 0.130599 0.279574
H42   H     H_    0.664490 0.304393 0.190663 0.255450
O15   O     O_3   0.524175 0.729323 0.116330 -0.496143
C41   C     C_3   0.570598 0.815885 0.022249 -0.328010
H43   H     H_    0.549501 0.790515 0.912406 0.143753
H44   H     H_    0.672574 0.827194 0.036400 0.156264
H45   H     H_    0.527704 0.906829 0.045081 0.206726
O16   O     O_3   0.475425 0.270593 0.884179 -0.495836
C42   C     C_3   0.428624 0.184638 0.978734 -0.328508
H46   H     H_    0.326456 0.174416 0.965312 0.157854
H47   H     H_    0.450510 0.209950 0.088445 0.144249
H48   H     H_    0.470642 0.093275 0.955878 0.205945
C43   C     C_3   0.723796 0.596958 0.900176 -0.704982
H49   H     H_    0.775281 0.640751 0.988038 0.219903
H50   H     H_    0.778868 0.520456 0.855642 0.261749
H51   H     H_    0.705073 0.667400 0.821061 0.261258
C44   C     C_3   0.274571 0.404425 0.099689 -0.721586
H52   H     H_    0.221271 0.363187 0.011368 0.221239
H53   H     H_    0.291959 0.332396 0.177383 0.260990
H54   H     H_    0.220261 0.480794 0.146141 0.259424

loop_
_geom_bond_atom_site_label_1
_geom_bond_atom_site_label_2
_ccdc_geom_bond_type
C9    C43   S    
C7    C10   S    
C21   C26   S    
C32   H17   S    
C11   C18   S    
O15   C41   S    
C7    N1    S    
C3    C37   S    
C43   H49   S    
C35   H27   S    
C28   H4    S    
C36   H30   S    
C40   H40   S    
C1    O3    A    
C27   H2    S    
C30   H10   S    
C19   O11   S    
C39   H37   S    
C13   C18   S    
C24   C26   S    
C4    C38   S    
C16   C19   S    
C37   H33   S    
Cu1   N1    S    
O16   C42   S    
Cu1   O8    S    
C31   H14   S    
C44   H52   S    
C1    O1    A    
C41   H45   S    
C2    O2    A    
C23   C33   S    
C11   O7    A    
C36   H29   S    
C11   O5    A    
C29   H9    S    
C14   O10   S    
C8    C9    S    
C44   H53   S    
C22   C25   S    
C12   C17   S    
C42   H46   S    
C14   C16   S    
C12   O6    A    
C9    N1    S    
C2    O4    A    
C31   H15   S    
C29   H8    S    
C32   H18   S    
C39   H38   S    
C12   O8    A    
C42   H47   S    
C14   C17   S    
C3    C24   S    
C40   H41   S    
C36   H28   S    
C27   H3    S    
C30   H11   S    
Cu1   O4    S    
C15   C20   S    
C7    C39   S    
C5    O15   S    
C13   C19   S    
C37   H32   S    
Cu1   O1    S    
C33   H19   S    
C14   C20   S    
Cu2   O2    S    
C35   H25   S    
C27   H1    S    
C5    C7    S    
C4    C23   S    
C6    C8    S    
Cu1   O5    S    
C31   H13   S    
C37   H31   S    
C33   H20   S    
O13   C35   S    
C5    C9    S    
O12   C32   S    
C4    C22   S    
C10   N2    S    
O9    C29   S    
C3    C25   S    
C44   H54   S    
C6    O16   S    
C43   H50   S    
C38   H36   S    
C41   H44   S    
C28   H5    S    
C16   C28   S    
C15   C27   S    
C29   H7    S    
Cu2   O3    S    
C39   H39   S    
C21   C23   S    
C1    C26   S    
C42   H48   S    
C22   C24   S    
C3    C21   S    
C38   H35   S    
C43   H51   S    
C40   H42   S    
O10   C30   S    
C13   O9    S    
C5    N2    S    
C30   H12   S    
C15   C17   S    
C35   H26   S    
O14   C36   S    
C6    C10   S    
C34   H24   S    
C4    C26   S    
C21   O13   S    
C33   H21   S    
C8    N2    S    
C13   C15   S    
C22   O14   S    
C34   H22   S    
O11   C31   S    
Cu2   O7    S    
C8    C40   S    
Cu2   N2    S    
C17   C19   S    
C2    C25   S    
C18   C20   S    
C23   C25   S    
C20   O12   S    
C41   H43   S    
C28   H6    S    
C32   H16   S    
C6    N1    S    
Cu2   O6    S    
C16   C18   S    
C34   H23   S    
Cu1   Cu2   S    
C38   H34   S    
C10   C44   S    
C24   C34   S    
