data_mof_unit_54473.cif
_audit_creation_date              2012-12-10T20:32:44-0500
_audit_creation_method            fapswitch 2.2
_symmetry_space_group_name_H-M    P1
_symmetry_Int_Tables_number       1
_space_group_crystal_system       triclinic
_cell_length_a                    11.511827
_cell_length_b                    10.756577
_cell_length_c                    9.942743
_cell_angle_alpha                 90.191665
_cell_angle_beta                  89.645564
_cell_angle_gamma                 89.240391
_cell_volume                      1231.04953852

loop_
_atom_site_label
_atom_site_type_symbol
_atom_type_description
_atom_site_fract_x
_atom_site_fract_y
_atom_site_fract_z
_atom_type_partial_charge
C1    C     C_R   0.502347 0.260916 0.499720 0.868610
C2    C     C_R   0.601281 0.509203 0.070235 0.433140
C3    C     C_R   0.599810 0.521515 0.925901 0.424354
C4    C     C_R   0.282154 0.499760 0.500425 0.903187
C5    C     C_R   0.403845 0.464973 0.929574 -0.002345
C6    C     C_3   0.284500 0.522002 0.924134 -0.160743
C7    C     C_3   0.283925 0.524566 0.078893 0.345859
C8    C     C_R   0.498348 0.739408 0.500097 0.948895
C9    C     C_R   0.717824 0.500672 0.499605 0.889973
C10   C     C_1   0.161637 0.498933 0.501387 -0.200229
C11   C     C_1   0.059334 0.498759 0.501002 -0.030949
C12   C     C_R   0.504200 0.129839 0.497470 -0.144841
C13   C     C_1   0.940626 0.499304 0.499582 -0.027555
C14   C     C_1   0.838338 0.500057 0.498889 -0.179336
C15   C     C_R   0.554797 0.061396 0.599628 -0.063240
C16   C     C_3   0.171584 0.683121 0.169394 -0.248219
C17   C     C_3   0.460864 0.891155 0.165098 -0.215142
C18   C     C_3   0.773786 0.854094 0.846641 -0.143204
C19   C     C_3   0.756013 0.221228 0.663315 -0.249450
C20   C     C_3   0.736765 0.376178 0.150512 -0.317899
C21   C     C_3   0.798007 0.524216 0.872383 -0.245388
C22   C     C_R   0.450618 0.067270 0.391139 -0.317527
C23   C     C_R   0.449776 0.937393 0.388432 0.507380
C24   C     C_R   0.496146 0.871161 0.499180 -0.211028
C25   C     C_R   0.546053 0.937092 0.603684 -0.093576
C26   C     C_3   0.607357 0.925008 0.736283 0.528116
C27   C     C_3   0.623417 0.068741 0.727750 0.501966
C28   C     C_R   0.403089 0.468275 0.070947 -0.027235
H1    H     H_    0.408161 0.118599 0.311292 0.172330
H2    H     H_    0.444180 0.912851 0.827025 0.133820
H3    H     H_    0.528202 0.785593 0.842630 0.235683
H4    H     H_    0.726498 0.804530 0.927489 0.170873
H5    H     H_    0.793493 0.949419 0.881977 0.159046
H6    H     H_    0.857911 0.804706 0.830369 0.162395
H7    H     H_    0.477082 0.125249 0.837185 0.156771
H8    H     H_    0.600389 0.111118 0.927996 0.159404
H9    H     H_    0.702792 0.288707 0.722304 0.198005
H10   H     H_    0.736298 0.227301 0.554431 0.144821
H11   H     H_    0.848243 0.247153 0.675943 0.165704
H12   H     H_    0.219800 0.457759 0.880430 0.129398
H13   H     H_    0.740591 0.325548 0.053049 0.118167
H14   H     H_    0.674971 0.327153 0.217482 0.197002
H15   H     H_    0.824153 0.369845 0.196600 0.184028
H16   H     H_    0.853857 0.553119 0.787173 0.180568
H17   H     H_    0.794490 0.421494 0.868068 0.128518
H18   H     H_    0.841650 0.558157 0.964257 0.189955
H19   H     H_    0.200528 0.682851 0.867736 0.178347
H20   H     H_    0.341841 0.703801 0.905579 0.210952
H21   H     H_    0.221777 0.458760 0.126196 0.051763
H22   H     H_    0.137060 0.626920 0.253690 0.169265
H23   H     H_    0.112257 0.677351 0.081797 0.115970
H24   H     H_    0.173020 0.781506 0.202974 0.212139
H25   H     H_    0.425679 0.828842 0.087011 0.213082
H26   H     H_    0.553871 0.864504 0.179147 0.154066
H27   H     H_    0.453277 0.987753 0.126506 0.127277
N1    N     N_R   0.499240 0.499140 0.142800 -0.137979
N2    N     N_R   0.499240 0.499180 0.857150 -0.144936
N3    N     N_3   0.529531 0.882602 0.844352 -0.550592
N4    N     N_3   0.566541 0.140834 0.836028 -0.479984
N5    N     N_3   0.283839 0.643993 0.858635 -0.382806
O1    O     O_R   0.500010 0.316790 0.614690 -0.621504
O2    O     O_3   0.395348 0.875958 0.284261 -0.582634
O3    O     O_3   0.711484 0.853458 0.724264 -0.544022
O4    O     O_3   0.742269 0.098711 0.709126 -0.593743
O5    O     O_3   0.705915 0.503423 0.135798 -0.587499
O6    O     O_3   0.688049 0.581430 0.856895 -0.571361
O7    O     O_R   0.500000 0.316760 0.385350 -0.651647
O8    O     O_R   0.334450 0.500030 0.614670 -0.596010
O9    O     O_R   0.334440 0.500000 0.385330 -0.589171
O10   O     O_R   0.500000 0.683240 0.614650 -0.600062
O11   O     O_R   0.499990 0.683210 0.385310 -0.552895
O12   O     O_R   0.665560 0.500000 0.614670 -0.577150
O13   O     O_R   0.665550 0.499970 0.385330 -0.568034
O14   O     O_3   0.285814 0.645089 0.135803 -0.557652
Zn1   Zn    Zn3+2 0.500010 0.500020 0.653130 0.988774
Zn2   Zn    Zn3+2 0.499990 0.499980 0.346870 1.007981

loop_
_geom_bond_atom_site_label_1
_geom_bond_atom_site_label_2
_ccdc_geom_bond_type
C20   H14   S    
C9    C14   S    
C9    O12   A    
C6    C7    S    
N1    Zn2   S    
C19   H10   S    
C17   H25   S    
C17   O2    S    
C5    C28   A    
C11   C13   S    
C17   H27   S    
C15   C27   S    
C12   C15   A    
C5    N2    A    
C19   O4    S    
C23   C24   A    
C2    O5    S    
N2    Zn1   S    
C26   O3    S    
C9    O13   A    
C2    C3    A    
C28   N1    A    
C1    O7    A    
C27   N4    S    
C13   C14   T    
O1    Zn1   S    
O8    Zn1   S    
C18   H6    S    
C6    N5    S    
C26   C27   S    
C5    C6    S    
C1    C12   S    
C19   H11   S    
O12   Zn1   S    
C16   O14   S    
C3    N2    A    
H3    N3    S    
C4    O9    A    
C18   H5    S    
C16   H22   S    
H20   N5    S    
C7    O14   S    
C21   H17   S    
O11   Zn2   S    
C21   O6    S    
O13   Zn2   S    
C6    H12   S    
C18   O3    S    
C15   C25   A    
C3    O6    S    
C18   H4    S    
C27   O4    S    
C4    C10   S    
C21   H16   S    
C12   C22   A    
C20   O5    S    
H19   N5    S    
C20   H15   S    
C24   C25   A    
C7    H21   S    
O9    Zn2   S    
H7    N4    S    
C21   H18   S    
C10   C11   T    
C22   H1    S    
O10   Zn1   S    
C4    O8    A    
C22   C23   A    
C16   H23   S    
C2    N1    A    
O7    Zn2   S    
C19   H9    S    
C8    C24   S    
C25   C26   S    
H2    N3    S    
H8    N4    S    
C8    O10   A    
C17   H26   S    
C26   N3    S    
C23   O2    S    
C7    C28   S    
C16   H24   S    
C20   H13   S    
C8    O11   A    
C1    O1    A    
