data_mof_unit_64622.cif
_audit_creation_date              2012-10-26T20:52:24-0400
_audit_creation_method            fapswitch 2.2
_symmetry_space_group_name_H-M    P1
_symmetry_Int_Tables_number       1
_space_group_crystal_system       triclinic
_cell_length_a                    15.996912
_cell_length_b                    14.762624
_cell_length_c                    10.908569
_cell_angle_alpha                 90.335813
_cell_angle_beta                  90.047011
_cell_angle_gamma                 90.026666
_cell_volume                      2576.0829525

loop_
_atom_site_label
_atom_site_type_symbol
_atom_type_description
_atom_site_fract_x
_atom_site_fract_y
_atom_site_fract_z
_atom_type_partial_charge
Br1   Br    Br    0.566238 0.312189 0.866099 -0.419009
Br2   Br    Br    0.637446 0.369697 0.148787 -0.410632
C1    C     C_R   0.340832 0.499959 0.499981 0.544309
C2    C     C_1   0.500054 0.197281 0.500047 0.166216
C3    C     C_R   0.502061 0.499564 0.264607 0.577417
C4    C     C_R   0.505093 0.500087 0.735500 0.567100
C5    C     C_2   0.541821 0.430305 0.935052 0.166136
C6    C     C_2   0.551543 0.440249 0.068799 0.161707
C7    C     C_2   0.518071 0.502209 0.867439 -0.121794
C8    C     C_2   0.501981 0.497400 0.132279 -0.111285
C9    C     C_R   0.956412 0.582024 0.505898 -0.101032
C10   C     C_R   0.043654 0.582006 0.505964 -0.100819
C11   C     C_R   0.912769 0.499933 0.499373 0.040356
C12   C     C_R   0.659166 0.499988 0.499883 0.566384
C13   C     C_R   0.087197 0.499896 0.499512 0.037962
C14   C     C_R   0.956307 0.417823 0.492871 -0.091595
C15   C     C_R   0.043552 0.417804 0.492942 -0.099083
C16   C     C_1   0.823320 0.499957 0.499495 -0.035608
C17   C     C_1   0.176654 0.499888 0.499685 -0.051881
C18   C     C_1   0.251704 0.499911 0.499836 -0.017294
C19   C     C_1   0.748277 0.499986 0.499663 0.009960
C20   C     C_R   0.524688 0.952590 0.604674 -0.106569
C21   C     C_R   0.475509 0.951658 0.395483 -0.104196
C22   C     C_R   0.500083 0.902888 0.500078 0.002507
C23   C     C_R   0.475526 0.047461 0.395478 -0.101984
C24   C     C_R   0.524694 0.048405 0.604675 -0.098467
C25   C     C_R   0.500104 0.097154 0.500072 0.002465
C26   C     C_1   0.500039 0.802733 0.500048 0.130234
Cu1   Cu    Cu3+1 0.500000 0.589220 0.500000 1.003684
Cu2   Cu    Cu3+1 0.500000 0.410780 0.500000 1.082933
H1    H     H_    0.512543 0.568647 0.909841 0.072387
H2    H     H_    0.456216 0.915608 0.313449 0.117543
H3    H     H_    0.456000 0.539889 0.087516 0.057501
H4    H     H_    0.077089 0.645762 0.511064 0.118263
H5    H     H_    0.923055 0.645793 0.510958 0.119254
H6    H     H_    0.922866 0.354068 0.487809 0.130358
H7    H     H_    0.076909 0.354034 0.487926 0.120925
H8    H     H_    0.543973 0.084481 0.686708 0.149215
H9    H     H_    0.456249 0.082788 0.313439 0.128386
H10   H     H_    0.543971 0.917267 0.686709 0.120059
N1    N     N_1   0.500000 0.276710 0.500000 -0.166432
N2    N     N_1   0.500000 0.723290 0.500000 -0.192150
O1    O     O_R   0.380310 0.575320 0.500020 -0.494934
O2    O     O_R   0.619690 0.575320 0.499980 -0.498534
O3    O     O_R   0.380310 0.424640 0.499970 -0.497306
O4    O     O_R   0.619690 0.424640 0.500030 -0.464347
O5    O     O_R   0.500000 0.575320 0.321940 -0.499551
O6    O     O_R   0.500000 0.575320 0.678060 -0.505437
O7    O     O_R   0.500000 0.424640 0.321880 -0.457096
O8    O     O_R   0.500000 0.424640 0.678120 -0.446224

loop_
_geom_bond_atom_site_label_1
_geom_bond_atom_site_label_2
_ccdc_geom_bond_type
C9    C10   A    
Cu2   N1    S    
Cu1   Cu2   S    
Cu1   N2    S    
C23   C25   A    
C16   C19   T    
C9    C11   A    
Cu2   O3    S    
C17   C18   T    
C10   C13   A    
C21   C22   A    
C20   H10   S    
C21   H2    S    
C4    C7    S    
C9    H5    S    
Cu2   O8    S    
C1    C18   S    
C12   O4    A    
C15   H7    S    
C23   H9    S    
C13   C17   S    
C3    O5    A    
C1    O1    A    
C24   C25   A    
C14   H6    S    
C4    O6    A    
C11   C16   S    
Cu1   O5    S    
Cu1   O1    S    
C12   C19   S    
C3    C8    S    
Cu2   O7    S    
C1    O3    A    
C8    H3    S    
C21   C23   A    
Cu1   O2    S    
C20   C22   A    
C3    O7    A    
C2    N1    T    
C7    H1    S    
Cu1   O6    S    
C10   H4    S    
C5    C7    D    
C5    C6    S    
C2    C25   S    
C12   O2    A    
C20   C24   A    
C11   C14   A    
C26   N2    T    
C13   C15   A    
C24   H8    S    
Br2   C6    S    
Br1   C5    S    
Cu2   O4    S    
C6    C8    D    
C4    O8    A    
C22   C26   S    
C14   C15   A    
