data_mof_unit_22723.cif
_audit_creation_date              2012-12-10T18:54:31-0500
_audit_creation_method            fapswitch 2.2
_symmetry_space_group_name_H-M    P1
_symmetry_Int_Tables_number       1
_space_group_crystal_system       triclinic
_cell_length_a                    19.518727
_cell_length_b                    18.209505
_cell_length_c                    9.065366
_cell_angle_alpha                 90.000085
_cell_angle_beta                  89.990449
_cell_angle_gamma                 90.000046
_cell_volume                      3222.06996657

loop_
_atom_site_label
_atom_site_type_symbol
_atom_type_description
_atom_site_fract_x
_atom_site_fract_y
_atom_site_fract_z
_atom_type_partial_charge
C1    C     C_R   0.367537 0.500005 0.499944 0.864343
C2    C     C_R   0.632463 0.500005 0.500056 0.864353
C3    C     C_R   0.454587 0.721291 0.413125 0.329717
C4    C     C_R   0.454586 0.278712 0.586903 0.332298
C5    C     C_R   0.545413 0.721291 0.586875 0.329718
C6    C     C_R   0.545414 0.278711 0.413099 0.332295
C7    C     C_R   0.453280 0.798677 0.413926 -0.291286
C8    C     C_R   0.453290 0.201324 0.586133 -0.278956
C9    C     C_R   0.546720 0.798677 0.586074 -0.291286
C10   C     C_R   0.546711 0.201324 0.413871 -0.278958
C11   C     C_R   0.500000 0.838571 0.500001 0.152465
C12   C     C_R   0.500000 0.161427 0.500002 0.151898
C13   C     C_R   0.499170 0.960981 0.634287 0.067785
C14   C     C_R   0.499201 0.039010 0.365714 0.069286
C15   C     C_R   0.500829 0.960981 0.365716 0.067785
C16   C     C_R   0.500799 0.039010 0.634289 0.069286
C17   C     C_R   0.500000 0.078586 0.500002 0.082913
C18   C     C_R   0.500000 0.921408 0.500001 0.081467
C19   C     C_R   0.500002 0.499998 0.220535 0.894064
C20   C     C_R   0.499998 0.499998 0.779465 0.894067
C21   C     C_1   0.500000 0.499989 0.065538 -0.136385
C22   C     C_1   0.500000 0.499989 0.934461 -0.136387
C23   C     C_R   0.745114 0.440797 0.564903 -0.021349
C24   C     C_R   0.254885 0.559327 0.564594 -0.022543
C25   C     C_R   0.254885 0.440795 0.435105 -0.021345
C26   C     C_R   0.745115 0.559325 0.435400 -0.022544
C27   C     C_R   0.817009 0.439505 0.558314 0.088675
C28   C     C_R   0.183068 0.560794 0.557772 0.093419
C29   C     C_R   0.182991 0.439503 0.441694 0.088672
C30   C     C_R   0.816932 0.560793 0.442221 0.093421
C31   C     C_R   0.852976 0.500177 0.500234 -0.034941
C32   C     C_R   0.147023 0.500178 0.499765 -0.034940
C33   C     C_R   0.708459 0.500034 0.500131 -0.280261
C34   C     C_R   0.291541 0.500034 0.499871 -0.280261
C35   C     C_R   0.964410 0.501365 0.633824 -0.182089
C36   C     C_R   0.035590 0.501361 0.366175 -0.182089
C37   C     C_R   0.035667 0.499143 0.633698 -0.183423
C38   C     C_R   0.964332 0.499138 0.366302 -0.183423
C39   C     C_R   0.071606 0.500234 0.499873 0.114399
C40   C     C_R   0.928393 0.500234 0.500126 0.114399
Cu1   Cu    Cu3+1 0.500000 0.573360 0.500000 1.042358
Cu2   Cu    Cu3+1 0.500000 0.426640 0.500000 1.023267
H1    H     H_    0.937326 0.503303 0.738030 0.135452
H2    H     H_    0.062673 0.503296 0.261969 0.135452
H3    H     H_    0.062813 0.497215 0.737811 0.135183
H4    H     H_    0.937186 0.497207 0.262189 0.135183
H5    H     H_    0.415730 0.827261 0.347285 0.161510
H6    H     H_    0.415742 0.172741 0.652809 0.160322
H7    H     H_    0.584270 0.827261 0.652715 0.161509
H8    H     H_    0.584259 0.172741 0.347195 0.160322
N1    N     N_R   0.500000 0.683620 0.500000 -0.157211
N2    N     N_R   0.500000 0.316380 0.500000 -0.162564
O1    O     O_R   0.400190 0.561980 0.499980 -0.556937
O2    O     O_R   0.599810 0.438020 0.500020 -0.557153
O3    O     O_R   0.599810 0.561980 0.500020 -0.556937
O4    O     O_R   0.400190 0.438020 0.499980 -0.557150
O5    O     O_R   0.500000 0.561940 0.288400 -0.551959
O6    O     O_R   0.500000 0.438060 0.711600 -0.564040
O7    O     O_R   0.500000 0.561940 0.711600 -0.551958
O8    O     O_R   0.500000 0.438060 0.288400 -0.564036
C41   C     C_2   0.709565 0.381629 0.648183 0.910648
O9    O     O_2   0.721155 0.317139 0.619934 -0.579894
O10   O     O_R   0.663431 0.400005 0.760336 -0.767894
H9    H     H_    0.642151 0.355207 0.808422 0.330666
C42   C     C_2   0.290107 0.618935 0.647046 0.913018
O11   O     O_2   0.329478 0.603696 0.747457 -0.604250
O12   O     O_R   0.277309 0.692360 0.611384 -0.745105
H10   H     H_    0.304558 0.727736 0.674754 0.329076
C43   C     C_2   0.290434 0.381623 0.351836 0.910662
O13   O     O_2   0.278847 0.317135 0.380103 -0.579899
O14   O     O_R   0.336565 0.399994 0.239673 -0.767893
H11   H     H_    0.357845 0.355193 0.191596 0.330666
C44   C     C_2   0.709892 0.618932 0.352945 0.913016
O15   O     O_2   0.670521 0.603691 0.252536 -0.604251
O16   O     O_R   0.722691 0.692358 0.388601 -0.745103
H12   H     H_    0.695442 0.727733 0.325229 0.329076
N3    N     N_3   0.852902 0.376023 0.612381 -0.544318
H13   H     H_    0.880950 0.390331 0.706056 0.218068
H14   H     H_    0.886400 0.357256 0.530641 0.238072
N4    N     N_3   0.147309 0.624427 0.611550 -0.541687
H15   H     H_    0.119139 0.610273 0.705168 0.216555
H16   H     H_    0.113928 0.643233 0.529648 0.239375
N5    N     N_3   0.147097 0.376020 0.387634 -0.544323
H17   H     H_    0.119050 0.390325 0.293958 0.218068
H18   H     H_    0.113599 0.357256 0.469377 0.238073
N6    N     N_3   0.852691 0.624424 0.388435 -0.541687
H19   H     H_    0.880861 0.610267 0.294818 0.216554
H20   H     H_    0.886072 0.643232 0.470335 0.239375
N7    N     N_3   0.408236 0.682054 0.319999 -0.518594
H21   H     H_    0.358323 0.697468 0.348145 0.224010
H22   H     H_    0.417005 0.698564 0.211156 0.209855
N8    N     N_3   0.408191 0.317953 0.679952 -0.522554
H23   H     H_    0.416878 0.301428 0.788811 0.199727
H24   H     H_    0.358288 0.302574 0.651646 0.223718
N9    N     N_3   0.591764 0.682054 0.679999 -0.518593
H25   H     H_    0.641678 0.697468 0.651853 0.224008
H26   H     H_    0.582996 0.698565 0.788843 0.209856
N10   N     N_3   0.591810 0.317953 0.320049 -0.522554
H27   H     H_    0.583129 0.301420 0.211192 0.199724
H28   H     H_    0.641713 0.302580 0.348370 0.223715
N11   N     N_3   0.495056 0.921388 0.770963 -0.598099
H29   H     H_    0.450644 0.937455 0.826690 0.222691
H30   H     H_    0.537593 0.934567 0.835743 0.214743
N12   N     N_3   0.495115 0.078599 0.229032 -0.598458
H31   H     H_    0.450718 0.062527 0.173291 0.224334
H32   H     H_    0.537668 0.065419 0.164268 0.213861
N13   N     N_3   0.504945 0.921389 0.229039 -0.598099
H33   H     H_    0.549356 0.937455 0.173313 0.222691
H34   H     H_    0.462407 0.934568 0.164258 0.214743
N14   N     N_3   0.504885 0.078599 0.770972 -0.598456
H35   H     H_    0.549282 0.062527 0.826714 0.224334
H36   H     H_    0.462332 0.065419 0.835735 0.213860

loop_
_geom_bond_atom_site_label_1
_geom_bond_atom_site_label_2
_ccdc_geom_bond_type
C15   C18   A    
C11   C18   S    
N11   H29   S    
N13   H34   S    
Cu1   Cu2   S    
N9    H25   S    
C4    C8    A    
Cu2   O6    S    
N12   H32   S    
C16   N14   S    
N3    H13   S    
C19   O5    A    
C7    C11   A    
C13   C18   A    
C4    N2    A    
C6    N10   S    
C35   C37   A    
C1    O4    A    
C29   N5    S    
C29   C32   A    
C3    C7    A    
C2    O3    A    
C30   C31   A    
N6    H20   S    
N10   H27   S    
C26   C44   S    
C31   C40   S    
C43   O14   S    
C44   O15   D    
C32   C39   S    
C15   N13   S    
C41   O10   S    
C1    O1    A    
N14   H35   S    
Cu1   O3    S    
Cu2   O4    S    
C16   C17   A    
C42   O12   S    
C12   C17   S    
N13   H33   S    
C23   C27   A    
C30   N6    S    
C35   H1    S    
C25   C34   A    
N11   H30   S    
C21   C22   T    
C44   O16   S    
C14   C17   A    
C43   O13   D    
N12   H31   S    
C5    N9    S    
C1    C34   S    
N3    H14   S    
C25   C29   A    
C27   C31   A    
O12   H10   S    
C28   C32   A    
C9    H7    S    
Cu1   O7    S    
N4    H16   S    
C2    O2    A    
Cu2   O8    S    
C3    N1    A    
N6    H19   S    
C23   C33   A    
C24   C34   A    
C13   N11   S    
C7    H5    S    
O16   H12   S    
C8    H6    S    
C5    C9    A    
C26   C33   A    
C14   N12   S    
N5    H17   S    
C8    C12   A    
N8    H24   S    
C20   O7    A    
C9    C11   A    
Cu1   O1    S    
C10   C12   A    
C24   C42   S    
C2    C33   S    
N5    H18   S    
C20   C22   S    
C26   C30   A    
N10   H28   S    
C36   H2    S    
N7    H22   S    
C20   O6    A    
C10   H8    S    
C19   C21   S    
C36   C39   A    
C24   C28   A    
N4    H15   S    
C27   N3    S    
C6    C10   A    
N9    H26   S    
C19   O8    A    
C3    N7    S    
C36   C38   A    
C35   C40   A    
Cu1   O5    S    
O14   H11   S    
C37   C39   A    
Cu2   O2    S    
C38   C40   A    
N8    H23   S    
C41   O9    D    
C28   N4    S    
N14   H36   S    
C38   H4    S    
O10   H9    S    
C23   C41   S    
C25   C43   S    
C42   O11   D    
C13   C16   A    
C14   C15   A    
C5    N1    A    
C6    N2    A    
N7    H21   S    
C37   H3    S    
Cu1   N1    S    
Cu2   N2    S    
C4    N8    S    
