data_mof_unit_39677.cif
_audit_creation_date              2012-12-11T16:24:20-0500
_audit_creation_method            fapswitch 2.2
_symmetry_space_group_name_H-M    P1
_symmetry_Int_Tables_number       1
_space_group_crystal_system       triclinic
_cell_length_a                    14.727932
_cell_length_b                    14.738417
_cell_length_c                    33.269378
_cell_angle_alpha                 95.992713
_cell_angle_beta                  96.40134
_cell_angle_gamma                 61.160379
_cell_volume                      6275.90597222

loop_
_atom_site_label
_atom_site_type_symbol
_atom_type_description
_atom_site_fract_x
_atom_site_fract_y
_atom_site_fract_z
_atom_type_partial_charge
C1    C     C_R   0.390797 0.699624 0.445964 0.563910
C2    C     C_1   0.318329 0.335948 0.228812 0.013358
C3    C     C_3   0.173413 0.815753 0.317044 -0.246540
C4    C     C_3   0.073290 0.900568 0.335096 -0.291230
C5    C     C_3   0.977668 0.919033 0.306886 -0.390014
C6    C     C_3   0.166998 0.839817 0.159524 -0.213535
C7    C     C_3   0.079151 0.947002 0.172124 -0.279362
C8    C     C_3   0.989271 0.938726 0.186934 -0.453593
C9    C     C_3   0.512658 0.848862 0.165590 -0.210870
C10   C     C_3   0.504227 0.955225 0.179222 -0.279724
C11   C     C_3   0.604349 0.943973 0.202267 -0.421732
C12   C     C_3   0.500426 0.169799 0.668090 -0.212392
C13   C     C_1   0.322854 0.339462 0.265099 0.109164
C14   C     C_3   0.480589 0.079903 0.650554 -0.274369
C15   C     C_3   0.554059 0.980019 0.671445 -0.446437
C16   C     C_3   0.484233 0.234503 0.927944 -0.224081
C17   C     C_3   0.479210 0.305275 0.965878 -0.299601
C18   C     C_3   0.577433 0.254461 0.994025 -0.435495
C19   C     C_3   0.831372 0.139542 0.802530 -0.231221
C20   C     C_3   0.714336 0.175591 0.796195 -0.266897
C21   C     C_3   0.692016 0.092812 0.772923 -0.440238
C22   C     C_3   0.803620 0.160604 0.669655 -0.245051
C23   C     C_3   0.918614 0.083898 0.679107 -0.296023
C24   C     C_R   0.405417 0.386402 0.433924 0.590972
C25   C     C_3   0.932964 0.978856 0.689126 -0.430625
C26   C     C_3   0.810072 0.496571 0.812859 -0.213892
C27   C     C_3   0.692098 0.560489 0.804017 -0.289675
C28   C     C_3   0.663876 0.659448 0.783437 -0.453543
C29   C     C_3   0.139583 0.497715 0.182958 -0.258189
C30   C     C_3   0.175773 0.576757 0.199937 -0.271296
C31   C     C_3   0.090716 0.668585 0.222437 -0.432784
C32   C     C_R   0.293859 0.294092 0.101495 0.008094
C33   C     C_R   0.751029 0.375732 0.408622 -0.045863
C34   C     C_R   0.769375 0.443874 0.388244 0.390994
C35   C     C_R   0.789667 0.423047 0.347521 -0.126086
C36   C     C_R   0.794358 0.333461 0.326688 -0.024441
C37   C     C_R   0.786438 0.260296 0.347713 0.373366
C38   C     C_R   0.764575 0.281559 0.388456 -0.139858
C39   C     C_R   0.330589 0.344778 0.308395 -0.070845
C40   C     C_R   0.814152 0.312414 0.201787 0.323886
C41   C     C_R   0.798332 0.323027 0.282621 0.390490
C42   C     C_R   0.836070 0.394469 0.142659 -0.002709
C43   C     C_R   0.700072 0.410372 0.447210 0.561023
C44   C     C_R   0.868552 0.380280 0.103240 -0.103249
C45   C     C_R   0.896635 0.203785 0.097049 -0.139278
C46   C     C_R   0.860512 0.217256 0.135271 -0.136445
C47   C     C_R   0.833477 0.310143 0.158975 0.039337
C48   C     C_R   0.904486 0.283988 0.081398 0.004478
C49   C     C_R   0.369347 0.755410 0.408826 -0.056974
C50   C     C_R   0.406714 0.259992 0.329207 0.376375
C51   C     C_R   0.281440 0.770814 0.383052 -0.172040
C52   C     C_R   0.268969 0.802964 0.343774 -0.072974
C53   C     C_R   0.348005 0.817773 0.329999 -0.011711
C54   C     C_R   0.431146 0.811450 0.356752 0.431957
C55   C     C_R   0.393579 0.701456 0.561283 0.557036
C56   C     C_R   0.441789 0.780809 0.396026 0.422577
C57   C     C_R   0.351285 0.835751 0.206439 0.318746
C58   C     C_R   0.353059 0.824133 0.286917 0.382003
C59   C     C_R   0.249805 0.850682 0.140227 -0.014664
C60   C     C_R   0.230269 0.877323 0.099807 0.313214
C61   C     C_R   0.425569 0.270390 0.371027 0.363109
C62   C     C_R   0.389858 0.888871 0.103091 0.309831
C63   C     C_R   0.412266 0.860205 0.143409 -0.014837
C64   C     C_R   0.339677 0.845401 0.162561 -0.051162
C65   C     C_R   0.296262 0.903121 0.081813 0.020772
C66   C     C_R   0.375849 0.369089 0.586744 0.022548
C67   C     C_R   0.408037 0.388813 0.549415 0.584756
C68   C     C_R   0.288004 0.447179 0.605437 0.327076
C69   C     C_R   0.273061 0.439503 0.645209 -0.102451
C70   C     C_R   0.344718 0.354444 0.667087 -0.069219
C71   C     C_R   0.426989 0.269571 0.647446 -0.003953
C72   C     C_R   0.393809 0.246826 0.165946 -0.124487
C73   C     C_R   0.441953 0.278099 0.607321 0.321640
C74   C     C_R   0.314547 0.367741 0.790993 0.365503
C75   C     C_R   0.333960 0.359609 0.710564 0.328892
C76   C     C_R   0.208391 0.390309 0.847457 -0.176913
C77   C     C_R   0.199067 0.364856 0.885062 -0.153332
C78   C     C_R   0.386944 0.285309 0.899599 0.007511
C79   C     C_R   0.701090 0.413632 0.562876 0.554677
C80   C     C_R   0.395211 0.311514 0.861023 0.380837
C81   C     C_R   0.306396 0.359374 0.834127 0.040049
C82   C     C_R   0.287427 0.307486 0.910590 -0.022079
C83   C     C_R   0.384720 0.228902 0.124233 -0.130672
C84   C     C_R   0.751462 0.380641 0.603637 0.012797
C85   C     C_R   0.767595 0.449740 0.632289 0.373731
C86   C     C_R   0.790805 0.427337 0.673005 -0.084923
C87   C     C_R   0.799158 0.336015 0.685783 -0.011363
C88   C     C_R   0.791060 0.262182 0.657191 -0.000546
C89   C     C_R   0.767313 0.285431 0.616266 -0.160054
C90   C     C_R   0.850522 0.222984 0.826478 0.001774
C91   C     C_R   0.368672 0.366603 0.392372 -0.095960
C92   C     C_R   0.886184 0.211509 0.867626 0.323431
C93   C     C_R   0.872026 0.383539 0.872775 0.312106
C94   C     C_R   0.216642 0.383488 0.120678 -0.113375
C95   C     C_R   0.837882 0.395764 0.831631 0.001940
C96   C     C_R   0.832881 0.312696 0.808060 -0.050611
C97   C     C_1   0.818827 0.316725 0.764597 -0.027261
C98   C     C_1   0.810063 0.323347 0.728544 -0.028490
C99   C     C_R   0.902436 0.289209 0.890474 0.012543
C100  C     C_R   0.377801 0.754158 0.602216 0.021270
C101  C     C_R   0.280107 0.799208 0.618663 0.400298
C102  C     C_R   0.271672 0.827761 0.660005 -0.068097
C103  C     C_R   0.286121 0.448772 0.371391 0.342224
C104  C     C_R   0.359966 0.811846 0.685263 -0.023325
C105  C     C_R   0.225766 0.403148 0.162755 0.007921
C106  C     C_R   0.455908 0.773193 0.668855 -0.144664
C107  C     C_R   0.464734 0.745226 0.627529 -0.184297
C108  C     C_R   0.397235 0.885109 0.832984 -0.137996
C109  C     C_R   0.376451 0.913207 0.873648 -0.180820
C110  C     C_R   0.231194 0.876606 0.862869 0.393502
C111  C     C_R   0.252456 0.848610 0.822227 -0.068688
C112  C     C_R   0.333361 0.855772 0.807032 -0.024581
C113  C     C_1   0.345779 0.839939 0.764318 -0.022575
C114  C     C_1   0.353169 0.827956 0.728301 -0.018946
C115  C     C_R   0.267948 0.437749 0.329603 0.348128
C116  C     C_R   0.313169 0.330681 0.185456 0.039714
C117  C     C_R   0.290934 0.912937 0.888778 0.023863
C118  C     C_R   0.963112 0.264450 0.045489 0.534236
C119  C     C_R   0.273292 0.259597 0.059924 0.534502
C120  C     C_R   0.259334 0.959493 0.044026 0.588018
C121  C     C_R   0.961235 0.268328 0.930795 0.582008
C122  C     C_R   0.271079 0.264979 0.945704 0.530919
C123  C     C_R   0.256167 0.964784 0.928936 0.559676
C124  C     C_3   0.812380 0.494593 0.168428 -0.243279
C125  C     C_3   0.834248 0.573340 0.150266 -0.323677
C126  C     C_3   0.821276 0.662431 0.181064 -0.447530
Cr1   Cr    Cr6+3 0.576280 0.580550 0.506370 1.168725
Cr2   Cr    Cr6+3 0.346780 0.572400 0.496520 1.184700
Cr3   Cr    Cr6+3 0.576960 0.347070 0.497150 1.109126
Cr4   Cr    Cr6+3 0.087320 0.083240 0.984860 1.148725
Cr5   Cr    Cr6+3 0.087720 0.316210 0.996740 1.056088
Cr6   Cr    Cr6+3 0.317350 0.090340 0.995890 1.062798
F1    F     F_    0.790369 0.173200 0.328055 -0.608433
F2    F     F_    0.907241 0.123412 0.885062 -0.599139
F3    F     F_    0.754553 0.541947 0.621645 -0.615829
F4    F     F_    0.878835 0.462924 0.895156 -0.628604
F5    F     F_    0.503165 0.187921 0.390068 -0.514575
F6    F     F_    0.193705 0.811416 0.595319 -0.580021
F7    F     F_    0.149122 0.872942 0.876060 -0.581123
F8    F     F_    0.227188 0.542250 0.390555 -0.562034
F9    F     F_    0.192966 0.519820 0.309517 -0.614896
F10   F     F_    0.760297 0.534367 0.406530 -0.527711
F11   F     F_    0.526326 0.769849 0.420435 -0.512468
F12   F     F_    0.142073 0.884965 0.079084 -0.627919
F13   F     F_    0.506318 0.827370 0.343784 -0.525065
F14   F     F_    0.458110 0.906559 0.085253 -0.635127
F15   F     F_    0.219916 0.534438 0.586435 -0.564598
F16   F     F_    0.524859 0.199225 0.589318 -0.622418
F17   F     F_    0.466479 0.168873 0.308714 -0.543439
F18   F     F_    0.490209 0.286335 0.849124 -0.663485
H1    H     H_    0.446064 0.160049 0.110257 0.153290
H2    H     H_    0.208241 0.503419 0.659809 0.178441
H3    H     H_    0.138425 0.429696 0.827922 0.156988
H4    H     H_    0.756667 0.230781 0.594458 0.168742
H5    H     H_    0.798192 0.483619 0.694945 0.135028
H6    H     H_    0.424051 0.940521 0.892634 0.150297
H7    H     H_    0.460445 0.890320 0.821458 0.129481
H8    H     H_    0.524659 0.760762 0.688237 0.135524
H9    H     H_    0.541006 0.710656 0.615966 0.198143
H10   H     H_    0.203208 0.825109 0.802246 0.141593
H11   H     H_    0.196955 0.858474 0.672576 0.130099
H12   H     H_    0.751559 0.227354 0.403377 0.194547
H13   H     H_    0.147004 0.435121 0.103241 0.124280
H14   H     H_    0.742010 0.701446 0.192096 0.163121
H15   H     H_    0.879391 0.632928 0.207249 0.168548
H16   H     H_    0.833404 0.720033 0.166653 0.143610
H17   H     H_    0.915151 0.534666 0.140919 0.157652
H18   H     H_    0.779431 0.605913 0.123395 0.173444
H19   H     H_    0.728899 0.534419 0.174682 0.181561
H20   H     H_    0.860415 0.473042 0.197589 0.176183
H21   H     H_    0.976529 0.957268 0.279700 0.170778
H22   H     H_    0.977222 0.844647 0.297502 0.163569
H23   H     H_    0.871952 0.442217 0.089945 0.137005
H24   H     H_    0.906400 0.970631 0.322818 0.243252
H25   H     H_    0.064227 0.877523 0.364522 0.192257
H26   H     H_    0.077151 0.974417 0.340513 0.197089
H27   H     H_    0.174981 0.836421 0.286089 0.151129
H28   H     H_    0.171977 0.740588 0.313991 0.210311
H29   H     H_    0.955176 0.905013 0.162317 0.160777
H30   H     H_    0.016745 0.889290 0.213131 0.143141
H31   H     H_    0.928019 0.016858 0.196701 0.178455
H32   H     H_    0.109481 0.984337 0.196774 0.186260
H33   H     H_    0.049223 0.997464 0.146017 0.204242
H34   H     H_    0.797809 0.479176 0.331743 0.184506
H35   H     H_    0.135290 0.797960 0.137641 0.195559
H36   H     H_    0.199157 0.791934 0.186223 0.146843
H37   H     H_    0.622287 0.898341 0.229320 0.202638
H38   H     H_    0.670028 0.904721 0.182333 0.143636
H39   H     H_    0.595268 0.021871 0.212495 0.180511
H40   H     H_    0.488326 0.001146 0.152436 0.202677
H41   H     H_    0.439014 0.998763 0.199188 0.205169
H42   H     H_    0.533695 0.801532 0.192336 0.154507
H43   H     H_    0.577325 0.805842 0.145284 0.182998
H44   H     H_    0.636193 0.958785 0.667870 0.170447
H45   H     H_    0.923080 0.128930 0.080664 0.163255
H46   H     H_    0.540954 0.989736 0.704221 0.149089
H47   H     H_    0.539577 0.915977 0.657532 0.166006
H48   H     H_    0.399091 0.099779 0.654815 0.169550
H49   H     H_    0.491973 0.065984 0.617595 0.237794
H50   H     H_    0.582020 0.150350 0.664244 0.172982
H51   H     H_    0.492417 0.177340 0.701081 0.153574
H52   H     H_    0.586928 0.180724 0.004178 0.167292
H53   H     H_    0.646825 0.238321 0.978281 0.173792
H54   H     H_    0.571579 0.307392 0.021100 0.155371
H55   H     H_    0.470479 0.379641 0.956694 0.185530
H56   H     H_    0.857883 0.152990 0.147146 0.126724
H57   H     H_    0.411333 0.322980 0.982915 0.172305
H58   H     H_    0.496487 0.158388 0.936343 0.165977
H59   H     H_    0.554727 0.216769 0.912643 0.211897
H60   H     H_    0.718980 0.077529 0.741901 0.130986
H61   H     H_    0.731296 0.019632 0.788999 0.165448
H62   H     H_    0.606995 0.120324 0.770441 0.184370
H63   H     H_    0.681227 0.193307 0.826214 0.246867
H64   H     H_    0.674767 0.247349 0.779175 0.191419
H65   H     H_    0.866290 0.120823 0.772883 0.132764
H66   H     H_    0.869604 0.066205 0.818519 0.224375
H67   H     H_    0.224746 0.752159 0.392623 0.210606
H68   H     H_    0.890780 0.987314 0.716056 0.144059
H69   H     H_    0.903765 0.944353 0.663010 0.188590
H70   H     H_    0.016750 0.925363 0.695919 0.157444
H71   H     H_    0.963081 0.072463 0.652432 0.194893
H72   H     H_    0.951125 0.115174 0.705251 0.170149
H73   H     H_    0.758656 0.174977 0.696442 0.143473
H74   H     H_    0.771134 0.125295 0.644965 0.167844
H75   H     H_    0.690084 0.709036 0.803285 0.163456
H76   H     H_    0.700561 0.640124 0.754139 0.157302
H77   H     H_    0.578311 0.703670 0.777387 0.155617
H78   H     H_    0.461812 0.192224 0.183276 0.128662
H79   H     H_    0.662053 0.514347 0.783939 0.178804
H80   H     H_    0.653165 0.581758 0.832889 0.194514
H81   H     H_    0.837403 0.544586 0.833183 0.212256
H82   H     H_    0.850557 0.479298 0.784554 0.137054
H83   H     H_    0.022292 0.711595 0.201233 0.136702
H84   H     H_    0.066361 0.641758 0.247180 0.218481
H85   H     H_    0.121078 0.721466 0.236025 0.142308
H86   H     H_    0.245512 0.540438 0.221283 0.206020
H87   H     H_    0.196668 0.605437 0.174686 0.161074
H88   H     H_    0.071955 0.536600 0.160906 0.129404
H89   H     H_    0.121970 0.384561 0.892940 0.187439
H90   H     H_    0.112361 0.473058 0.207525 0.170667
N1    N     N_R   0.745409 0.401299 0.220884 -0.237596
N2    N     N_R   0.332197 0.914537 0.271766 -0.158534
N3    N     N_R   0.330955 0.920267 0.232037 -0.225301
N4    N     N_R   0.233108 0.383691 0.763719 -0.246783
N5    N     N_R   0.242354 0.380277 0.724238 -0.214357
N6    N     N_R   0.414403 0.347384 0.737704 -0.247864
N7    N     N_R   0.405138 0.350500 0.777196 -0.145959
N8    N     N_R   0.738111 0.406768 0.260571 -0.216350
N9    N     N_R   0.863835 0.232365 0.263432 -0.159816
N10   N     N_R   0.871882 0.227369 0.223681 -0.245685
N11   N     N_R   0.374332 0.744849 0.221744 -0.232744
N12   N     N_R   0.374963 0.739258 0.261398 -0.217954
O1    O     O_R   0.679450 0.499830 0.463150 -0.398987
O2    O     O_R   0.340240 0.172500 0.045430 -0.495164
O3    O     O_R   0.309670 0.000990 0.032050 -0.441905
O4    O     O_R   0.480650 0.664000 0.464630 -0.429228
O5    O     O_R   0.168330 0.982130 0.939200 -0.407612
O6    O     O_R   0.000140 0.178170 0.944610 -0.438705
O7    O     O_R   0.983010 0.336750 0.948660 -0.447620
O8    O     O_R   0.181800 0.312190 0.959860 -0.495113
O9    O     O_R   0.338500 0.175680 0.956950 -0.523983
O10   O     O_R   0.308050 0.003930 0.950020 -0.523366
O11   O     O_3   0.164130 0.163270 0.992500 -0.284878
O12   O     O_R   0.356040 0.477400 0.534170 -0.442287
O13   O     O_R   0.323930 0.675950 0.455370 -0.491444
O14   O     O_R   0.354700 0.475360 0.451930 -0.440828
O15   O     O_R   0.494470 0.320860 0.448390 -0.440036
O16   O     O_R   0.662580 0.357570 0.460050 -0.521872
O17   O     O_R   0.680900 0.502040 0.551870 -0.430752
O18   O     O_R   0.481990 0.666040 0.546870 -0.519656
O19   O     O_R   0.325370 0.678160 0.544080 -0.407843
O20   O     O_R   0.495910 0.323070 0.537100 -0.440661
O21   O     O_R   0.663920 0.359620 0.542290 -0.519948
O22   O     O_3   0.500010 0.500010 0.500010 -0.323214
O23   O     O_R   0.170070 0.978950 0.027680 -0.443367
O24   O     O_R   0.001760 0.175230 0.026640 -0.498330
O25   O     O_R   0.984760 0.333570 0.037150 -0.521714
O26   O     O_R   0.183410 0.309240 0.041890 -0.505408

loop_
_geom_bond_atom_site_label_1
_geom_bond_atom_site_label_2
_ccdc_geom_bond_type
C8    H31   S    
C45   H45   S    
C40   C47   S    
C66   C68   A    
C87   C88   A    
C115  F9    S    
C94   C105  A    
C101  C102  A    
C16   H59   S    
C80   C81   A    
N1    N8    A    
C107  H9    S    
C5    H24   S    
C105  C116  A    
C58   N12   A    
C35   C36   A    
C8    H29   S    
C86   H5    S    
C93   F4    S    
C119  O26   A    
C118  O24   A    
C97   C98   T    
Cr3   O22   S    
C42   C124  S    
C7    C8    S    
C85   C86   A    
C108  C109  A    
C101  F6    S    
C80   F18   S    
C31   H83   S    
C6    H35   S    
N9    N10   A    
C79   O17   A    
C57   C64   S    
C11   H37   S    
C36   C37   A    
C125  H17   S    
C3    H28   S    
C19   H66   S    
C62   F14   S    
C79   C84   S    
C15   H47   S    
Cr1   O17   S    
C9    H43   S    
C106  C107  A    
C123  O10   A    
C65   C120  S    
C76   H3    S    
N4    N5    A    
C110  C117  A    
C34   C35   A    
C58   N2    A    
C2    C13   T    
C78   C82   A    
C110  C111  A    
Cr5   O26   S    
Cr6   O3    S    
N6    N7    A    
C15   H44   S    
Cr3   O21   S    
C119  O2    A    
C27   H79   S    
C124  H19   S    
C111  C112  A    
C68   C69   A    
C49   C51   A    
C4    H25   S    
C1    C49   S    
C55   C100  S    
Cr2   O13   S    
C18   H53   S    
C22   C88   S    
C57   N11   A    
C9    H42   S    
C9    C10   S    
C93   C99   A    
C29   H90   S    
C83   H1    S    
Cr4   O11   S    
C75   N5    A    
C1    O4    A    
Cr6   O2    S    
C121  O6    A    
C99   C121  S    
C87   C98   S    
C24   O14   A    
C43   O1    A    
C23   C25   S    
C66   C67   S    
C126  H15   S    
C59   C60   A    
C79   O21   A    
C9    C63   S    
C10   H41   S    
C56   F11   S    
Cr1   O4    S    
C29   C105  S    
C36   C41   S    
C42   C44   A    
C126  H14   S    
C28   H77   S    
C104  C106  A    
C112  C113  S    
Cr4   O6    S    
C33   C34   A    
Cr5   O11   S    
C76   C77   A    
C22   C23   S    
C5    H21   S    
C93   C95   A    
C31   H84   S    
C54   C56   A    
Cr5   O25   S    
C73   F16   S    
C109  C117  A    
C51   C52   A    
C33   C43   S    
C30   H87   S    
C23   H71   S    
N11   N12   A    
C125  H18   S    
C44   C48   A    
C84   C85   A    
C21   H60   S    
C71   C73   A    
C86   C87   A    
C16   C17   S    
C25   H68   S    
C108  H7    S    
C26   H82   S    
C35   H34   S    
C45   C46   A    
C66   C73   A    
C22   H74   S    
C90   C96   A    
Cr1   O18   S    
C123  O5    A    
C108  C112  A    
C110  F7    S    
C11   H39   S    
C20   H64   S    
C28   H75   S    
C103  C115  A    
C111  H10   S    
C37   C38   A    
C91   C103  A    
C77   H89   S    
C118  O25   A    
C40   N10   A    
C8    H30   S    
C27   H80   S    
C90   C92   A    
C23   H72   S    
C17   H57   S    
C3    C52   S    
C96   C97   S    
C20   C21   S    
C62   C63   A    
C17   C18   S    
C12   H50   S    
C78   C80   A    
C1    O13   A    
C18   H52   S    
C55   O18   A    
C10   H40   S    
C12   H51   S    
C44   H23   S    
C102  C104  A    
C68   F15   S    
Cr2   O22   S    
C70   C71   A    
Cr3   O16   S    
C11   H38   S    
C51   H67   S    
Cr6   O11   S    
C104  C114  S    
C67   O20   A    
C122  O8    A    
C14   H48   S    
C12   C71   S    
C121  O7    A    
C60   C65   A    
C39   C115  A    
C54   F13   S    
C41   N8    A    
C26   C27   S    
C125  C126  S    
Cr2   O19   S    
Cr5   O7    S    
C25   H69   S    
C75   N6    A    
C55   O19   A    
C84   C89   A    
C15   H46   S    
C32   C119  S    
C28   H76   S    
C3    C4    S    
C24   C91   S    
C29   H88   S    
C70   C75   S    
Cr4   O5    S    
C52   C53   A    
C120  O23   A    
Cr6   O10   S    
C113  C114  T    
C22   H73   S    
C45   C48   A    
C26   C95   S    
C46   H56   S    
C32   C83   A    
C6    H36   S    
C46   C47   A    
C34   F10   S    
C100  C107  A    
Cr2   O14   S    
C7    H32   S    
C62   C65   A    
N2    N3    A    
Cr1   O1    S    
C69   H2    S    
C6    C59   S    
C16   C78   S    
C92   F2    S    
C40   N1    A    
C12   C14   S    
C4    C5    S    
C126  H16   S    
Cr3   O15   S    
C76   C81   A    
C2    C116  S    
C48   C118  S    
C53   C58   S    
C122  O9    A    
C53   C54   A    
C6    C7    S    
Cr4   O24   S    
C26   H81   S    
C49   C56   A    
C14   H49   S    
C72   C116  A    
C72   H78   S    
C33   C38   A    
C21   H62   S    
C7    H33   S    
C20   H63   S    
C19   C20   S    
C17   H55   S    
C3    H27   S    
C120  O3    A    
C74   N4    A    
C43   O16   A    
C24   O15   A    
Cr3   O20   S    
C106  H8    S    
C103  F8    S    
C60   F12   S    
C21   H61   S    
C74   N7    A    
C50   F17   S    
C61   F5    S    
C89   H4    S    
C30   C31   S    
C31   H85   S    
C77   C82   A    
C102  H11   S    
C63   C64   A    
C100  C101  A    
C5    H22   S    
C67   O12   A    
C19   H65   S    
C42   C47   A    
Cr2   O12   S    
C117  C123  S    
C69   C70   A    
C37   F1    S    
C82   C122  S    
C13   C39   S    
C72   C83   A    
C10   C11   S    
C29   C30   S    
Cr5   O8    S    
C59   C64   A    
C38   H12   S    
C39   C50   A    
C124  H20   S    
C88   C89   A    
C57   N3    A    
C4    H26   S    
C32   C94   A    
C41   N9    A    
C27   C28   S    
C19   C90   S    
C50   C61   A    
C16   H58   S    
C14   C15   S    
C124  C125  S    
C25   H70   S    
C18   H54   S    
C74   C81   S    
Cr1   O22   S    
C30   H86   S    
Cr4   O23   S    
C109  H6    S    
C94   H13   S    
C85   F3    S    
C95   C96   A    
C61   C91   A    
C92   C99   A    
Cr6   O9    S    
