data_mof_unit_37239.cif
_audit_creation_date              2012-12-10T19:49:42-0500
_audit_creation_method            fapswitch 2.2
_symmetry_space_group_name_H-M    P1
_symmetry_Int_Tables_number       1
_space_group_crystal_system       triclinic
_cell_length_a                    10.886823
_cell_length_b                    16.076213
_cell_length_c                    17.116246
_cell_angle_alpha                 98.534613
_cell_angle_beta                  90.190186
_cell_angle_gamma                 91.09483
_cell_volume                      2961.89523404

loop_
_atom_site_label
_atom_site_type_symbol
_atom_type_description
_atom_site_fract_x
_atom_site_fract_y
_atom_site_fract_z
_atom_type_partial_charge
C1    C     C_R   0.498515 0.487955 0.349320 0.867935
C2    C     C_R   0.505187 0.512169 0.650874 0.880520
C3    C     C_R   0.871552 0.496645 0.500284 -0.095779
C4    C     C_R   0.128829 0.503456 0.501914 -0.077032
C5    C     C_R   0.938480 0.421465 0.491385 0.158351
C6    C     C_R   0.062438 0.578681 0.516559 0.126009
C7    C     C_R   0.511232 0.479032 0.263919 -0.180771
C8    C     C_R   0.529231 0.520326 0.735995 -0.217698
C9    C     C_R   0.626087 0.496941 0.233137 -0.252040
C10   C     C_R   0.606543 0.461807 0.763102 -0.227807
C11   C     C_R   0.643418 0.487038 0.151925 -0.218000
C12   C     C_R   0.633918 0.467512 0.843019 -0.237798
C13   C     C_R   0.544402 0.463261 0.100630 -0.076900
C14   C     C_R   0.577181 0.527763 0.897790 -0.086893
C15   C     C_R   0.428518 0.446580 0.131141 0.556453
C16   C     C_R   0.500004 0.586748 0.871260 0.554896
C17   C     C_R   0.412409 0.450840 0.213052 0.317331
C18   C     C_R   0.482717 0.587057 0.790231 0.324710
C19   C     C_2   0.560431 0.457111 0.014120 0.400868
C20   C     C_2   0.594043 0.527240 0.983695 0.405682
C21   C     C_R   0.427737 0.746173 0.469247 -0.139771
C22   C     C_R   0.561470 0.253368 0.537710 -0.179587
C23   C     C_R   0.262579 0.501500 0.501296 0.865091
C24   C     C_R   0.737589 0.498584 0.500194 0.787149
C25   C     C_R   0.418256 0.833138 0.475374 0.491935
C26   C     C_R   0.565102 0.166335 0.534474 0.476154
C27   C     C_R   0.501533 0.885386 0.523563 -0.323599
C28   C     C_R   0.488378 0.114302 0.481007 -0.273951
C29   C     C_R   0.592695 0.848394 0.564626 0.410706
C30   C     C_R   0.407847 0.152190 0.433072 0.408013
C31   C     C_R   0.598485 0.760696 0.556939 0.639542
C32   C     C_R   0.406723 0.239863 0.438897 0.641094
C33   C     C_2   0.490395 0.978689 0.534757 0.507527
C34   C     C_2   0.495211 0.020748 0.471668 0.501432
C35   C     C_R   0.184158 0.759321 0.664500 0.571891
C36   C     C_R   0.856075 0.193918 0.425243 0.523915
C37   C     C_R   0.159756 0.676596 0.627774 0.328405
C38   C     C_R   0.863573 0.281068 0.423342 0.295139
C39   C     C_R   0.116696 0.661972 0.548873 -0.201547
C40   C     C_R   0.886406 0.336425 0.493903 -0.142869
C41   C     C_R   0.100022 0.730651 0.507916 0.608945
C42   C     C_R   0.892211 0.304351 0.565922 0.523497
C43   C     C_R   0.123325 0.812617 0.545525 -0.202590
C44   C     C_R   0.882898 0.217874 0.567050 -0.216729
C45   C     C_R   0.163870 0.826855 0.623801 -0.420379
C46   C     C_R   0.867054 0.162669 0.496656 -0.255694
C47   C     C_R   0.935056 0.574131 0.511875 -0.193189
C48   C     C_R   0.065514 0.426182 0.488674 -0.219942
Cu1   Cu    Cu3+1 0.493640 0.415410 0.495980 0.986054
Cu2   Cu    Cu3+1 0.506360 0.584590 0.504020 1.018936
H1    H     H_    0.177453 0.890456 0.653445 0.199826
H2    H     H_    0.862478 0.095490 0.497558 0.227408
H3    H     H_    0.697526 0.423929 0.862351 0.167939
H4    H     H_    0.733584 0.498644 0.128979 0.167873
H5    H     H_    0.362189 0.705824 0.433311 0.217234
H6    H     H_    0.622004 0.293364 0.577818 0.198539
H7    H     H_    0.107285 0.865421 0.514524 0.240955
H8    H     H_    0.890589 0.193402 0.622426 0.225497
H9    H     H_    0.885212 0.632413 0.523008 0.218614
H10   H     H_    0.115186 0.367684 0.479819 0.192337
H11   H     H_    0.703020 0.517021 0.272204 0.174117
H12   H     H_    0.648424 0.412744 0.722061 0.199870
N1    N     N_R   0.515930 0.711660 0.510070 -0.297195
N2    N     N_R   0.484070 0.288340 0.489930 -0.290270
O1    O     O_R   0.494030 0.420280 0.382610 -0.568899
O2    O     O_R   0.505970 0.579720 0.617390 -0.547635
O3    O     O_R   0.504770 0.563150 0.389400 -0.567543
O4    O     O_R   0.495230 0.436850 0.610600 -0.586395
O5    O     O_R   0.314270 0.428570 0.496610 -0.541187
O6    O     O_R   0.685730 0.571430 0.503390 -0.534048
O7    O     O_R   0.325020 0.571440 0.503400 -0.587071
O8    O     O_R   0.674980 0.428560 0.496600 -0.611005
F1    F     F_    0.330933 0.428393 0.081450 -0.633013
F2    F     F_    0.440907 0.643481 0.924088 -0.627069
F3    F     F_    0.328527 0.276521 0.393550 -0.668663
F4    F     F_    0.684517 0.724843 0.597835 -0.658623
O9    O     O_3   0.491310 0.975446 0.396098 -0.541774
C49   C     C_3   0.605236 0.981649 0.357675 0.067808
H13   H     H_    0.632600 0.916483 0.334255 0.183200
H14   H     H_    0.682015 0.009782 0.397095 0.145814
C50   C     C_3   0.589932 0.031707 0.288878 -0.266031
H15   H     H_    0.498152 0.017701 0.260797 0.268442
H16   H     H_    0.595787 0.099950 0.312009 0.212800
C51   C     C_3   0.687976 0.010305 0.225882 -0.838210
H17   H     H_    0.781410 0.019800 0.252103 0.311217
H18   H     H_    0.678253 0.051335 0.179549 0.247880
H19   H     H_    0.676734 0.943741 0.197724 0.251379
O10   O     O_3   0.489766 0.023553 0.610634 -0.536704
C52   C     C_3   0.388867 0.997467 0.652994 0.062746
H20   H     H_    0.396484 0.930220 0.660580 0.141153
H21   H     H_    0.301358 0.006858 0.621734 0.138187
C53   C     C_3   0.387259 0.050545 0.734766 -0.303536
H22   H     H_    0.476629 0.045118 0.765032 0.244989
H23   H     H_    0.374649 0.117683 0.728419 0.233937
C54   C     C_3   0.284088 0.022029 0.785423 -0.894147
H24   H     H_    0.193501 0.028391 0.757078 0.265081
H25   H     H_    0.285660 0.061745 0.844324 0.261284
H26   H     H_    0.296376 0.955425 0.793691 0.287829
F5    F     F_    0.674705 0.896840 0.612021 -0.595123
F6    F     F_    0.330329 0.104775 0.381507 -0.597126
F7    F     F_    0.645950 0.133641 0.581468 -0.625623
F8    F     F_    0.325456 0.865719 0.437115 -0.597945
F9    F     F_    0.221824 0.774528 0.740913 -0.659982
F10   F     F_    0.843838 0.139207 0.357469 -0.699094
O11   O     O_3   0.178822 0.609825 0.668514 -0.567232
C55   C     C_3   0.074470 0.598384 0.714831 0.085865
H27   H     H_    0.987759 0.597769 0.679794 0.132755
H28   H     H_    0.070762 0.649500 0.766290 0.196754
C56   C     C_3   0.083785 0.513988 0.745075 -0.278324
H29   H     H_    0.095670 0.463280 0.694122 0.263601
H30   H     H_    0.165587 0.515283 0.784337 0.239837
C57   C     C_3   0.968970 0.494538 0.790545 -0.836800
H31   H     H_    0.957133 0.543287 0.842846 0.240542
H32   H     H_    0.977958 0.432509 0.810939 0.274443
H33   H     H_    0.886245 0.492367 0.752086 0.280901
O12   O     O_3   0.860213 0.311617 0.351999 -0.615792
C58   C     C_3   0.738370 0.306799 0.322090 0.162204
H34   H     H_    0.707865 0.371892 0.320822 0.147625
H35   H     H_    0.670165 0.276675 0.358479 0.127282
C59   C     C_3   0.735998 0.259442 0.237684 -0.327852
H36   H     H_    0.791665 0.294909 0.198859 0.213858
H37   H     H_    0.777041 0.196676 0.236614 0.272491
C60   C     C_3   0.604920 0.247646 0.205431 -0.961531
H38   H     H_    0.544907 0.217875 0.246161 0.266643
H39   H     H_    0.604453 0.206441 0.147410 0.255185
H40   H     H_    0.566948 0.309239 0.197574 0.244727
F11   F     F_    0.055859 0.718313 0.432741 -0.620121
F12   F     F_    0.915024 0.356509 0.634465 -0.689617
O13   O     O_3   0.415401 0.650338 0.765158 -0.522000
C61   C     C_3   0.496100 0.716756 0.750800 0.186693
H41   H     H_    0.458032 0.743877 0.700044 0.179825
H42   H     H_    0.590618 0.695654 0.733350 0.141235
C62   C     C_3   0.503952 0.786231 0.822461 -0.354395
H43   H     H_    0.410096 0.806670 0.840702 0.294377
H44   H     H_    0.549136 0.762104 0.872542 0.231768
C63   C     C_3   0.578888 0.861888 0.803698 -0.851400
H45   H     H_    0.674497 0.843298 0.788089 0.286933
H46   H     H_    0.581471 0.911703 0.856115 0.253414
H47   H     H_    0.536791 0.887813 0.753650 0.280294
O14   O     O_3   0.298545 0.434178 0.243781 -0.576283
C64   C     C_3   0.273842 0.346590 0.228297 0.071306
H48   H     H_    0.345537 0.311900 0.256065 0.185654
H49   H     H_    0.271333 0.323418 0.163733 0.176074
C65   C     C_3   0.148512 0.327359 0.262213 -0.252036
H50   H     H_    0.148423 0.349102 0.326904 0.265167
H51   H     H_    0.076387 0.361785 0.234712 0.227734
C66   C     C_3   0.118094 0.233185 0.246379 -0.781551
H52   H     H_    0.113840 0.210972 0.181788 0.228287
H53   H     H_    0.027602 0.220455 0.272115 0.302780
H54   H     H_    0.188676 0.197293 0.273505 0.313434
O15   O     O_3   0.619750 0.601428 0.035265 -0.580274
C67   C     C_3   0.714597 0.650571 0.006978 0.108996
H55   H     H_    0.715477 0.713072 0.044725 0.188484
H56   H     H_    0.697693 0.663309 0.945863 0.126100
C68   C     C_3   0.841008 0.611465 0.013701 -0.451129
H57   H     H_    0.857688 0.602150 0.075836 0.245174
H58   H     H_    0.843763 0.549262 0.975557 0.202927
C69   C     C_3   0.943169 0.668138 0.988722 -0.802586
H59   H     H_    0.927505 0.680145 0.927243 0.240430
H60   H     H_    0.032976 0.637082 0.991570 0.286695
H61   H     H_    0.946667 0.729125 0.028896 0.264516
O16   O     O_3   0.516072 0.386618 0.963594 -0.582874
C70   C     C_3   0.559482 0.310738 0.985682 0.087633
H62   H     H_    0.497826 0.258836 0.957706 0.181504
H63   H     H_    0.554491 0.308829 0.050175 0.128816
C71   C     C_3   0.690098 0.292862 0.955162 -0.409773
H64   H     H_    0.689034 0.284571 0.889550 0.238752
H65   H     H_    0.752586 0.346683 0.977524 0.203006
C72   C     C_3   0.739994 0.213332 0.981395 -0.866299
H66   H     H_    0.751644 0.222396 0.046537 0.254518
H67   H     H_    0.831097 0.199487 0.954053 0.267818
H68   H     H_    0.676854 0.158852 0.962730 0.255157

loop_
_geom_bond_atom_site_label_1
_geom_bond_atom_site_label_2
_ccdc_geom_bond_type
C69   H60   S    
C58   H34   S    
Cu1   O4    S    
C46   H2    S    
C27   C29   A    
C54   H24   S    
C72   H67   S    
C72   H66   S    
C23   O5    A    
C66   H52   S    
C51   H19   S    
C32   F3    S    
C57   H32   S    
C50   H15   S    
C54   H26   S    
C24   O6    A    
C60   H38   S    
C39   C41   A    
O9    C49   S    
C27   C33   S    
C24   O8    A    
Cu1   O1    S    
C16   F2    S    
C70   H63   S    
C33   O10   S    
C51   H18   S    
O16   C70   S    
C2    O4    A    
C58   H35   S    
C34   O9    S    
C49   H14   S    
C25   F8    S    
C60   H39   S    
C68   H58   S    
C55   H27   S    
C45   H1    S    
C30   F6    S    
O12   C58   S    
C7    C9    A    
C41   F11   S    
C69   H61   S    
C19   C20   D    
C44   H8    S    
C7    C17   A    
Cu1   O8    S    
C62   C63   S    
C1    O1    A    
O15   C67   S    
C36   C46   A    
C52   H21   S    
Cu2   O3    S    
C12   H3    S    
C59   C60   S    
C42   F12   S    
O10   C52   S    
C40   C42   A    
C28   C34   S    
Cu1   N2    S    
Cu1   O5    S    
C68   C69   S    
C71   H65   S    
Cu2   N1    S    
C41   C43   A    
C3    C24   S    
C10   H12   S    
C42   C44   A    
C65   C66   S    
C57   H31   S    
C50   H16   S    
C44   C46   A    
C48   H10   S    
C5    C48   A    
C6    C47   A    
C13   C19   S    
C30   C32   A    
C23   O7    A    
C66   H54   S    
O14   C64   S    
C32   N2    A    
C63   H46   S    
C58   C59   S    
C21   H5    S    
C4    C23   S    
C29   F5    S    
C49   H13   S    
C63   H45   S    
C60   H40   S    
C22   H6    S    
C3    C5    A    
C47   H9    S    
C53   C54   S    
C8    C18   A    
C19   O16   S    
C63   H47   S    
C35   F9    S    
C61   H42   S    
Cu2   O7    S    
C37   O11   S    
C14   C20   S    
C38   O12   S    
C67   C68   S    
C29   C31   A    
C70   C71   S    
C53   H23   S    
C33   C34   D    
C16   C18   A    
C51   H17   S    
C52   C53   S    
C43   C45   A    
C9    C11   A    
C11   H4    S    
C10   C12   A    
C65   H51   S    
C15   F1    S    
C12   C14   A    
C13   C15   A    
C69   H59   S    
C72   H68   S    
C9    H11   S    
C56   C57   S    
C4    C6    A    
C36   C38   A    
C35   C45   A    
C50   C51   S    
C59   H36   S    
C59   H37   S    
O13   C61   S    
C4    C48   A    
C35   C37   A    
C15   C17   A    
C21   C25   A    
C54   H25   S    
C26   F7    S    
C66   H53   S    
C1    C7    S    
C2    C8    S    
C67   H56   S    
C65   H50   S    
C2    O2    A    
Cu2   O2    S    
C64   C65   S    
C25   C27   A    
C31   N1    A    
O11   C55   S    
C26   C28   A    
C20   O15   S    
C36   F10   S    
C64   H49   S    
C61   H41   S    
Cu2   O6    S    
C28   C30   A    
C37   C39   A    
C64   H48   S    
C38   C40   A    
C11   C13   A    
C49   C50   S    
C31   F4    S    
C62   H43   S    
C71   H64   S    
C55   H28   S    
C56   H30   S    
C3    C47   A    
C53   H22   S    
C1    O3    A    
C17   O14   S    
C14   C16   A    
C21   N1    A    
C70   H62   S    
C43   H7    S    
C22   N2    A    
C61   C62   S    
C67   H55   S    
C71   C72   S    
C8    C10   A    
Cu1   Cu2   S    
C22   C26   A    
C5    C40   S    
C68   H57   S    
C62   H44   S    
C6    C39   S    
C18   O13   S    
C52   H20   S    
C56   H29   S    
C57   H33   S    
C55   C56   S    
