data_mof_unit_34194.cif
_audit_creation_date              2013-03-05T15:46:54-0500
_audit_creation_method            fapswitch 2.2
_symmetry_space_group_name_H-M    P1
_symmetry_Int_Tables_number       1
_space_group_crystal_system       triclinic
_cell_length_a                    15.050324
_cell_length_b                    15.01683
_cell_length_c                    14.861953
_cell_angle_alpha                 108.707701
_cell_angle_beta                  110.513096
_cell_angle_gamma                 109.577491
_cell_volume                      2572.87419519

loop_
_atom_site_label
_atom_site_type_symbol
_atom_site_description
_atom_site_fract_x
_atom_site_fract_y
_atom_site_fract_z
_atom_type_partial_charge
C1    C     C_R   0.198396 0.000718 0.908324 -0.091451
C2    C     C_R   0.752309 0.938584 0.030707 -0.010902
H1    H     H_    0.169228 0.029141 0.852124 0.131670
H2    H     H_    0.771358 0.892356 0.069299 0.121417
N1    N     N_R   0.293810 0.002730 0.945950 -0.058468
N2    N     N_R   0.706190 0.997270 0.054050 -0.052193
C3    C     C_R   0.805676 0.205243 0.299447 0.230421
C4    C     C_R   0.240219 0.777610 0.683031 0.247169
N3    N     N_R   0.706160 0.152130 0.208910 -0.120591
N4    N     N_R   0.293840 0.847870 0.791090 -0.113516
C5    C     C_R   0.410425 0.980802 0.221810 -0.053509
C6    C     C_R   0.588000 0.087638 0.784994 -0.093668
H3    H     H_    0.325636 0.949547 0.198422 0.118036
H4    H     H_    0.671817 0.144910 0.814636 0.141441
N5    N     N_R   0.443140 0.945920 0.152090 -0.050894
N6    N     N_R   0.556860 0.054080 0.847910 -0.056590
C7    C     C_R   0.588376 0.315210 0.049180 0.210545
C8    C     C_R   0.413992 0.713964 0.024569 0.266879
N7    N     N_R   0.556830 0.208940 0.002760 -0.069186
N8    N     N_R   0.443170 0.791060 0.997240 -0.078320
C9    C     C_R   0.593462 0.070559 0.314665 -0.103510
C10   C     C_R   0.406213 0.000467 0.697429 -0.031315
H5    H     H_    0.678930 0.121883 0.377869 0.164272
H6    H     H_    0.325192 0.987437 0.654865 0.155742
N9    N     N_R   0.556790 0.002750 0.208910 -0.051929
N10   N     N_R   0.443210 0.997250 0.791090 -0.066967
C11   C     C_R   0.405496 0.218744 0.968166 -0.136830
C12   C     C_R   0.594258 0.793764 0.097386 -0.143279
H7    H     H_    0.320302 0.190844 0.936310 0.132457
H8    H     H_    0.680079 0.823087 0.149286 0.138692
N11   N     N_R   0.443180 0.152110 0.945950 -0.064005
N12   N     N_R   0.556820 0.847890 0.054050 -0.064949
C13   C     C_R   0.807983 0.293313 0.205953 0.493689
C14   C     C_R   0.246775 0.685781 0.775844 0.487114
N13   N     N_R   0.706170 0.208950 0.152090 -0.125701
N14   N     N_R   0.293830 0.791050 0.847910 -0.111748
C15   C     C_R   0.198467 0.908070 0.998991 -0.065437
C16   C     C_R   0.753867 0.032550 0.939697 0.023830
H9    H     H_    0.170562 0.852655 0.027701 0.144767
H10   H     H_    0.773807 0.072437 0.895038 0.143793
N15   N     N_R   0.293800 0.945910 0.002760 -0.059055
N16   N     N_R   0.706200 0.054090 0.997240 -0.046650
C17   C     C_R   0.139534 0.943454 0.942416 0.230158
C18   C     C_R   0.782756 0.959939 0.959338 0.132719
C19   C     C_R   0.867545 0.304423 0.308575 0.029538
C20   C     C_R   0.223603 0.676032 0.672344 -0.061162
C21   C     C_R   0.502967 0.061768 0.325235 0.067712
C22   C     C_R   0.494204 0.054121 0.688188 0.079422
C23   C     C_R   0.494185 0.322884 0.036269 -0.015024
C24   C     C_R   0.505793 0.708698 0.080362 -0.033245
Ni1   Ni    Ni4+2 0.369690 0.999990 0.869700 0.240968
Ni2   Ni    Ni4+2 0.630310 0.000010 0.130300 0.247899
Ni3   Ni    Ni4+2 0.369670 0.869670 0.000000 0.281303
Ni4   Ni    Ni4+2 0.630330 0.130330 0.000000 0.295569
C25   C     C_R   0.098838 0.228570 0.786481 -0.038109
C26   C     C_R   0.816349 0.896469 0.424980 -0.115255
H11   H     H_    0.049092 0.207403 0.701774 0.204964
H12   H     H_    0.824178 0.961390 0.491798 0.177759
C27   C     C_R   0.211963 0.300213 0.844379 -0.122536
C28   C     C_R   0.712622 0.805004 0.343378 -0.141190
H13   H     H_    0.248660 0.333687 0.803425 0.202095
H14   H     H_    0.641059 0.799568 0.348386 0.160242
C29   C     C_R   0.276535 0.333083 0.956416 0.019482
C30   C     C_R   0.702051 0.720313 0.256646 0.068927
C31   C     C_R   0.226090 0.292391 0.009067 -0.122416
C32   C     C_R   0.796106 0.729244 0.251978 -0.165806
H15   H     H_    0.273787 0.320082 0.096390 0.180448
H16   H     H_    0.789600 0.665796 0.185077 0.187037
C33   C     C_R   0.113012 0.218837 0.949906 -0.130164
C34   C     C_R   0.899144 0.820581 0.333087 -0.073588
H17   H     H_    0.074321 0.189458 0.991353 0.177373
H18   H     H_    0.970789 0.826304 0.328357 0.192098
C35   C     C_R   0.049431 0.186782 0.838568 0.229991
C36   C     C_R   0.909640 0.903939 0.419988 0.307023
C37   C     C_R   0.401082 0.522723 0.033700 -0.141459
C38   C     C_R   0.585038 0.520562 0.159464 -0.173932
H19   H     H_    0.328605 0.519612 0.979571 0.185431
H20   H     H_    0.656341 0.519377 0.210128 0.173108
C39   C     C_R   0.501936 0.619607 0.102238 0.058186
C40   C     C_R   0.487677 0.422273 0.075804 0.068501
C41   C     C_R   0.594243 0.620369 0.173070 0.055802
C42   C     C_R   0.390892 0.425166 0.023245 0.046514
C43   C     C_R   0.029909 0.491264 0.390051 0.426653
C44   C     C_R   0.152128 0.477468 0.568777 0.441297
C45   C     C_R   0.138147 0.572504 0.469622 0.392640
C46   C     C_R   0.043442 0.394738 0.494147 0.421156
C47   C     C_R   0.184855 0.576489 0.570382 -0.232809
C48   C     C_R   0.980980 0.396388 0.397866 -0.253021
C49   C     C_R   0.589224 0.162657 0.620817 -0.203993
C50   C     C_R   0.399265 0.062279 0.419758 -0.177721
H21   H     H_    0.663531 0.210635 0.701064 0.173366
H22   H     H_    0.323810 0.026499 0.343394 0.167965
C51   C     C_R   0.595134 0.174759 0.533496 0.225847
C52   C     C_R   0.392548 0.039097 0.500645 0.237388
C53   C     C_R   0.500464 0.109927 0.427476 0.009067
C54   C     C_R   0.490382 0.085613 0.602711 -0.003677
C55   C     C_R   0.941971 0.870294 0.850931 0.442053
C56   C     C_R   0.977608 0.028594 0.045398 0.439899
C57   C     C_R   0.852407 0.873509 0.855415 0.149311
C58   C     C_R   0.066206 0.023571 0.042002 0.079527
C59   C     C_R   0.871731 0.952496 0.952797 -0.260811
C60   C     C_R   0.047054 0.944810 0.944440 -0.268457
Cl1   Cl    Cl    0.953414 0.534653 0.312980 -0.484652
Cl2   Cl    Cl    0.247159 0.455990 0.656583 -0.511106
Cl3   Cl    Cl    0.215603 0.667868 0.443595 -0.471348
Cl4   Cl    Cl    0.983587 0.328356 0.553431 -0.494632
I1    I     I_    0.742665 0.302843 0.572553 -0.174287
I2    I     I_    0.231095 0.913734 0.435572 -0.232487
Cl5   Cl    Cl    0.923691 0.773765 0.729847 -0.520347
Cl6   Cl    Cl    0.000065 0.133622 0.163922 -0.530537
I3    I     I_    0.866088 0.102809 0.332310 -0.276877
I4    I     I_    0.114322 0.794323 0.581487 -0.198756
I5    I     I_    0.689316 0.761502 0.716600 -0.176468
I6    I     I_    0.229187 0.138650 0.183274 -0.312100
I7    I     I_    0.720772 0.428620 0.052690 -0.244266
I8    I     I_    0.291849 0.687838 0.071356 -0.257812
Cl7   Cl    Cl    0.871139 0.310540 0.127755 -0.517753
Cl8   Cl    Cl    0.175795 0.583134 0.797512 -0.523670
I9    I     I_    0.878497 0.078952 0.749316 -0.389471
I10   I     I_    0.066679 0.040319 0.541742 -0.286762

loop_
_geom_bond_atom_site_label_1
_geom_bond_atom_site_label_2
_geom_bond_distance
_ccdc_geom_bond_type
C14   Cl8   1.754112 S    
C10   C22   1.380275 A    
C29   C31   1.405097 A    
C13   Cl7   1.767294 S    
C56   Cl6   1.774249 S    
C25   C27   1.395879 A    
C11   H7    1.063491 S    
C13   C19   1.391367 A    
C32   H16   1.080527 S    
C44   C47   1.390141 A    
C6    C22   1.397123 A    
N7    N11   1.383571 A    
C24   C39   1.462588 S    
C50   C53   1.392648 A    
C2    N2    1.327162 A    
C52   I2    2.122101 S    
C43   Cl1   1.766133 S    
C1    N1    1.331557 A    
N5    Ni3   1.839166 S    
C44   C46   1.389960 A    
C16   N16   1.326167 A    
C4    I4    2.118565 S    
C7    I7    2.114143 S    
C46   C48   1.423898 A    
N5    N9    1.383567 A    
C28   H14   1.083236 S    
C33   H17   1.080146 S    
N12   Ni2   1.869110 S    
C9    N9    1.341849 A    
N14   Ni3   1.839228 S    
C7    N7    1.343315 A    
C5    N5    1.331434 A    
C1    C17   1.365476 A    
C6    N6    1.341286 A    
C2    C18   1.377765 A    
C31   H15   1.083199 S    
C34   C36   1.395460 A    
C33   C35   1.398600 A    
C14   C20   1.398041 A    
C26   H12   1.081877 S    
C49   H21   1.079908 S    
C14   N14   1.334038 A    
C55   C60   1.400275 A    
C43   C48   1.431305 A    
C51   C53   1.404844 A    
N13   Ni4   1.839225 S    
C15   N15   1.327230 A    
C46   Cl4   1.760504 S    
N3    Ni2   1.868711 S    
C12   C24   1.373056 A    
C45   Cl3   1.764073 S    
N4    Ni1   1.868711 S    
C55   C57   1.388631 A    
C50   C52   1.380798 A    
N6    Ni4   1.839168 S    
C45   C47   1.384473 A    
N6    N10   1.383567 A    
C27   H13   1.083508 S    
C26   C36   1.400808 A    
C29   C42   1.478781 S    
C11   N11   1.315894 A    
C12   N12   1.334660 A    
C19   C48   1.496471 S    
C58   I6    2.152612 S    
C40   C42   1.414425 A    
C7    C23   1.411640 A    
C39   C41   1.412440 A    
C26   C28   1.400734 A    
C1    H1    1.081565 S    
C30   C32   1.405049 A    
C15   C17   1.362275 A    
C2    H2    1.080094 S    
C16   C18   1.376995 A    
N11   Ni1   1.869110 S    
C55   Cl5   1.768528 S    
C50   H22   1.078423 S    
C58   C60   1.401033 A    
C52   C54   1.422189 A    
C37   H19   1.079795 S    
N15   Ni3   1.869522 S    
N7    Ni4   1.869421 S    
C43   C45   1.390345 A    
C6    H4    1.079565 S    
C56   C58   1.377820 A    
C25   H11   1.081524 S    
N2    N16   1.379506 A    
C44   Cl2   1.767388 S    
C10   H6    1.070264 S    
C8    I8    2.145755 S    
C3    C19   1.398610 A    
C8    C24   1.383867 A    
C20   C47   1.488030 S    
N8    N12   1.383572 A    
C3    N3    1.337350 A    
N1    N15   1.379506 A    
C22   C54   1.480930 S    
C57   C59   1.399553 A    
C38   C40   1.402890 A    
C38   H20   1.083500 S    
N8    Ni3   1.869419 S    
C38   C41   1.397580 A    
C57   I5    2.137391 S    
N4    N14   1.379625 A    
C18   C59   1.414114 S    
C37   C42   1.371341 A    
C56   C59   1.404611 A    
C36   I10   2.106236 S    
C27   C29   1.406356 A    
C5    C21   1.395241 A    
C23   C40   1.469071 S    
C28   C30   1.404760 A    
C49   C54   1.410758 A    
C9    H5    1.074886 S    
C17   C60   1.409442 S    
C15   H9    1.081699 S    
N10   Ni1   1.869928 S    
C51   I1    2.117790 S    
C16   H10   1.078664 S    
C5    H3    1.073611 S    
C32   C34   1.393928 A    
C31   C33   1.399268 A    
C12   H8    1.076988 S    
C13   N13   1.335131 A    
C3    I3    2.130595 S    
C8    N8    1.335703 A    
C49   C51   1.395167 A    
C4    C20   1.405589 A    
C30   C41   1.479102 S    
N9    Ni2   1.869925 S    
C35   I9    2.106826 S    
C25   C35   1.395810 A    
C4    N4    1.333314 A    
C10   N10   1.329645 A    
N3    N13   1.379625 A    
C21   C53   1.478768 S    
N1    Ni1   1.870475 S    
C34   H18   1.081617 S    
N2    Ni2   1.870476 S    
C37   C39   1.394286 A    
N16   Ni4   1.869521 S    
C11   C23   1.375004 A    
C9    C21   1.392790 A    
