data_mof_unit_8839.cif
_audit_creation_date              2012-12-10T18:31:59-0500
_audit_creation_method            fapswitch 2.2
_symmetry_space_group_name_H-M    P1
_symmetry_Int_Tables_number       1
_space_group_crystal_system       triclinic
_cell_length_a                    10.646009
_cell_length_b                    14.978494
_cell_length_c                    15.401016
_cell_angle_alpha                 82.278075
_cell_angle_beta                  89.50914
_cell_angle_gamma                 104.548576
_cell_volume                      2353.26699643

loop_
_atom_site_label
_atom_site_type_symbol
_atom_type_description
_atom_site_fract_x
_atom_site_fract_y
_atom_site_fract_z
_atom_type_partial_charge
C1    C     C_R   0.479394 0.441770 0.662406 0.918334
C2    C     C_R   0.407793 0.450774 0.896862 0.034318
C3    C     C_R   0.347135 0.356065 0.928381 0.061346
C4    C     C_R   0.741835 0.500610 0.500589 0.959595
C5    C     C_R   0.416363 0.520475 0.951948 -0.041762
C6    C     C_R   0.394499 0.491380 0.043058 0.019544
C7    C     C_R   0.330498 0.397311 0.073399 -0.221412
C8    C     C_R   0.303946 0.331329 0.016241 -0.201381
C9    C     C_R   0.446318 0.617931 0.920291 0.433709
C10   C     C_R   0.478762 0.682735 0.978758 -0.331844
C11   C     C_R   0.481627 0.653256 0.068127 0.096300
C12   C     C_3   0.120643 0.498942 0.499415 -0.054002
C13   C     C_R   0.439986 0.557131 0.100770 0.085254
C14   C     C_R   0.527618 0.718533 0.125281 -0.170745
C15   C     C_R   0.538952 0.688562 0.213845 -0.216577
C16   C     C_R   0.515221 0.558168 0.337692 0.892248
C17   C     C_R   0.455741 0.528603 0.189108 -0.217005
C18   C     C_R   0.680642 0.839526 0.644752 -0.293854
C19   C     C_R   0.655011 0.751947 0.618660 0.052636
C20   C     C_R   0.515388 0.793874 0.509974 -0.081439
C21   C     C_R   0.537567 0.884363 0.532955 -0.004203
C22   C     C_R   0.622081 0.906102 0.602161 0.166195
C23   C     C_3   0.068771 0.494431 0.404734 0.263832
C24   C     C_R   0.479686 0.953242 0.489938 0.083493
C25   C     C_R   0.508288 0.043516 0.516934 0.083101
C26   C     C_R   0.591921 0.061414 0.586934 -0.246420
C27   C     C_R   0.647492 0.993848 0.628479 -0.215042
C28   C     C_R   0.257701 0.499438 0.499677 0.912670
C29   C     C_R   0.395166 0.935090 0.420448 -0.241836
C30   C     C_R   0.342417 0.003389 0.377287 -0.214021
C31   C     C_R   0.371245 0.092064 0.401647 0.184373
C32   C     C_R   0.453282 0.113182 0.472245 -0.001729
C33   C     C_R   0.319616 0.160438 0.355137 -0.321720
C34   C     C_3   0.103337 0.591462 0.528489 -0.484116
C35   C     C_R   0.349807 0.249182 0.378677 -0.009916
C36   C     C_R   0.477742 0.204341 0.493853 -0.069536
C37   C     C_3   0.896478 0.417149 0.566042 0.287917
C38   C     C_3   0.041717 0.418365 0.567604 -0.476401
C39   C     C_3   0.922113 0.492381 0.405111 0.163332
C40   C     C_3   0.961292 0.593364 0.527689 -0.358497
C41   C     C_3   0.878406 0.501375 0.499981 -0.019603
C42   C     C_3   0.870761 0.541641 0.262579 0.100677
C43   C     C_3   0.870246 0.627618 0.197853 -0.815421
C44   C     C_3   0.362503 0.142126 0.909795 0.083309
C45   C     C_R   0.445823 0.407197 0.754991 -0.159293
C46   C     C_3   0.295476 0.043524 0.951631 -0.820991
C47   C     C_3   0.788544 0.334735 0.696225 0.093290
C48   C     C_3   0.761381 0.342808 0.791561 -0.822317
C49   C     C_3   0.313824 0.654063 0.813906 0.100293
C50   C     C_3   0.311454 0.700086 0.719957 -0.807263
C51   C     C_3   0.046086 0.333806 0.386436 0.127807
C52   C     C_3   0.010702 0.282949 0.307504 -0.872383
C53   C     C_R   0.505741 0.593075 0.245421 -0.066713
C54   C     C_R   0.334551 0.287670 0.871923 0.467986
C55   C     C_R   0.379040 0.314734 0.784008 -0.318775
C56   C     C_R   0.467099 0.472174 0.813231 -0.227252
H1    H     H_    0.120099 0.562874 0.366871 0.152248
H2    H     H_    0.313262 0.303422 0.342101 0.148344
H3    H     H_    0.279144 0.986742 0.323752 0.144560
H4    H     H_    0.745126 0.854969 0.697868 0.145218
H5    H     H_    0.078322 0.428534 0.634065 0.211622
H6    H     H_    0.617483 0.127291 0.611470 0.122275
H7    H     H_    0.257843 0.145702 0.300527 0.143310
H8    H     H_    0.861918 0.425085 0.388421 0.079461
H9    H     H_    0.950724 0.654686 0.481502 0.215599
H10   H     H_    0.928733 0.602367 0.594152 0.209771
H11   H     H_    0.138140 0.597785 0.595832 0.211875
H12   H     H_    0.255128 0.260008 0.042185 0.183432
H13   H     H_    0.842407 0.351792 0.541612 0.036711
H14   H     H_    0.161216 0.653373 0.484113 0.188830
H15   H     H_    0.772146 0.493008 0.266246 0.145493
H16   H     H_    0.943103 0.507694 0.237778 0.171678
H17   H     H_    0.969147 0.675549 0.189875 0.251583
H18   H     H_    0.839570 0.606917 0.133158 0.210419
H19   H     H_    0.801640 0.664509 0.222087 0.262995
H20   H     H_    0.575768 0.739689 0.257027 0.158763
H21   H     H_    0.441866 0.171448 0.952682 0.134385
H22   H     H_    0.405152 0.138414 0.844528 0.141209
H23   H     H_    0.434587 0.455487 0.214404 0.153919
H24   H     H_    0.216758 0.011679 0.909934 0.259221
H25   H     H_    0.366832 0.000491 0.958662 0.202229
H26   H     H_    0.253283 0.044677 0.017537 0.251038
H27   H     H_    0.850827 0.285213 0.694611 0.137268
H28   H     H_    0.694449 0.306861 0.666344 0.138105
H29   H     H_    0.703470 0.394352 0.795490 0.258386
H30   H     H_    0.706151 0.274148 0.826366 0.196755
H31   H     H_    0.854321 0.365789 0.824155 0.255931
H32   H     H_    0.275392 0.695249 0.857985 0.138473
H33   H     H_    0.249493 0.582057 0.820613 0.148838
H34   H     H_    0.505273 0.756419 0.953421 0.168386
H35   H     H_    0.345264 0.659018 0.674021 0.276992
H36   H     H_    0.211041 0.703922 0.704763 0.193489
H37   H     H_    0.375983 0.771828 0.711110 0.262469
H38   H     H_    0.711520 0.010678 0.681596 0.141505
H39   H     H_    0.698433 0.699341 0.651510 0.134776
H40   H     H_    0.451887 0.769761 0.459447 0.130006
H41   H     H_    0.367903 0.868760 0.396868 0.137642
H42   H     H_    0.055437 0.349720 0.556707 0.132641
H43   H     H_    0.957467 0.319981 0.428971 0.098888
H44   H     H_    0.116643 0.302647 0.423967 0.176379
H45   H     H_    0.360566 0.263804 0.738878 0.173572
H46   H     H_    0.098391 0.292120 0.264294 0.250182
H47   H     H_    0.969510 0.207423 0.329726 0.215815
H48   H     H_    0.937382 0.311090 0.269658 0.248776
H49   H     H_    0.532099 0.539736 0.792386 0.223201
H50   H     H_    0.297116 0.373547 0.140969 0.144494
H51   H     H_    0.557250 0.792418 0.101151 0.134881
H52   H     H_    0.538058 0.227597 0.546177 0.116073
N1    N     N_R   0.573860 0.731700 0.552730 -0.109027
N2    N     N_R   0.426060 0.268290 0.447230 -0.101330
O1    O     O_R   0.462770 0.383110 0.605620 -0.628162
O2    O     O_3   0.270542 0.195895 0.901137 -0.618438
O3    O     O_3   0.850637 0.423772 0.651343 -0.603975
O4    O     O_3   0.442640 0.652137 0.832689 -0.623862
O5    O     O_3   0.104704 0.429006 0.356457 -0.625911
O6    O     O_R   0.510160 0.531900 0.639510 -0.615682
O7    O     O_R   0.661510 0.425600 0.483070 -0.657153
O8    O     O_R   0.708900 0.574390 0.516960 -0.616134
O9    O     O_R   0.489840 0.468100 0.360490 -0.622013
O10   O     O_R   0.537230 0.616890 0.394380 -0.616235
O11   O     O_R   0.291100 0.425610 0.483040 -0.603221
O12   O     O_R   0.338490 0.574400 0.516930 -0.646410
O13   O     O_3   0.902254 0.568522 0.345802 -0.624619
Zn1   Zn    Zn3+2 0.468350 0.400660 0.477370 0.933305
Zn2   Zn    Zn3+2 0.531650 0.599340 0.522630 0.940666

loop_
_geom_bond_atom_site_label_1
_geom_bond_atom_site_label_2
_ccdc_geom_bond_type
C43   H17   S    
C52   H47   S    
C37   H13   S    
C36   H52   S    
C38   H42   S    
C7    C8    A    
C39   C41   S    
O9    Zn1   S    
C39   H8    S    
C12   C23   S    
C52   H46   S    
C26   C27   A    
C29   C30   A    
C12   C28   S    
C35   H2    S    
C34   C40   S    
C9    O4    S    
C15   C53   A    
C44   H21   S    
O7    Zn1   S    
C16   O10   A    
C30   C31   A    
C33   C35   A    
C3    C54   A    
C28   O12   A    
C37   O3    S    
C4    C41   S    
C17   H23   S    
C39   O13   S    
C47   O3    S    
C18   C19   A    
C16   C53   S    
O11   Zn1   S    
N2    Zn1   S    
C46   H26   S    
C47   C48   S    
C45   C56   A    
C31   C33   A    
C14   H51   S    
C1    O6    A    
C47   H27   S    
C9    C10   A    
C34   H14   S    
C38   H5    S    
C43   H18   S    
C15   H20   S    
C20   H40   S    
C40   H10   S    
C21   C22   A    
N1    Zn2   S    
C43   H19   S    
C49   H32   S    
C4    O8    A    
C44   C46   S    
C42   O13   S    
C19   N1    A    
C51   H43   S    
C7    H50   S    
C51   C52   S    
C24   C25   A    
C3    C8    A    
C16   O9    A    
O10   Zn2   S    
C25   C26   A    
C51   O5    S    
C5    C9    A    
C37   C38   S    
C46   H25   S    
C31   C32   A    
C14   C15   A    
C33   H7    S    
C30   H3    S    
C42   H16   S    
C48   H31   S    
C54   O2    S    
C47   H28   S    
C10   H34   S    
C35   N2    A    
C44   O2    S    
C50   H36   S    
C40   C41   S    
O8    Zn2   S    
C8    H12   S    
O6    Zn2   S    
C36   N2    A    
C48   H30   S    
C4    O7    A    
C2    C5    A    
C42   C43   S    
C12   C34   S    
C12   C38   S    
C17   C53   A    
C19   H39   S    
C18   H4    S    
C51   H44   S    
C23   H1    S    
C54   C55   A    
C52   H48   S    
O1    Zn1   S    
C18   C22   A    
C49   H33   S    
C34   H11   S    
C32   C36   A    
C50   H37   S    
C6    C7    A    
C29   H41   S    
C55   H45   S    
C13   C17   A    
C22   C27   A    
O12   Zn2   S    
C44   H22   S    
C2    C3    A    
C26   H6    S    
C2    C56   A    
C1    O1    A    
C6    C13   A    
C46   H24   S    
C11   C13   A    
C1    C45   S    
C5    C6    A    
C25   C32   A    
C23   C39   S    
C42   H15   S    
C11   C14   A    
C49   O4    S    
C37   C41   S    
C40   H9    S    
C56   H49   S    
C10   C11   A    
C23   O5    S    
C20   N1    A    
C50   H35   S    
C24   C29   A    
C20   C21   A    
C45   C55   A    
C49   C50   S    
C21   C24   A    
C48   H29   S    
C27   H38   S    
C28   O11   A    
