data_mof_unit_5692.cif
_audit_creation_date              2012-12-11T17:37:42-0500
_audit_creation_method            fapswitch 2.2
_symmetry_space_group_name_H-M    P1
_symmetry_Int_Tables_number       1
_space_group_crystal_system       triclinic
_cell_length_a                    12.945876
_cell_length_b                    12.985294
_cell_length_c                    15.299811
_cell_angle_alpha                 116.233684
_cell_angle_beta                  64.189369
_cell_angle_gamma                 96.910789
_cell_volume                      2068.60989405

loop_
_atom_site_label
_atom_site_type_symbol
_atom_type_description
_atom_site_fract_x
_atom_site_fract_y
_atom_site_fract_z
_atom_type_partial_charge
C1    C     C_R   0.000642 0.832926 0.053500 -0.124246
C2    C     C_R   0.674319 0.533025 0.322051 0.049782
C3    C     C_R   0.661775 0.460903 0.926740 0.170242
C4    C     C_R   0.076073 0.790227 0.300822 0.057409
C5    C     C_R   0.337975 0.516617 0.951034 -0.100796
C6    C     C_R   0.967556 0.179225 0.781936 -0.108300
C7    C     C_R   0.198698 0.509395 0.695488 -0.119165
C8    C     C_R   0.053528 0.254898 0.087205 -0.131979
C9    C     C_R   0.952919 0.171124 0.992847 -0.112438
C10   C     C_R   0.297113 0.597221 0.793282 -0.162702
C11   C     C_R   0.259446 0.416816 0.048556 -0.166399
C12   C     C_R   0.679555 0.465006 0.220210 -0.149675
C13   C     C_R   0.049755 0.279341 0.684678 -0.138181
C14   C     C_R   0.361714 0.435282 0.975904 0.150067
C15   C     C_R   0.032977 0.170497 0.679672 0.052458
C16   C     C_R   0.293228 0.569351 0.697489 0.063344
C17   C     C_R   0.010933 0.150961 0.042529 0.041133
C18   C     C_R   0.426534 0.697818 0.209825 -0.115963
C19   C     C_R   0.315815 0.750171 0.286177 -0.131040
C20   C     C_R   0.290995 0.869618 0.327678 0.129237
C21   C     C_R   0.379640 0.935605 0.292268 -0.171050
C22   C     C_R   0.490335 0.882850 0.215878 -0.112816
C23   C     C_R   0.754875 0.520771 0.893601 -0.189662
C24   C     C_R   0.513718 0.764082 0.174592 -0.082479
C25   C     C_R   0.158644 0.022673 0.504881 -0.241880
C26   C     C_R   0.047176 0.069633 0.584409 0.064479
C27   C     C_R   0.948927 0.021685 0.571282 0.005259
C28   C     C_R   0.963650 0.928521 0.476769 -0.248203
C29   C     C_R   0.073774 0.881923 0.396789 0.063874
C30   C     C_R   0.173508 0.925561 0.409593 0.023968
C31   C     C_R   0.765597 0.019365 0.721341 -0.169787
C32   C     C_R   0.647642 0.051059 0.785097 -0.129316
C33   C     C_R   0.592334 0.129632 0.776354 -0.084703
C34   C     C_R   0.016705 0.696537 0.301413 -0.162369
C35   C     C_R   0.655406 0.178727 0.705726 -0.080062
C36   C     C_R   0.773829 0.149076 0.643475 -0.149308
C37   C     C_R   0.829285 0.068538 0.650455 0.140435
C38   C     C_R   0.857364 0.324451 0.377555 -0.115377
C39   C     C_R   0.754677 0.368638 0.392162 -0.115520
C40   C     C_R   0.699284 0.474620 0.480023 0.114424
C41   C     C_R   0.746518 0.533497 0.554469 -0.188235
C42   C     C_R   0.848425 0.488259 0.540107 -0.120909
C43   C     C_R   0.904149 0.384128 0.451401 -0.115520
C44   C     C_R   0.495226 0.540312 0.589861 -0.242545
C45   C     C_R   0.676216 0.422501 0.991139 -0.127841
C46   C     C_R   0.388019 0.576781 0.607408 0.055627
C47   C     C_R   0.374268 0.603208 0.533103 0.032360
C48   C     C_R   0.471263 0.589324 0.439213 -0.220906
C49   C     C_R   0.577698 0.549126 0.420771 0.058513
C50   C     C_R   0.590619 0.523803 0.496409 0.018365
C51   C     C_R   0.213583 0.592758 0.478697 0.039402
C52   C     C_R   0.109103 0.639656 0.498462 -0.186536
C53   C     C_R   0.053221 0.741229 0.590695 -0.103431
C54   C     C_R   0.100535 0.796157 0.664635 -0.102597
C55   C     C_R   0.204238 0.750012 0.646163 -0.158980
C56   C     C_R   0.097237 0.798543 0.208236 -0.129426
C57   C     C_R   0.262080 0.648433 0.553004 0.097891
C58   C     C_2   0.474937 0.395911 0.949647 -0.235253
C59   C     C_2   0.566767 0.440232 0.898025 -0.199870
C60   C     C_2   0.833912 0.957185 0.087391 -0.212305
C61   C     C_2   0.819129 0.039740 0.184308 -0.181910
C62   C     C_R   0.783503 0.556957 0.314026 -0.109303
C63   C     C_R   0.901151 0.747992 0.955546 -0.153426
C64   C     C_R   0.913123 0.852452 0.031218 0.142244
H1    H     H_    0.029854 0.894991 0.111416 0.093319
H2    H     H_    0.932891 0.110061 0.804050 0.088648
H3    H     H_    0.166049 0.482442 0.635259 0.096708
H4    H     H_    0.091335 0.274125 0.142642 0.087338
H5    H     H_    0.897720 0.112869 0.961142 0.086536
H6    H     H_    0.354287 0.653326 0.824037 0.094696
H7    H     H_    0.249553 0.363112 0.088484 0.092161
H8    H     H_    0.090500 0.302869 0.618457 0.097682
H9    H     H_    0.599456 0.723527 0.115606 0.118425
H10   H     H_    0.444825 0.605932 0.178328 0.114198
H11   H     H_    0.249867 0.697636 0.313588 0.114120
H12   H     H_    0.609563 0.427599 0.199306 0.099832
H13   H     H_    0.362871 0.027634 0.323028 0.109711
H14   H     H_    0.558042 0.934110 0.188658 0.116770
H15   H     H_    0.232855 0.060392 0.518403 0.135279
H16   H     H_    0.888029 0.893230 0.464281 0.144147
H17   H     H_    0.806885 0.954862 0.725385 0.096361
H18   H     H_    0.598624 0.012704 0.839386 0.104210
H19   H     H_    0.500408 0.151650 0.823642 0.108630
H20   H     H_    0.612244 0.238544 0.698073 0.118852
H21   H     H_    0.821421 0.185404 0.587073 0.113299
H22   H     H_    0.983480 0.349600 0.439990 0.097292
H23   H     H_    0.776947 0.549637 0.831728 0.097757
H24   H     H_    0.900918 0.243989 0.308953 0.110366
H25   H     H_    0.719062 0.321139 0.334620 0.119363
H26   H     H_    0.704837 0.614888 0.623085 0.110662
H27   H     H_    0.884424 0.534185 0.597556 0.114005
H28   H     H_    0.503650 0.516398 0.646253 0.132162
H29   H     H_    0.464360 0.610355 0.380635 0.136673
H30   H     H_    0.071217 0.596744 0.442209 0.115262
H31   H     H_    0.972983 0.777079 0.605008 0.108249
H32   H     H_    0.056974 0.874787 0.736228 0.107273
H33   H     H_    0.992188 0.662076 0.359652 0.098310
H34   H     H_    0.240261 0.794240 0.703898 0.117291
H35   H     H_    0.478465 0.350268 0.992943 0.126632
H36   H     H_    0.564584 0.481517 0.850818 0.122603
H37   H     H_    0.780827 0.964893 0.051504 0.126037
H38   H     H_    0.866573 0.035574 0.226349 0.132968
H39   H     H_    0.630218 0.359615 0.018523 0.086716
H40   H     H_    0.148558 0.859268 0.180333 0.092975
H41   H     H_    0.809266 0.605575 0.378392 0.107798
H42   H     H_    0.837796 0.731682 0.923870 0.097208
H43   H     H_    0.396353 0.555811 0.901221 0.084731
N1    N     N_R   0.037320 0.720000 0.995830 -0.044839
N2    N     N_R   0.946240 0.290870 0.848020 -0.039422
N3    N     N_R   0.146160 0.501170 0.788610 -0.040064
N4    N     N_R   0.025750 0.332680 0.063570 -0.036862
N5    N     N_R   0.962680 0.280000 0.004170 -0.042540
N6    N     N_R   0.209230 0.553860 0.848010 -0.038314
N7    N     N_R   0.175100 0.482030 0.063570 -0.039146
N8    N     N_R   0.996810 0.351820 0.788610 -0.038746
N9    N     N_R   0.790770 0.446140 0.151990 -0.040672
N10   N     N_R   0.824900 0.517970 0.936430 -0.039575
N11   N     N_R   0.003190 0.648180 0.211390 -0.036802
N12   N     N_R   0.774330 0.457010 0.995830 -0.043660
N13   N     N_R   0.053760 0.709130 0.151980 -0.040061
N14   N     N_R   0.853840 0.498830 0.211390 -0.041312
N15   N     N_R   0.974250 0.667320 0.936430 -0.038733
N16   N     N_R   0.225670 0.542990 0.004170 -0.045028
Ni1   Ni    Ni4+2 0.130310 0.630310 0.000000 0.208783
Ni2   Ni    Ni4+2 0.869690 0.369690 0.000000 0.212569
Ni3   Ni    Ni4+2 0.985660 0.509480 0.863750 0.212690
Ni4   Ni    Ni4+2 0.014340 0.490520 0.136250 0.212977
N17   N     N_3   0.268993 0.487602 0.384528 -0.223442
H44   H     H_    0.285703 0.500276 0.316837 0.089457
H45   H     H_    0.211223 0.424161 0.386665 0.091382

loop_
_geom_bond_atom_site_label_1
_geom_bond_atom_site_label_2
_ccdc_geom_bond_type
C34   N11   A    
C53   H31   S    
C41   C42   A    
C3    C23   A    
C19   C20   A    
C2    C12   A    
N17   H44   S    
N16   Ni1   S    
C62   H41   S    
C20   C30   S    
C53   C54   A    
C26   C27   A    
N8    Ni3   S    
C18   C24   A    
C51   N17   S    
C28   C29   A    
C9    H5    S    
N14   Ni4   S    
N10   N12   A    
C38   C39   A    
C11   C14   A    
C11   H7    S    
C24   H9    S    
C44   C50   A    
C34   H33   S    
C18   C19   A    
C11   N7    A    
C45   H39   S    
C6    C15   A    
C46   C47   A    
N13   Ni1   S    
C31   C32   A    
C1    H1    S    
C52   H30   S    
C51   C57   A    
N10   Ni3   S    
C54   H32   S    
C4    C29   S    
C44   H28   S    
C45   N12   A    
C9    N5    A    
C41   H26   S    
C18   H10   S    
C23   H23   S    
C21   C22   A    
C4    C56   A    
C59   H36   S    
C56   N13   A    
N1    Ni1   S    
C44   C46   A    
C14   C58   S    
C4    C34   A    
C48   H29   S    
C51   C52   A    
C56   H40   S    
N9    N14   A    
C8    N4    A    
C16   C46   S    
C39   C40   A    
C15   C26   S    
C58   C59   D    
C3    C45   A    
C31   C37   A    
C38   H24   S    
C60   C61   D    
C35   C36   A    
N15   Ni3   S    
C29   C30   A    
C2    C49   S    
C47   C57   S    
C47   C48   A    
N5    Ni2   S    
C63   H42   S    
C33   H19   S    
N3    N6    A    
C22   H14   S    
C5    C14   A    
C13   N8    A    
C10   N6    A    
N3    Ni3   S    
N7    N16   A    
N12   Ni2   S    
N2    Ni2   S    
C48   C49   A    
C8    H4    S    
N9    Ni2   S    
C55   C57   A    
C12   H12   S    
N4    Ni4   S    
C6    N2    A    
C22   C24   A    
N11   Ni4   S    
C60   H37   S    
C1    C64   A    
C10   H6    S    
C63   N15   A    
C52   C53   A    
C5    H43   S    
C9    C17   A    
C25   C30   A    
C54   C55   A    
C40   C41   A    
N4    N5    A    
C25   H15   S    
C43   H22   S    
C7    C16   A    
C58   H35   S    
N1    N15   A    
N17   H45   S    
C23   N10   A    
C35   H20   S    
C13   H8    S    
C36   H21   S    
C32   H18   S    
C5    N16   A    
C8    C17   A    
C31   H17   S    
C7    N3    A    
C60   C64   S    
C32   C33   A    
C13   C15   A    
C61   H38   S    
C25   C26   A    
C38   C43   A    
C10   C16   A    
N7    Ni4   S    
N6    Ni1   S    
C27   C37   S    
C40   C50   S    
C55   H34   S    
C19   H11   S    
C33   C35   A    
C28   H16   S    
N11   N13   A    
N2    N8    A    
C1    N1    A    
C7    H3    S    
C63   C64   A    
C2    C62   A    
C6    H2    S    
C20   C21   A    
C36   C37   A    
C49   C50   A    
C42   C43   A    
C21   H13   S    
C27   C28   A    
C39   H25   S    
C62   N14   A    
C42   H27   S    
C12   N9    A    
C3    C59   S    
