data_mof_unit_37840.cif
_audit_creation_date              2012-12-10T17:17:50-0500
_audit_creation_method            fapswitch 2.2
_symmetry_space_group_name_H-M    P1
_symmetry_Int_Tables_number       1
_space_group_crystal_system       triclinic
_cell_length_a                    14.953602
_cell_length_b                    15.662206
_cell_length_c                    9.614171
_cell_angle_alpha                 91.540403
_cell_angle_beta                  90.586486
_cell_angle_gamma                 89.722807
_cell_volume                      2250.74523587

loop_
_atom_site_label
_atom_site_type_symbol
_atom_type_description
_atom_site_fract_x
_atom_site_fract_y
_atom_site_fract_z
_atom_type_partial_charge
C1    C     C_R   0.383585 0.879134 0.497995 0.907723
C2    C     C_R   0.380825 0.118057 0.500650 0.886618
C3    C     C_R   0.883593 0.379126 0.497994 0.907679
C4    C     C_R   0.880826 0.618058 0.500649 0.886620
C5    C     C_R   0.230211 0.171175 0.453008 0.285150
C6    C     C_R   0.252005 0.808657 0.388015 0.306267
C7    C     C_R   0.730214 0.671177 0.453005 0.285183
C8    C     C_R   0.752054 0.308605 0.387971 0.306367
C9    C     C_R   0.665972 0.737057 0.457297 0.293735
C10   C     C_R   0.684633 0.246278 0.390228 0.285105
C11   C     C_R   0.165972 0.237057 0.457301 0.293768
C12   C     C_R   0.184599 0.746309 0.390252 0.285191
C13   C     C_R   0.692191 0.820465 0.496110 -0.174173
C14   C     C_R   0.673489 0.198350 0.511052 -0.201112
C15   C     C_R   0.192189 0.320465 0.496112 -0.174170
C16   C     C_R   0.173488 0.698351 0.511056 -0.201121
C17   C     C_R   0.663950 0.993514 0.145221 -0.111449
C18   C     C_R   0.163949 0.493503 0.145220 -0.111391
C19   C     C_R   0.744217 0.987062 0.074613 -0.230892
C20   C     C_R   0.244215 0.487036 0.074612 -0.230871
C21   C     C_R   0.744137 0.986878 0.931388 -0.209209
C22   C     C_R   0.244136 0.486848 0.931387 -0.209234
C23   C     C_R   0.663855 0.993997 0.858851 -0.083061
C24   C     C_R   0.163854 0.493981 0.858851 -0.083004
C25   C     C_R   0.580534 0.996744 0.926475 0.224408
C26   C     C_R   0.080534 0.496736 0.926475 0.224414
C27   C     C_R   0.580527 0.996655 0.075534 0.221267
C28   C     C_R   0.080527 0.496648 0.075534 0.221262
C29   C     C_R   0.423104 0.002717 0.072760 -0.021234
C30   C     C_R   0.923104 0.502722 0.072760 -0.021188
C31   C     C_R   0.613723 0.123590 0.503004 0.871015
C32   C     C_R   0.621912 0.884577 0.499317 0.902334
C33   C     C_R   0.113724 0.623589 0.503004 0.871027
C34   C     C_R   0.121911 0.384577 0.499318 0.902327
C35   C     C_R   0.423146 0.002730 0.924911 -0.044901
C36   C     C_R   0.923146 0.502736 0.924911 -0.044917
C37   C     C_R   0.432166 0.287255 0.590224 -0.109163
C38   C     C_R   0.381947 0.745292 0.704520 -0.101310
C39   C     C_R   0.932167 0.787253 0.590260 -0.109155
C40   C     C_R   0.881916 0.245317 0.704590 -0.101319
C41   C     C_R   0.459206 0.368739 0.631682 -0.218137
C42   C     C_R   0.366412 0.708343 0.831892 -0.241393
C43   C     C_R   0.959203 0.868735 0.631730 -0.218117
C44   C     C_R   0.866356 0.208389 0.831973 -0.241365
C45   C     C_R   0.900164 0.936715 0.621522 -0.125119
C46   C     C_R   0.779688 0.186788 0.867240 -0.121638
C47   C     C_R   0.400168 0.436717 0.621494 -0.125115
C48   C     C_R   0.279752 0.686737 0.867189 -0.121672
C49   C     C_R   0.813669 0.924109 0.569199 0.379329
C50   C     C_R   0.710055 0.192641 0.769697 0.461072
C51   C     C_R   0.313670 0.424110 0.569190 0.379331
C52   C     C_R   0.210101 0.692603 0.769683 0.461095
C53   C     C_R   0.782060 0.839663 0.536100 -0.082091
C54   C     C_R   0.729470 0.215061 0.629934 -0.070385
C55   C     C_R   0.282059 0.339663 0.536095 -0.082091
C56   C     C_R   0.229488 0.715045 0.629921 -0.070371
C57   C     C_R   0.343712 0.271075 0.544271 -0.016373
C58   C     C_R   0.311144 0.756175 0.607914 -0.023137
C59   C     C_R   0.843713 0.771075 0.544281 -0.016380
C60   C     C_R   0.811133 0.256185 0.607944 -0.023126
C61   C     C_R   0.316939 0.187961 0.501960 -0.151030
C62   C     C_R   0.317795 0.810463 0.493959 -0.169089
C63   C     C_R   0.816941 0.687963 0.501959 -0.151011
C64   C     C_R   0.817813 0.310445 0.493957 -0.169124
Cu1   Cu    Cu3+1 0.499990 0.000000 0.640660 0.962062
Cu2   Cu    Cu3+1 0.999990 0.500000 0.640660 0.962042
Cu3   Cu    Cu3+1 0.500010 0.000000 0.359340 1.014483
Cu4   Cu    Cu3+1 0.000010 0.500000 0.359340 1.014494
H1    H     H_    0.806856 0.984509 0.876262 0.171635
H2    H     H_    0.306854 0.484471 0.876260 0.171636
H3    H     H_    0.670621 0.999931 0.750482 0.241379
H4    H     H_    0.170621 0.499924 0.750484 0.241381
H5    H     H_    0.360102 0.004938 0.868912 0.145602
H6    H     H_    0.860102 0.504949 0.868912 0.145609
H7    H     H_    0.481415 0.237086 0.593541 0.120094
H8    H     H_    0.449197 0.766060 0.682805 0.170788
H9    H     H_    0.981424 0.737084 0.593580 0.120098
H10   H     H_    0.949172 0.266076 0.682895 0.170782
H11   H     H_    0.527104 0.379561 0.667958 0.151823
H12   H     H_    0.420339 0.702299 0.907000 0.164124
H13   H     H_    0.027102 0.879555 0.668023 0.151811
H14   H     H_    0.920268 0.202355 0.907110 0.164134
H15   H     H_    0.922956 0.000644 0.648574 0.156992
H16   H     H_    0.765822 0.168482 0.972631 0.166902
H17   H     H_    0.422963 0.500646 0.648546 0.157000
H18   H     H_    0.265906 0.668416 0.972579 0.166954
H19   H     H_    0.360037 0.004905 0.126901 0.175329
H20   H     H_    0.860037 0.504915 0.126901 0.175314
H21   H     H_    0.670874 0.996679 0.254087 0.179476
H22   H     H_    0.170875 0.496678 0.254086 0.179463
H23   H     H_    0.806915 0.984078 0.131711 0.162236
H24   H     H_    0.306913 0.484046 0.131709 0.162236
N1    N     N_R   0.501200 0.000000 0.147910 -0.206683
N2    N     N_R   0.001200 0.500000 0.147910 -0.206687
N3    N     N_R   0.501270 1.000000 0.852040 -0.201013
N4    N     N_R   0.001270 0.500000 0.852040 -0.201024
O1    O     O_R   0.409820 0.909830 0.618810 -0.609124
O2    O     O_R   0.409820 0.090170 0.618810 -0.598897
O3    O     O_R   0.909820 0.409830 0.618810 -0.609119
O4    O     O_R   0.909820 0.590170 0.618810 -0.598907
O5    O     O_R   0.409840 0.909830 0.381240 -0.511390
O6    O     O_R   0.409840 0.090170 0.381240 -0.552659
O7    O     O_R   0.909840 0.409830 0.381240 -0.511351
O8    O     O_R   0.909840 0.590170 0.381240 -0.552667
O9    O     O_R   0.590170 0.090170 0.618760 -0.585671
O10   O     O_R   0.590170 0.909830 0.618760 -0.608699
O11   O     O_R   0.090170 0.590170 0.618760 -0.585691
O12   O     O_R   0.090170 0.409830 0.618760 -0.608702
O13   O     O_R   0.590190 0.090180 0.381190 -0.557923
O14   O     O_R   0.590190 0.909820 0.381190 -0.597542
O15   O     O_R   0.090190 0.590180 0.381190 -0.557901
O16   O     O_R   0.090190 0.409820 0.381190 -0.597549
O17   O     O_3   0.210436 0.089732 0.403012 -0.735586
H25   H     H_    0.161488 0.093323 0.333200 0.335350
O18   O     O_3   0.254093 0.868890 0.285496 -0.716341
H26   H     H_    0.192655 0.877993 0.249182 0.335303
O19   O     O_3   0.710439 0.589729 0.403033 -0.735661
H27   H     H_    0.661459 0.593299 0.333272 0.335334
O20   O     O_3   0.754189 0.368775 0.285376 -0.716239
H28   H     H_    0.692715 0.377921 0.249081 0.335271
O21   O     O_3   0.764969 0.996359 0.544128 -0.785255
H29   H     H_    0.746279 0.991512 0.445678 0.294329
O22   O     O_3   0.624523 0.189641 0.820968 -0.723504
H30   H     H_    0.585804 0.224596 0.760716 0.316410
O23   O     O_3   0.264968 0.496358 0.544131 -0.785253
H31   H     H_    0.246271 0.491511 0.445683 0.294329
O24   O     O_3   0.124580 0.689595 0.820993 -0.723513
H32   H     H_    0.085844 0.724556 0.760764 0.316401
O25   O     O_3   0.576589 0.721910 0.427635 -0.751411
H33   H     H_    0.562265 0.662383 0.451221 0.327036
O26   O     O_3   0.627366 0.233243 0.277917 -0.707273
H34   H     H_    0.659290 0.247038 0.191553 0.338295
O27   O     O_3   0.076592 0.221911 0.427639 -0.751386
H35   H     H_    0.062259 0.162378 0.451225 0.327039
O28   O     O_3   0.127314 0.733277 0.277957 -0.707255
H36   H     H_    0.159159 0.747221 0.191578 0.338254

loop_
_geom_bond_atom_site_label_1
_geom_bond_atom_site_label_2
_ccdc_geom_bond_type
C58   C62   A    
Cu2   Cu4   S    
C18   C28   A    
C42   H12   S    
C40   C60   A    
C34   O16   A    
C7    O19   S    
C13   C32   S    
C33   O11   A    
Cu4   O7    S    
C14   C31   S    
C1    C62   S    
C53   C59   A    
O28   H36   S    
C54   C60   A    
C3    C64   S    
C20   H24   S    
C4    C63   S    
Cu3   O5    S    
C50   C54   A    
C32   O14   A    
C47   H17   S    
C22   C24   A    
C19   C21   A    
C24   C26   A    
Cu1   O2    S    
C38   C42   A    
C48   C52   A    
C44   H14   S    
C11   O27   S    
C6    C12   A    
C2    O6    A    
O18   H26   S    
C28   N2    A    
Cu4   O16   S    
Cu2   O4    S    
C9    C13   A    
C10   O26   S    
C38   C58   A    
C11   C15   A    
Cu3   O13   S    
C12   C16   A    
Cu1   Cu3   S    
C12   O28   S    
C33   O15   A    
Cu2   O11   S    
C15   C34   S    
C18   C20   A    
C2    C61   S    
C37   H7    S    
C49   O21   S    
C32   O10   A    
C38   H8    S    
C31   O9    A    
C45   H15   S    
Cu1   O9    S    
C41   C47   A    
C52   O24   S    
C44   C46   A    
C13   C53   A    
C21   C23   A    
C26   N4    A    
Cu1   N3    S    
C18   H22   S    
C23   H3    S    
O22   H30   S    
C17   H21   S    
C10   C14   A    
C1    O1    A    
C39   C43   A    
C51   O23   S    
Cu4   N2    S    
C21   H1    S    
Cu4   O15   S    
C17   C27   A    
Cu2   O3    S    
C16   C56   A    
C3    O3    A    
C16   C33   S    
C36   N4    A    
Cu3   O14   S    
C45   C49   A    
C39   C59   A    
C31   O13   A    
C5    C61   A    
C42   C48   A    
C57   C61   A    
C43   C45   A    
C7    C63   A    
O21   H29   S    
C36   H6    S    
C8    C64   A    
C46   H16   S    
C40   H10   S    
C14   C54   A    
C20   C22   A    
C25   N3    A    
C9    O25   S    
C55   C57   A    
O27   H35   S    
C43   H13   S    
C48   H18   S    
C27   N1    A    
C30   H20   S    
O24   H32   S    
C1    O5    A    
Cu1   O10   S    
C24   H4    S    
Cu2   N4    S    
O17   H25   S    
C3    O7    A    
C39   H9    S    
C46   C50   A    
C35   H5    S    
C5    O17   S    
C59   C63   A    
C50   O22   S    
Cu4   O8    S    
Cu2   O12   S    
C41   H11   S    
C47   C51   A    
O20   H28   S    
C5    C11   A    
C35   N3    A    
C25   C27   A    
C29   C35   A    
C26   C28   A    
C30   C36   A    
C60   C64   A    
C34   O12   A    
C6    C62   A    
C4    O4    A    
O25   H33   S    
Cu1   O1    S    
C30   N2    A    
O19   H27   S    
C29   N1    A    
O23   H31   S    
C52   C56   A    
C49   C53   A    
C4    O8    A    
C17   C19   A    
C56   C58   A    
C51   C55   A    
C23   C25   A    
C37   C41   A    
C6    O18   S    
C29   H19   S    
C19   H23   S    
C7    C9    A    
C40   C44   A    
C2    O2    A    
C8    C10   A    
Cu3   N1    S    
C8    O20   S    
C22   H2    S    
C37   C57   A    
O26   H34   S    
Cu3   O6    S    
C15   C55   A    
