data_mof_unit_35505.cif
_audit_creation_date              2012-12-10T17:53:09-0500
_audit_creation_method            fapswitch 2.2
_symmetry_space_group_name_H-M    P1
_symmetry_Int_Tables_number       1
_space_group_crystal_system       triclinic
_cell_length_a                    14.674336
_cell_length_b                    14.754491
_cell_length_c                    27.627388
_cell_angle_alpha                 75.702261
_cell_angle_beta                  102.632875
_cell_angle_gamma                 115.662653
_cell_volume                      5181.69337698

loop_
_atom_site_label
_atom_site_type_symbol
_atom_type_description
_atom_site_fract_x
_atom_site_fract_y
_atom_site_fract_z
_atom_type_partial_charge
C1    C     C_R   0.880060 0.311905 0.507794 0.949620
C2    C     C_R   0.120091 0.687443 0.493596 0.952182
C3    C     C_R   0.085301 0.557883 0.900093 -0.139412
C4    C     C_R   0.058779 0.537602 0.103006 -0.139732
C5    C     C_R   0.091073 0.476809 0.884477 -0.119215
C6    C     C_R   0.083671 0.626512 0.122267 -0.116872
C7    C     C_R   0.105742 0.397307 0.920975 0.567602
C8    C     C_R   0.127420 0.722592 0.092048 0.564150
C9    C     C_R   0.077006 0.640998 0.864062 -0.072468
C10   C     C_R   0.020260 0.441215 0.133848 -0.077606
C11   C     C_R   0.017022 0.524841 0.644272 -0.067992
C12   C     C_R   0.002914 0.501015 0.354408 -0.107036
C13   C     C_R   0.055721 0.455717 0.035210 -0.028401
C14   C     C_R   0.087997 0.640385 0.967654 -0.029017
C15   C     C_R   0.099765 0.640254 0.020191 -0.026667
C16   C     C_R   0.081729 0.466198 0.986910 -0.026921
C17   C     C_R   0.071933 0.544692 0.052820 -0.022286
C18   C     C_R   0.085954 0.555172 0.951667 -0.022258
C19   C     C_R   0.008295 0.359646 0.065216 0.581565
C20   C     C_R   0.071613 0.718935 0.930502 0.581309
C21   C     C_R   0.992853 0.352919 0.114113 -0.213325
C22   C     C_R   0.068484 0.720015 0.879651 -0.216067
C23   C     C_R   0.003083 0.505456 0.592303 0.822595
C24   C     C_R   0.999768 0.499056 0.407565 0.815652
C25   C     C_R   0.103738 0.392418 0.972254 -0.088750
C26   C     C_R   0.138329 0.730538 0.041604 -0.088187
C27   C     C_R   0.813721 0.203005 0.509030 -0.403801
C28   C     C_R   0.188392 0.789931 0.503472 -0.353062
C29   C     C_R   0.778163 0.040636 0.487280 0.593179
C30   C     C_R   0.240237 0.911254 0.559450 0.610988
C31   C     C_R   0.844649 0.140628 0.491541 0.389506
C32   C     C_R   0.163977 0.833086 0.535915 0.397597
C33   C     C_R   0.717365 0.162807 0.524950 0.511462
C34   C     C_R   0.288310 0.829132 0.492389 0.504024
C35   C     C_R   0.648308 0.061003 0.521061 -0.166126
C36   C     C_R   0.368407 0.901215 0.519473 -0.158095
C37   C     C_R   0.678482 0.001501 0.499636 -0.279362
C38   C     C_R   0.342898 0.944279 0.552528 -0.304863
C39   C     C_R   0.547734 0.018696 0.534468 0.017318
C40   C     C_R   0.472994 0.930929 0.515346 0.025427
C41   C     C_R   0.506401 0.871616 0.496468 -0.183931
C42   C     C_R   0.520791 0.056401 0.568901 -0.129503
C43   C     C_R   0.607813 0.904777 0.490115 0.653761
C44   C     C_R   0.420827 0.016956 0.579263 0.730424
C45   C     C_R   0.083496 0.478611 0.832574 0.593913
C46   C     C_R   0.067953 0.616534 0.172197 0.584031
C47   C     C_R   0.709458 0.658271 0.406868 -0.106929
C48   C     C_R   0.283404 0.325548 0.581400 -0.102650
C49   C     C_R   0.798184 0.640816 0.428315 0.129678
C50   C     C_R   0.205409 0.361296 0.572070 0.131738
C51   C     C_R   0.707017 0.501161 0.487690 0.144727
C52   C     C_R   0.281156 0.484999 0.503058 0.109116
C53   C     C_R   0.615157 0.517138 0.468643 -0.061384
C54   C     C_R   0.358838 0.448098 0.508508 -0.055775
C55   C     C_R   0.617734 0.597765 0.427807 -0.111467
C56   C     C_R   0.356737 0.364767 0.547779 -0.124061
C57   C     C_R   0.522117 0.458593 0.490398 -0.223712
C58   C     C_R   0.440461 0.492474 0.477795 -0.207822
C59   C     C_R   0.442757 0.566308 0.434027 0.558893
C60   C     C_R   0.505942 0.365187 0.523043 0.540025
C61   C     C_R   0.528649 0.616596 0.409317 0.583235
C62   C     C_R   0.426483 0.320477 0.551766 0.527717
C63   C     C_R   0.072089 0.640530 0.812873 0.571135
C64   C     C_R   0.007889 0.435214 0.183561 0.570995
C65   C     C_R   0.956863 0.532507 0.718567 -0.020969
C66   C     C_R   0.923060 0.475894 0.268607 -0.010934
C67   C     C_R   0.937906 0.521271 0.667352 -0.077886
C68   C     C_R   0.913554 0.467579 0.319658 -0.087889
C69   C     C_R   0.115504 0.550534 0.671186 -0.270789
C70   C     C_R   0.098912 0.538753 0.338538 -0.230594
C71   C     C_R   0.135641 0.566173 0.720897 0.026172
C72   C     C_R   0.108983 0.544674 0.288777 0.015414
C73   C     C_R   0.055471 0.553903 0.745285 0.253778
C74   C     C_R   0.021021 0.514309 0.253364 0.248935
Cu1   Cu    Cu3+1 0.081740 0.475690 0.513040 0.995123
Cu2   Cu    Cu3+1 0.918260 0.524310 0.486960 1.007084
H1    H     H_    0.178525 0.561095 0.652953 0.159438
H2    H     H_    0.167107 0.563959 0.365291 0.222997
H3    H     H_    0.456529 0.795799 0.489300 0.228721
H4    H     H_    0.577455 0.110846 0.591379 0.232626
H5    H     H_    0.279411 0.550226 0.475777 0.219214
H6    H     H_    0.711273 0.444661 0.520222 0.224215
H7    H     H_    0.957355 0.277884 0.136136 0.207719
H8    H     H_    0.055983 0.781631 0.852375 0.207281
N1    N     N_R   0.072786 0.558936 0.798111 -0.465100
N2    N     N_R   0.031502 0.522093 0.201680 -0.466717
N3    N     N_R   0.795430 0.560780 0.467350 -0.220730
N4    N     N_R   0.204570 0.439220 0.532650 -0.219504
O1    O     O_R   0.977900 0.338120 0.517190 -0.546860
O2    O     O_R   0.022100 0.661880 0.482810 -0.549437
O3    O     O_R   0.839850 0.379180 0.495160 -0.536150
O4    O     O_R   0.160150 0.620820 0.504840 -0.583801
O5    O     O_R   0.069030 0.479490 0.580750 -0.598445
O6    O     O_R   0.930970 0.520510 0.419250 -0.590167
O7    O     O_R   0.930970 0.520550 0.558720 -0.568888
O8    O     O_R   0.069030 0.479450 0.441280 -0.559527
O9    O     O_2   0.083990 0.399715 0.816396 -0.492686
O10   O     O_2   0.088218 0.700082 0.191263 -0.487714
O11   O     O_2   0.973841 0.343421 0.213864 -0.558874
O12   O     O_2   0.065416 0.720287 0.778000 -0.566154
F1    F     F_    0.304514 0.796435 0.454452 -0.659520
F2    F     F_    0.689811 0.226927 0.540074 -0.614810
F3    F     F_    0.067672 0.794408 0.547863 -0.643396
F4    F     F_    0.937145 0.178534 0.475183 -0.624223
F5    F     F_    0.810583 0.984174 0.468778 -0.612467
F6    F     F_    0.213653 0.950752 0.590897 -0.598578
F7    F     F_    0.522924 0.685661 0.367286 -0.640496
F8    F     F_    0.418142 0.231654 0.583103 -0.591106
C75   C     C_R   0.126098 0.313034 0.606485 0.159610
C76   C     C_R   0.143785 0.348009 0.651894 -0.148209
C77   C     C_R   0.073478 0.297855 0.686702 -0.130198
C78   C     C_R   0.987054 0.210168 0.677246 -0.099325
C79   C     C_R   0.972274 0.171038 0.633658 -0.163973
C80   C     C_R   0.042781 0.220927 0.599022 -0.144955
H9    H     H_    0.212106 0.414108 0.660003 0.104943
H10   H     H_    0.086126 0.326488 0.721120 0.172172
H11   H     H_    0.932643 0.171455 0.704152 0.143285
H12   H     H_    0.906867 0.101486 0.626953 0.141136
H13   H     H_    0.032753 0.187806 0.566400 0.192462
C81   C     C_R   0.895243 0.717922 0.410362 0.131078
C82   C     C_R   0.947502 0.807281 0.431605 -0.082020
C83   C     C_R   0.034751 0.885008 0.412602 -0.117648
C84   C     C_R   0.069208 0.875199 0.371632 -0.102021
C85   C     C_R   0.015114 0.788750 0.348887 -0.139301
C86   C     C_R   0.927335 0.711408 0.367524 -0.136086
H14   H     H_    0.920907 0.816114 0.463073 0.188536
H15   H     H_    0.075688 0.952730 0.429695 0.166143
H16   H     H_    0.136997 0.935199 0.357086 0.151287
H17   H     H_    0.040453 0.782180 0.316429 0.155419
H18   H     H_    0.884119 0.647152 0.348325 0.135477
C87   C     C_R   0.715934 0.743142 0.363603 0.156550
C88   C     C_R   0.738879 0.841085 0.372063 -0.023574
C89   C     C_R   0.745665 0.921038 0.331457 -0.091933
C90   C     C_R   0.729800 0.903593 0.282208 -0.118689
C91   C     C_R   0.707319 0.806220 0.273551 -0.144807
C92   C     C_R   0.700342 0.726085 0.314105 -0.099446
H19   H     H_    0.751859 0.855114 0.410056 0.228581
H20   H     H_    0.763359 0.996484 0.338173 0.158365
H21   H     H_    0.735068 0.965526 0.250775 0.140655
H22   H     H_    0.695163 0.792802 0.235416 0.127610
H23   H     H_    0.682802 0.651048 0.307008 0.105327
C93   C     C_R   0.291662 0.253080 0.628605 0.147218
C94   C     C_R   0.361990 0.289840 0.669986 -0.141768
C95   C     C_R   0.370130 0.222483 0.714591 -0.121091
C96   C     C_R   0.308147 0.118245 0.718117 -0.100082
C97   C     C_R   0.238132 0.081174 0.676990 -0.003133
C98   C     C_R   0.230016 0.148240 0.632240 0.027378
H24   H     H_    0.410215 0.370507 0.667626 0.110134
H25   H     H_    0.424423 0.251103 0.746428 0.128167
H26   H     H_    0.314457 0.066181 0.752689 0.133002
H27   H     H_    0.190365 0.000426 0.679759 0.176444
H28   H     H_    0.176217 0.118717 0.600440 0.160311
F9    F     F_    0.359747 0.585493 0.411259 -0.665588
F10   F     F_    0.561926 0.311417 0.525103 -0.606193
C99   C     C_R   0.241378 0.596356 0.746860 0.115393
C100  C     C_R   0.293078 0.532234 0.754035 -0.106784
C101  C     C_R   0.392979 0.561121 0.778475 -0.126632
C102  C     C_R   0.441974 0.654160 0.795882 -0.109060
C103  C     C_R   0.391159 0.718500 0.788815 -0.136065
C104  C     C_R   0.291311 0.689929 0.764320 -0.133505
H29   H     H_    0.255793 0.459436 0.741420 0.125385
H30   H     H_    0.432325 0.511248 0.784028 0.124546
H31   H     H_    0.519304 0.676412 0.814808 0.130575
H32   H     H_    0.429253 0.790688 0.802176 0.138862
H33   H     H_    0.253341 0.741083 0.758577 0.169716
C105  C     C_R   0.212684 0.582830 0.274597 0.114904
C106  C     C_R   0.284512 0.681099 0.281523 -0.031534
C107  C     C_R   0.382526 0.717182 0.268310 0.005690
C108  C     C_R   0.409816 0.655198 0.248582 -0.077442
C109  C     C_R   0.339173 0.557015 0.242054 -0.164124
C110  C     C_R   0.241021 0.520728 0.255099 -0.136130
H34   H     H_    0.264297 0.729906 0.296765 0.145448
H35   H     H_    0.437484 0.793070 0.273536 0.152767
H36   H     H_    0.485756 0.683083 0.238505 0.127598
H37   H     H_    0.360589 0.508853 0.227050 0.133765
H38   H     H_    0.187657 0.443966 0.250529 0.160789
F11   F     F_    0.127347 0.327136 0.907191 -0.644135
F12   F     F_    0.165551 0.808909 0.112383 -0.648767
C111  C     C_R   0.811089 0.421053 0.336904 0.125991
C112  C     C_R   0.741702 0.467669 0.318535 -0.145593
C113  C     C_R   0.646860 0.425103 0.336139 -0.154054
C114  C     C_R   0.620056 0.335155 0.371636 -0.061442
C115  C     C_R   0.687662 0.287112 0.389275 -0.086893
C116  C     C_R   0.782933 0.329848 0.372127 -0.157499
H39   H     H_    0.761436 0.537289 0.290946 0.114871
H40   H     H_    0.593972 0.461674 0.322231 0.131760
H41   H     H_    0.546656 0.302351 0.385246 0.148695
H42   H     H_    0.666184 0.216744 0.416245 0.139445
H43   H     H_    0.834874 0.292139 0.386326 0.148003
C117  C     C_R   0.836918 0.511423 0.639050 0.105167
C118  C     C_R   0.749926 0.422293 0.650166 -0.096893
C119  C     C_R   0.652872 0.422133 0.633333 -0.085344
C120  C     C_R   0.642184 0.510361 0.604863 -0.167327
C121  C     C_R   0.728278 0.597775 0.591682 -0.158393
C122  C     C_R   0.825480 0.598612 0.608885 -0.106792
H44   H     H_    0.757509 0.355146 0.674202 0.133490
H45   H     H_    0.586065 0.354397 0.643406 0.180011
H46   H     H_    0.567134 0.510989 0.592876 0.127475
H47   H     H_    0.719750 0.665670 0.569232 0.176445
H48   H     H_    0.891819 0.668531 0.600817 0.196508
C123  C     C_R   0.831226 0.443096 0.230998 0.121087
C124  C     C_R   0.763890 0.339777 0.234584 -0.064136
C125  C     C_R   0.677482 0.309166 0.199049 -0.135829
C126  C     C_R   0.657845 0.381319 0.159738 -0.108616
C127  C     C_R   0.724599 0.484221 0.155913 -0.134904
C128  C     C_R   0.811023 0.515172 0.191409 -0.174616
H49   H     H_    0.778611 0.283139 0.264750 0.141513
H50   H     H_    0.625804 0.229492 0.201954 0.134669
H51   H     H_    0.590903 0.357500 0.132255 0.129261
H52   H     H_    0.709269 0.540042 0.125488 0.139108
H53   H     H_    0.861816 0.595195 0.188260 0.156129
C129  C     C_R   0.873426 0.520991 0.744880 0.111609
C130  C     C_R   0.835330 0.597216 0.734134 -0.058851
C131  C     C_R   0.755978 0.585417 0.758608 -0.137529
C132  C     C_R   0.714530 0.497810 0.794041 -0.115308
C133  C     C_R   0.752461 0.421903 0.805086 -0.127351
C134  C     C_R   0.831634 0.433294 0.780592 -0.171424
H54   H     H_    0.867184 0.665589 0.706907 0.148870
H55   H     H_    0.726646 0.644203 0.750130 0.131896
H56   H     H_    0.653057 0.488772 0.812941 0.125051
H57   H     H_    0.720326 0.354106 0.832536 0.139237
H58   H     H_    0.860000 0.373723 0.789179 0.152760
F13   F     F_    0.966504 0.272130 0.045934 -0.680078
F14   F     F_    0.046618 0.788502 0.942302 -0.678619
C135  C     C_R   0.141383 0.320584 0.009876 0.207270
C136  C     C_R   0.098953 0.215861 0.007305 0.051851
C137  C     C_R   0.134733 0.149161 0.042876 -0.162751
C138  C     C_R   0.213743 0.186275 0.080939 -0.099322
C139  C     C_R   0.256886 0.290183 0.083645 -0.138157
C140  C     C_R   0.221064 0.357163 0.048312 -0.183281
H59   H     H_    0.036875 0.185597 0.978398 0.165943
H60   H     H_    0.100973 0.068593 0.040990 0.139019
H61   H     H_    0.241459 0.134491 0.108357 0.152610
H62   H     H_    0.318180 0.318883 0.113123 0.131646
H63   H     H_    0.255623 0.437567 0.050804 0.124504
C141  C     C_R   0.205632 0.831456 0.015461 0.214035
C142  C     C_R   0.188410 0.919696 0.012069 0.044228
C143  C     C_R   0.252085 0.013971 0.987459 -0.150564
C144  C     C_R   0.333637 0.021230 0.966257 -0.098602
C145  C     C_R   0.351797 0.934268 0.969671 -0.130509
C146  C     C_R   0.288404 0.839835 0.994251 -0.183909
H64   H     H_    0.124623 0.915057 0.027641 0.152339
H65   H     H_    0.238009 0.081396 0.984628 0.147086
H66   H     H_    0.382764 0.094256 0.947177 0.136216
H67   H     H_    0.415132 0.940038 0.953314 0.136905
H68   H     H_    0.303908 0.773275 0.996824 0.125279
F15   F     F_    0.635044 0.842854 0.472699 -0.647587
F16   F     F_    0.401364 0.048025 0.616741 -0.571435

loop_
_geom_bond_atom_site_label_1
_geom_bond_atom_site_label_2
_ccdc_geom_bond_type
Cu2   O2    S    
C66   C68   A    
C125  C126  A    
C42   H4    S    
C117  C118  A    
C16   C25   A    
C70   H2    S    
C8    C26   A    
C123  C124  A    
C14   C18   A    
C69   H1    S    
C144  C145  A    
Cu1   Cu2   S    
C96   C97   A    
C59   F9    S    
C67   C117  S    
C91   C92   A    
C47   C49   A    
C130  C131  A    
C27   C33   A    
C12   C68   A    
C30   C38   A    
C101  C102  A    
C142  H64   S    
C100  C101  A    
C35   C37   A    
C122  H48   S    
C131  H55   S    
C24   O8    A    
Cu2   O7    S    
C78   H11   S    
C9    C22   A    
C49   C81   S    
C62   F8    S    
C109  C110  A    
C94   C95   A    
C66   C74   A    
C113  C114  A    
C139  H62   S    
C65   C73   A    
C141  C142  A    
C7    F11   S    
C3    C18   A    
C60   C62   A    
C108  C109  A    
C11   C23   S    
C83   H15   S    
C69   C71   A    
C49   N3    A    
C76   C77   A    
C78   C79   A    
C65   C129  S    
C83   C84   A    
Cu2   O6    S    
C133  H57   S    
C66   C123  S    
C86   H18   S    
C64   O11   S    
C77   C78   A    
C43   F15   S    
C88   C89   A    
C65   C67   A    
C126  H51   S    
C115  H42   S    
C108  H36   S    
C144  H66   S    
C119  C120  A    
C80   H13   S    
C50   N4    A    
C79   H12   S    
C48   C50   A    
C121  C122  A    
C46   O10   S    
C28   C34   A    
C89   H20   S    
C1    O3    A    
C9    C63   A    
C142  C143  A    
C63   N1    A    
C41   C43   A    
C103  C104  A    
C29   F5    S    
C105  C106  A    
C91   H22   S    
C42   C44   A    
C61   F7    S    
C128  H53   S    
C64   N2    A    
C138  C139  A    
C139  C140  A    
C52   C54   A    
Cu1   O8    S    
C39   C42   A    
C96   H26   S    
C109  H37   S    
C53   C55   A    
C10   C21   A    
C107  H35   S    
C54   C56   A    
C59   C61   A    
C34   F1    S    
C82   C83   A    
C124  C125  A    
C13   C19   A    
C23   O5    A    
C27   C31   A    
C33   F2    S    
C21   H7    S    
C84   C85   A    
C113  H40   S    
C19   F13   S    
C133  C134  A    
C4    C6    A    
C87   C92   A    
C51   N3    A    
C106  C107  A    
C5    C7    A    
C53   C57   A    
C131  C132  A    
C15   C26   A    
C6    C8    A    
C88   H19   S    
C127  C128  A    
C5    C45   A    
C143  H65   S    
C70   C72   A    
C50   C75   S    
C146  H68   S    
C47   C87   S    
C51   C53   A    
C22   H8    S    
C141  C146  A    
C37   C43   A    
C35   C39   A    
C115  C116  A    
C38   C44   A    
C63   O12   S    
C3    C9    A    
C24   O6    A    
C137  C138  A    
C14   C15   A    
C28   C32   A    
C103  H32   S    
C123  C128  A    
C71   C99   S    
C135  C136  A    
C20   F14   S    
C32   F3    S    
C48   C93   S    
C140  H63   S    
C16   C18   A    
C104  H33   S    
C74   N2    S    
C2    O4    A    
C114  C115  A    
C51   H6    S    
C73   N1    S    
C138  H61   S    
C90   C91   A    
C97   C98   A    
C105  C110  A    
C102  H31   S    
C4    C17   A    
C117  C122  A    
C72   C74   A    
C40   C41   A    
C20   C22   A    
C100  H29   S    
C120  C121  A    
C124  H49   S    
C89   C90   A    
C29   C37   A    
C56   C62   A    
C13   C16   A    
C136  H59   S    
C11   C67   A    
C4    C10   A    
C87   C88   A    
Cu1   O4    S    
C90   H21   S    
C36   C40   A    
C81   C82   A    
Cu1   O5    S    
C47   C55   A    
C79   C80   A    
C54   C58   A    
C14   C20   A    
C26   C141  S    
C134  H58   S    
C48   C56   A    
C12   C70   A    
C143  C144  A    
C107  C108  A    
C1    O1    A    
C6    C46   A    
C95   H25   S    
C19   C21   A    
C99   C104  A    
C81   C86   A    
C72   C105  S    
C93   C98   A    
C10   C64   A    
C118  H44   S    
C95   C96   A    
C3    C5    A    
C145  H67   S    
C41   H3    S    
Cu2   N3    S    
C130  H54   S    
C11   C69   A    
C15   C17   A    
C106  H34   S    
C121  H47   S    
C111  C112  A    
C110  H38   S    
C12   C24   S    
C68   C111  S    
C135  C140  A    
C7    C25   A    
C13   C17   A    
C45   N1    A    
C77   H10   S    
C31   F4    S    
C36   C38   A    
C98   H28   S    
C58   C59   A    
C82   H14   S    
C29   C31   A    
C45   O9    S    
C75   C76   A    
C119  H45   S    
C30   C32   A    
C84   H16   S    
C102  C103  A    
C127  H52   S    
C75   C80   A    
C55   C61   A    
C25   C135  S    
C145  C146  A    
C33   C35   A    
C92   H23   S    
C23   O7    A    
C85   H17   S    
C137  H60   S    
C125  H50   S    
C34   C36   A    
C114  H41   S    
C132  C133  A    
C52   H5    S    
C118  C119  A    
C52   N4    A    
C60   F10   S    
C94   H24   S    
C112  H39   S    
C44   F16   S    
Cu2   O3    S    
C97   H27   S    
C39   C40   A    
C111  C116  A    
C8    F12   S    
Cu1   N4    S    
C57   C60   A    
C126  C127  A    
C76   H9    S    
C2    O2    A    
C136  C137  A    
C129  C134  A    
Cu1   O1    S    
C71   C73   A    
C99   C100  A    
C1    C27   S    
C93   C94   A    
C2    C28   S    
C57   C58   A    
C132  H56   S    
C101  H30   S    
C116  H43   S    
C30   F6    S    
C112  C113  A    
C120  H46   S    
C129  C130  A    
C85   C86   A    
C46   N2    A    
