data_mof_unit_62413.cif
_audit_creation_date              2012-12-10T20:20:04-0500
_audit_creation_method            fapswitch 2.2
_symmetry_space_group_name_H-M    P1
_symmetry_Int_Tables_number       1
_space_group_crystal_system       triclinic
_cell_length_a                    47.726863
_cell_length_b                    35.518485
_cell_length_c                    31.852433
_cell_angle_alpha                 90.002996
_cell_angle_beta                  131.910307
_cell_angle_gamma                 89.998312
_cell_volume                      40183.2055167

loop_
_atom_site_label
_atom_site_type_symbol
_atom_type_description
_atom_site_fract_x
_atom_site_fract_y
_atom_site_fract_z
_atom_type_partial_charge
C1    C     C_R   0.073460 0.000035 0.573403 0.874464
C2    C     C_3   0.040513 0.997321 0.766224 -0.402317
C3    C     C_R   0.573479 0.000076 0.073500 0.877531
C4    C     C_R   0.926521 0.500076 0.926500 0.877736
C5    C     C_R   0.073479 0.500076 0.073500 0.877779
C6    C     C_R   0.500000 0.073607 0.000003 0.883034
C7    C     C_R   1.000000 0.573607 0.000001 0.883311
C8    C     C_R   0.500074 0.826274 0.961982 -0.164277
C9    C     C_R   0.499926 0.826274 0.038004 -0.164304
C10   C     C_R   0.000073 0.326274 0.961981 -0.164448
C11   C     C_R   0.999928 0.326274 0.038007 -0.164320
C12   C     C_R   0.500074 0.865452 0.961932 -0.198769
C13   C     C_3   0.459491 0.497247 0.233779 -0.402362
C14   C     C_R   0.499926 0.865453 0.038059 -0.198792
C15   C     C_R   0.000073 0.365452 0.961931 -0.198914
C16   C     C_R   0.999928 0.365453 0.038061 -0.198814
C17   C     C_R   0.500000 0.885329 0.999996 -0.041386
C18   C     C_R   0.000000 0.385329 0.999997 -0.041313
C19   C     C_R   0.500000 0.806817 0.999992 0.161506
C20   C     C_R   0.000001 0.306817 0.999993 0.161578
C21   C     C_1   0.500000 0.766787 0.999990 -0.071749
C22   C     C_1   0.000001 0.266787 0.999992 -0.071852
C23   C     C_3   0.023697 0.967096 0.298047 -0.392222
C24   C     C_3   0.540517 0.497394 0.766228 -0.402537
C25   C     C_3   0.976300 0.967104 0.701945 -0.392255
C26   C     C_3   0.523754 0.467137 0.298104 -0.392394
C27   C     C_3   0.476357 0.467064 0.702003 -0.392272
C28   C     C_1   0.000001 0.233138 0.999991 -0.073674
C29   C     C_1   0.500000 0.733138 0.999990 -0.073570
C30   C     C_R   0.965850 0.173656 0.965330 -0.174301
C31   C     C_R   0.034151 0.173656 0.034657 -0.174189
C32   C     C_R   0.465849 0.673656 0.965339 -0.174243
C33   C     C_R   0.534150 0.673656 0.034645 -0.174183
C34   C     C_R   0.965803 0.134482 0.965287 -0.205562
C35   C     C_1   0.000112 0.999658 0.163179 -0.104182
C36   C     C_R   0.034198 0.134482 0.034705 -0.205511
C37   C     C_R   0.465802 0.634482 0.965297 -0.205506
C38   C     C_R   0.534198 0.634482 0.034694 -0.205513
C39   C     C_R   0.000000 0.114603 0.999997 -0.035616
C40   C     C_R   0.500000 0.614603 0.999997 -0.035466
C41   C     C_R   0.000001 0.193110 0.999992 0.160245
C42   C     C_R   0.500000 0.693110 0.999991 0.160197
C43   C     C_R   0.500009 0.173697 0.038169 -0.126781
C44   C     C_R   0.499996 0.173738 0.961954 -0.127776
C45   C     C_R   0.999973 0.673717 0.038080 -0.126574
C46   C     C_1   0.999888 0.999660 0.836821 -0.104188
C47   C     C_R   0.000025 0.673717 0.961931 -0.126595
C48   C     C_R   0.500009 0.134563 0.038197 -0.192759
C49   C     C_R   0.499995 0.134600 0.961870 -0.192116
C50   C     C_R   0.999974 0.634582 0.038135 -0.191980
C51   C     C_R   0.000025 0.634581 0.961873 -0.192004
C52   C     C_R   0.500002 0.114753 0.000020 -0.046364
C53   C     C_R   1.000000 0.614753 0.000003 -0.046506
C54   C     C_R   0.500002 0.193099 0.000076 0.137470
C55   C     C_R   0.999999 0.693099 0.000006 0.138589
C56   C     C_1   0.499997 0.232998 0.000118 0.046649
C57   C     C_1   0.500111 0.499657 0.163179 -0.104649
C58   C     C_1   0.999999 0.732998 0.000008 0.046244
C59   C     C_3   0.023249 0.966600 0.249002 -0.426985
C60   C     C_3   0.976748 0.966607 0.750990 -0.427028
C61   C     C_3   0.523306 0.466640 0.249060 -0.427759
C62   C     C_3   0.476806 0.466568 0.751048 -0.426308
C63   C     C_1   0.999999 0.766582 0.000008 0.178805
C64   C     C_1   0.499992 0.266582 0.000194 0.185356
C65   C     C_R   0.965518 0.826303 0.965697 0.394333
C66   C     C_R   0.034480 0.826303 0.034315 0.394312
C67   C     C_R   0.465509 0.326304 0.965886 0.393912
C68   C     C_1   0.499888 0.499662 0.836820 -0.102961
C69   C     C_R   0.534469 0.326302 0.034728 0.445608
C70   C     C_R   0.965852 0.865525 0.965888 -0.286979
C71   C     C_R   0.034146 0.865525 0.034119 -0.286959
C72   C     C_R   0.465848 0.365528 0.966006 -0.285458
C73   C     C_R   0.534144 0.365522 0.034323 -0.258018
C74   C     C_R   1.000000 0.885259 0.000002 -0.162025
C75   C     C_R   0.499998 0.385260 0.000100 -0.184724
C76   C     C_R   0.999999 0.806700 0.000007 -0.147729
C77   C     C_R   0.499989 0.306700 0.000308 -0.168415
C78   C     C_1   0.000064 0.999554 0.125628 -0.172243
C79   C     C_1   0.000188 0.000458 0.337017 -0.107330
C80   C     C_1   0.999936 0.999555 0.874372 -0.172255
C81   C     C_1   0.500064 0.499554 0.125628 -0.172481
C82   C     C_1   0.499936 0.499556 0.874372 -0.170057
C83   C     C_3   0.000283 0.000723 0.291402 0.333621
C84   C     C_3   0.999717 0.000730 0.708598 0.333728
C85   C     C_3   0.500281 0.500723 0.291399 0.333945
C86   C     C_3   0.499715 0.500730 0.708596 0.333183
C87   C     C_3   0.018978 0.037406 0.244661 -0.120214
C88   C     C_3   0.981026 0.037411 0.755349 -0.120172
C89   C     C_3   0.518912 0.537438 0.244595 -0.120180
C90   C     C_1   0.999812 0.000465 0.662983 -0.107381
C91   C     C_3   0.480959 0.537380 0.755282 -0.120494
C92   C     C_3   0.000196 0.000463 0.209004 0.304410
C93   C     C_3   0.999804 0.000466 0.790996 0.304472
C94   C     C_3   0.500194 0.500462 0.209002 0.305017
C95   C     C_3   0.499802 0.500468 0.790994 0.303069
C96   C     C_R   0.003853 0.073406 0.209276 0.145129
C97   C     C_R   0.969126 0.089501 0.186278 -0.149548
C98   C     C_R   0.955694 0.121763 0.152628 -0.144305
C99   C     C_R   0.976572 0.138369 0.141341 -0.104530
C100  C     C_R   0.011037 0.122843 0.163891 -0.125645
C101  C     C_1   0.500186 0.500458 0.337015 -0.107475
C102  C     C_R   0.024674 0.090677 0.197738 -0.166891
C103  C     C_R   0.996154 0.073410 0.790743 0.145126
C104  C     C_R   0.030882 0.089503 0.813745 -0.149572
C105  C     C_R   0.044317 0.121763 0.847404 -0.144286
C106  C     C_R   0.023440 0.138368 0.858696 -0.104592
C107  C     C_R   0.988974 0.122844 0.836142 -0.125805
C108  C     C_R   0.975334 0.090680 0.802285 -0.167059
C109  C     C_R   0.503725 0.573412 0.209147 0.145139
C110  C     C_R   0.468969 0.589446 0.186120 -0.149535
C111  C     C_R   0.455482 0.621685 0.152415 -0.144166
C112  C     C_R   0.926540 0.000035 0.426596 0.874401
C113  C     C_1   0.499810 0.500466 0.662981 -0.107048
C114  C     C_R   0.476333 0.638328 0.141101 -0.104506
C115  C     C_R   0.510825 0.622862 0.163679 -0.125662
C116  C     C_R   0.524517 0.590719 0.197582 -0.166887
C117  C     C_R   0.496025 0.573406 0.790613 0.144997
C118  C     C_R   0.530725 0.589560 0.813584 -0.149337
C119  C     C_R   0.544104 0.621843 0.847187 -0.143969
C120  C     C_R   0.523199 0.638412 0.858452 -0.104474
C121  C     C_R   0.488761 0.622827 0.835927 -0.125663
C122  C     C_R   0.475176 0.590640 0.802126 -0.167132
C123  C     C_R   0.193725 0.071360 0.688080 0.112506
C124  C     C_1   0.000106 0.000173 0.374466 -0.186620
C125  C     C_R   0.219665 0.078629 0.681687 -0.141053
C126  C     C_R   0.238302 0.113255 0.698369 -0.129925
C127  C     C_R   0.231028 0.140967 0.721151 -0.096113
C128  C     C_R   0.205030 0.134132 0.727162 -0.130839
C129  C     C_R   0.186355 0.099525 0.710596 -0.162270
C130  C     C_R   0.806272 0.071374 0.311557 0.112526
C131  C     C_R   0.780335 0.078779 0.317917 -0.140548
C132  C     C_R   0.761694 0.113410 0.301053 -0.130602
C133  C     C_R   0.768963 0.140993 0.278120 -0.098901
C134  C     C_R   0.794959 0.134024 0.272139 -0.131142
C135  C     C_1   0.999895 0.000179 0.625534 -0.186683
C136  C     C_R   0.813637 0.099411 0.288889 -0.161913
C137  C     C_R   0.693731 0.571396 0.688934 0.112496
C138  C     C_R   0.719669 0.578976 0.682628 -0.141100
C139  C     C_R   0.738314 0.613615 0.699741 -0.129836
C140  C     C_R   0.731049 0.641030 0.722871 -0.096164
C141  C     C_R   0.705052 0.633886 0.728801 -0.130879
C142  C     C_R   0.686369 0.599265 0.711803 -0.162180
C143  C     C_R   0.306275 0.571361 0.311875 0.112487
C144  C     C_R   0.280335 0.578649 0.318264 -0.141021
C145  C     C_R   0.261698 0.613275 0.301561 -0.129936
C146  C     C_1   0.500104 0.500173 0.374465 -0.186704
C147  C     C_R   0.268973 0.640970 0.278765 -0.096102
C148  C     C_R   0.294971 0.634117 0.272757 -0.130750
C149  C     C_R   0.313645 0.599510 0.289344 -0.162246
C150  C     C_1   0.499893 0.500179 0.625533 -0.186411
C151  C     C_R   0.326222 0.998033 0.863936 -0.156778
C152  C     C_R   0.673778 0.998042 0.136064 -0.157055
C153  C     C_R   0.826222 0.498060 0.863938 -0.156645
C154  C     C_R   0.173778 0.498032 0.136063 -0.156791
C155  C     C_R   0.365387 0.998616 0.903321 -0.197079
C156  C     C_R   0.573460 0.500035 0.573405 0.874407
C157  C     C_R   0.634613 0.998626 0.096679 -0.197393
C158  C     C_R   0.865387 0.498643 0.903322 -0.197131
C159  C     C_R   0.134613 0.498616 0.096679 -0.197099
C160  C     C_R   0.385326 0.999676 0.885202 -0.041739
C161  C     C_R   0.614674 0.999675 0.114798 -0.041657
C162  C     C_R   0.885326 0.499673 0.885202 -0.041666
C163  C     C_R   0.114674 0.499676 0.114798 -0.041711
C164  C     C_R   0.365559 0.000167 0.827220 -0.194512
C165  C     C_R   0.634441 0.000152 0.172780 -0.195041
C166  C     C_R   0.865559 0.500132 0.827220 -0.194672
C167  C     C_R   0.426540 0.500035 0.426596 0.874415
C168  C     C_R   0.134441 0.500165 0.172780 -0.194549
C169  C     C_R   0.326413 0.999614 0.787964 -0.165961
C170  C     C_R   0.673586 0.999598 0.212036 -0.166408
C171  C     C_R   0.826414 0.499577 0.787964 -0.166296
C172  C     C_R   0.173586 0.499612 0.212036 -0.165979
C173  C     C_R   0.000025 0.000038 0.418865 0.916968
C174  C     C_R   0.999975 0.000040 0.581135 0.916950
C175  C     C_R   0.500024 0.500038 0.418865 0.916884
C176  C     C_R   0.499975 0.500040 0.581134 0.916952
C177  C     C_R   0.306899 0.998501 0.806440 0.161911
C178  C     C_3   0.959475 0.996363 0.185202 -0.390749
C179  C     C_R   0.693101 0.998497 0.193560 0.162032
C180  C     C_R   0.806899 0.498495 0.806441 0.161932
C181  C     C_R   0.193101 0.498499 0.193559 0.161922
C182  C     C_1   0.266933 0.998434 0.766202 -0.063548
C183  C     C_1   0.733067 0.998430 0.233798 -0.063767
C184  C     C_1   0.766933 0.498430 0.766204 -0.063655
C185  C     C_1   0.233067 0.498431 0.233798 -0.063560
C186  C     C_1   0.233322 0.998885 0.732037 -0.062957
C187  C     C_1   0.766678 0.998883 0.267959 -0.063055
C188  C     C_1   0.733322 0.498886 0.732047 -0.063001
C189  C     C_3   0.040524 0.996364 0.814797 -0.390754
C190  C     C_1   0.266678 0.498883 0.267962 -0.062963
C191  C     C_R   0.173630 0.966050 0.673173 -0.181811
C192  C     C_R   0.826371 0.966047 0.326979 -0.181847
C193  C     C_R   0.673628 0.466047 0.672819 -0.181948
C194  C     C_R   0.326370 0.466048 0.326847 -0.181808
C195  C     C_R   0.134543 0.965998 0.634794 -0.199198
C196  C     C_R   0.865458 0.965994 0.365358 -0.199245
C197  C     C_R   0.634541 0.465992 0.634438 -0.199218
C198  C     C_R   0.365457 0.465997 0.365226 -0.199184
C199  C     C_R   0.114682 0.000101 0.614115 -0.053660
C200  C     C_3   0.459481 0.496291 0.185208 -0.390735
C201  C     C_R   0.885318 0.000100 0.385881 -0.053596
C202  C     C_R   0.614682 0.500101 0.614125 -0.053652
C203  C     C_R   0.385318 0.500100 0.385884 -0.053664
C204  C     C_R   0.134433 0.034302 0.632177 -0.248695
C205  C     C_R   0.865565 0.034307 0.367656 -0.248868
C206  C     C_R   0.634436 0.534314 0.632568 -0.248703
C207  C     C_R   0.365566 0.534302 0.367801 -0.248657
C208  C     C_R   0.173791 0.034680 0.670398 0.031289
C209  C     C_R   0.826207 0.034687 0.329427 0.031068
C210  C     C_R   0.673794 0.534698 0.670809 0.031266
C211  C     C_3   0.540530 0.496437 0.814803 -0.389577
C212  C     C_R   0.326208 0.534679 0.329579 0.031282
C213  C     C_R   0.193245 0.000080 0.691045 0.107164
C214  C     C_R   0.806754 0.000082 0.308945 0.107206
C215  C     C_R   0.693246 0.500089 0.691070 0.107196
C216  C     C_R   0.306755 0.500079 0.308953 0.107163
C217  C     C_R   0.000000 0.073365 1.000000 0.865590
C218  C     C_R   0.500000 0.573365 1.000000 0.864908
C219  C     C_3   0.017668 0.037925 0.292251 -0.427664
C220  C     C_3   0.982336 0.037932 0.707759 -0.427811
C221  C     C_3   0.517600 0.537955 0.292184 -0.427696
C222  C     C_3   0.959487 0.997318 0.233776 -0.402345
C223  C     C_3   0.482268 0.537902 0.707690 -0.427446
C224  C     C_R   0.000033 0.999750 0.081170 0.917118
C225  C     C_R   0.999967 0.999750 0.918830 0.917117
C226  C     C_R   0.500033 0.499750 0.081170 0.915890
C227  C     C_R   0.499967 0.499750 0.918830 0.917821
C228  C     C_R   1.000000 0.926459 0.000000 0.927137
C229  C     C_R   0.500000 0.426459 0.000008 0.931268
C230  C     C_R   0.500000 0.926565 0.999999 0.874948
C231  C     C_R   0.000000 0.426565 0.999999 0.874857
C232  C     C_R   0.426521 0.000076 0.926500 0.877844
H1    H     H_    0.049387 0.035531 0.266618 0.121690
H2    H     H_    0.052684 0.969126 0.837717 0.174345
H3    H     H_    0.559114 0.518796 0.846151 0.172157
H4    H     H_    0.952317 0.077416 0.194296 0.120876
H5    H     H_    0.928997 0.133871 0.135194 0.129633
H6    H     H_    0.966042 0.163264 0.115114 0.127256
H7    H     H_    0.027164 0.135661 0.154983 0.135035
H8    H     H_    0.051308 0.078933 0.214277 0.120552
H9    H     H_    0.047690 0.077418 0.805724 0.120909
H10   H     H_    0.071015 0.133870 0.864842 0.129687
H11   H     H_    0.033973 0.163262 0.884931 0.127234
H12   H     H_    0.972849 0.135662 0.845053 0.134956
H13   H     H_    0.447367 0.469033 0.162329 0.174217
H14   H     H_    0.948699 0.078938 0.785743 0.120446
H15   H     H_    0.452181 0.577332 0.194158 0.120915
H16   H     H_    0.428764 0.633747 0.134958 0.129736
H17   H     H_    0.465759 0.663205 0.114831 0.127278
H18   H     H_    0.526930 0.635708 0.154751 0.135012
H19   H     H_    0.551172 0.579022 0.214142 0.120358
H20   H     H_    0.547553 0.577504 0.805583 0.120956
H21   H     H_    0.570780 0.633996 0.864603 0.129806
H22   H     H_    0.533689 0.663324 0.884643 0.127329
H23   H     H_    0.472614 0.635617 0.844817 0.135043
H24   H     H_    0.552737 0.469221 0.837771 0.176017
H25   H     H_    0.448562 0.578851 0.785606 0.120553
H26   H     H_    0.225294 0.057597 0.663514 0.127298
H27   H     H_    0.258312 0.118639 0.693483 0.136545
H28   H     H_    0.245465 0.167764 0.734015 0.139146
H29   H     H_    0.199367 0.155646 0.744717 0.134296
H30   H     H_    0.166411 0.094564 0.715757 0.129124
H31   H     H_    0.774709 0.057848 0.336203 0.126955
H32   H     H_    0.741685 0.118900 0.305914 0.134916
H33   H     H_    0.754522 0.167796 0.265114 0.134923
H34   H     H_    0.800617 0.155438 0.254466 0.132959
H35   H     H_    0.311039 0.997293 0.878240 0.136132
H36   H     H_    0.833579 0.094344 0.283749 0.128838
H37   H     H_    0.725293 0.558177 0.664195 0.127220
H38   H     H_    0.758324 0.619240 0.694920 0.136588
H39   H     H_    0.745493 0.667838 0.736070 0.139163
H40   H     H_    0.699397 0.655170 0.746628 0.134300
H41   H     H_    0.666427 0.594059 0.716907 0.129159
H42   H     H_    0.274705 0.557630 0.336449 0.127306
H43   H     H_    0.241688 0.618674 0.306444 0.136530
H44   H     H_    0.254536 0.667769 0.265885 0.139161
H45   H     H_    0.300635 0.655618 0.255191 0.134355
H46   H     H_    0.688961 0.997311 0.121759 0.136096
H47   H     H_    0.333589 0.594534 0.284186 0.129156
H48   H     H_    0.885081 0.841958 0.916932 0.351730
H49   H     H_    0.114921 0.841952 0.083086 0.351738
H50   H     H_    0.385089 0.341965 0.917081 0.351484
H51   H     H_    0.637215 0.317454 0.137553 0.387424
H52   H     H_    0.811039 0.497344 0.878243 0.136234
H53   H     H_    0.188961 0.497292 0.121759 0.136122
H54   H     H_    0.379996 0.998213 0.947782 0.157940
H55   H     H_    0.620004 0.998233 0.052217 0.157937
H56   H     H_    0.879996 0.498266 0.947784 0.157976
H57   H     H_    0.950616 0.035539 0.733391 0.121580
H58   H     H_    0.120004 0.498213 0.052217 0.157931
H59   H     H_    0.380285 0.001011 0.812203 0.157823
H60   H     H_    0.619714 0.000987 0.187798 0.157672
H61   H     H_    0.880286 0.500951 0.812202 0.157691
H62   H     H_    0.119715 0.501009 0.187798 0.157801
H63   H     H_    0.311382 0.000124 0.743313 0.132299
H64   H     H_    0.688617 0.000097 0.256687 0.132153
H65   H     H_    0.811383 0.500061 0.743313 0.132152
H66   H     H_    0.188618 0.500120 0.256687 0.132296
H67   H     H_    0.188618 0.939480 0.689197 0.143182
H68   H     H_    0.549324 0.535616 0.266556 0.121472
H69   H     H_    0.811384 0.939472 0.311081 0.143175
H70   H     H_    0.688614 0.439468 0.688548 0.143116
H71   H     H_    0.311382 0.439477 0.310839 0.143182
H72   H     H_    0.119917 0.939271 0.621501 0.161343
H73   H     H_    0.880085 0.939262 0.378780 0.161341
H74   H     H_    0.619913 0.439255 0.620843 0.161340
H75   H     H_    0.380083 0.439269 0.378536 0.161348
H76   H     H_    0.119267 0.060768 0.616012 0.162929
H77   H     H_    0.880730 0.060778 0.383692 0.162822
H78   H     H_    0.619274 0.560790 0.616705 0.162991
H79   H     H_    0.450553 0.535455 0.733328 0.121786
H80   H     H_    0.380733 0.560769 0.383950 0.162969
H81   H     H_    0.046786 0.041122 0.333868 0.159972
H82   H     H_    0.953218 0.041133 0.666143 0.159824
H83   H     H_    0.546713 0.541204 0.333794 0.159855
H84   H     H_    0.453144 0.541051 0.666069 0.159998
H85   H     H_    0.500132 0.811179 0.932470 0.134020
H86   H     H_    0.499868 0.811180 0.067514 0.134002
H87   H     H_    0.000130 0.311179 0.932468 0.133885
H88   H     H_    0.999872 0.311180 0.067518 0.133987
H89   H     H_    0.500132 0.880122 0.932185 0.157128
H90   H     H_    0.001449 0.062303 0.288305 0.169782
H91   H     H_    0.499867 0.880122 0.067807 0.157103
H92   H     H_    0.000130 0.380122 0.932183 0.157020
H93   H     H_    0.999871 0.380122 0.067811 0.157104
H94   H     H_    0.939336 0.188749 0.938414 0.135851
H95   H     H_    0.060666 0.188750 0.061571 0.135940
H96   H     H_    0.439335 0.688749 0.938431 0.135953
H97   H     H_    0.560665 0.688750 0.061552 0.135953
H98   H     H_    0.939070 0.119824 0.938142 0.158971
H99   H     H_    0.060931 0.119824 0.061852 0.159024
H100  H     H_    0.439069 0.619823 0.938160 0.159038
H101  H     H_    0.998558 0.062309 0.711711 0.169751
H102  H     H_    0.560931 0.619825 0.061833 0.159032
H103  H     H_    0.500013 0.188798 0.067740 0.148552
H104  H     H_    0.499990 0.188872 0.932404 0.149116
H105  H     H_    0.999951 0.688836 0.067615 0.148674
H106  H     H_    0.000046 0.688835 0.932397 0.148652
H107  H     H_    0.500014 0.119882 0.068001 0.160017
H108  H     H_    0.499990 0.119945 0.932048 0.160201
H109  H     H_    0.999954 0.619914 0.067921 0.160172
H110  H     H_    0.000045 0.619913 0.932085 0.160142
H111  H     H_    0.939451 0.880730 0.939406 0.203673
H112  H     H_    0.501338 0.562305 0.288194 0.169818
H113  H     H_    0.060548 0.880730 0.060599 0.203680
H114  H     H_    0.439448 0.380733 0.939447 0.205126
H115  H     H_    0.560556 0.380714 0.060698 0.223974
H116  H     H_    0.011980 0.940128 0.298421 0.176949
H117  H     H_    0.988014 0.940136 0.701564 0.176932
H118  H     H_    0.512084 0.440149 0.298525 0.176693
H119  H     H_    0.488119 0.440116 0.701671 0.177378
H120  H     H_    0.053275 0.969241 0.338958 0.171103
H121  H     H_    0.946722 0.969251 0.661034 0.171030
H122  H     H_    0.553327 0.469334 0.339011 0.170756
H123  H     H_    0.498446 0.562308 0.711598 0.169830
H124  H     H_    0.446776 0.469158 0.661088 0.171168
H125  H     H_    0.052653 0.967716 0.266393 0.171882
H126  H     H_    0.947344 0.967724 0.733599 0.171818
H127  H     H_    0.552709 0.467808 0.266448 0.171261
H128  H     H_    0.447400 0.467634 0.733655 0.171917
H129  H     H_    0.010778 0.939642 0.225342 0.184197
H130  H     H_    0.989216 0.939647 0.774643 0.184186
H131  H     H_    0.510883 0.439660 0.225447 0.183754
H132  H     H_    0.489321 0.439630 0.774749 0.185394
H133  H     H_    0.942225 0.021447 0.227703 0.162934
H134  H     H_    0.947314 0.969126 0.162276 0.174345
H135  H     H_    0.057778 0.021448 0.772303 0.162969
H136  H     H_    0.442186 0.521345 0.227664 0.162972
H137  H     H_    0.557739 0.521552 0.772264 0.163095
H138  H     H_    0.946157 0.971163 0.232681 0.174434
H139  H     H_    0.053840 0.971165 0.767312 0.174431
H140  H     H_    0.446206 0.471068 0.232731 0.174363
H141  H     H_    0.553891 0.471262 0.767362 0.174979
H142  H     H_    0.940854 0.018691 0.153820 0.171937
H143  H     H_    0.059148 0.018690 0.846185 0.171960
H144  H     H_    0.440820 0.518587 0.153786 0.171939
O1    O     O_R   0.055450 0.031330 0.555450 -0.625379
O2    O     O_R   0.555420 0.000140 0.020740 -0.622806
O3    O     O_R   0.944580 0.500140 0.979260 -0.622774
O4    O     O_R   0.055420 0.500140 0.020740 -0.622803
O5    O     O_R   0.499990 0.055580 0.965290 -0.622343
O6    O     O_R   0.500010 0.055580 0.034710 -0.622471
O7    O     O_R   0.999990 0.555580 0.965290 -0.622368
O8    O     O_R   0.000010 0.555580 0.034710 -0.622343
O9    O     O_R   0.055480 0.968710 0.555480 -0.625485
O10   O     O_R   0.944520 0.968710 0.444520 -0.625492
O11   O     O_R   0.555480 0.468710 0.555480 -0.625530
O12   O     O_R   0.944550 0.031330 0.444550 -0.625449
O13   O     O_R   0.444520 0.468710 0.444520 -0.625496
O14   O     O_R   1.000000 0.031330 0.438570 -0.616464
O15   O     O_R   0.000000 0.031330 0.561430 -0.616479
O16   O     O_R   0.500000 0.531330 0.438570 -0.616339
O17   O     O_R   0.500000 0.531330 0.561430 -0.616433
O18   O     O_R   0.000030 0.968710 0.438600 -0.615885
O19   O     O_R   0.999970 0.968710 0.561400 -0.615915
O20   O     O_R   0.500030 0.468710 0.438600 -0.616062
O21   O     O_R   0.499970 0.468710 0.561400 -0.615784
O22   O     O_R   0.031310 0.055360 0.031310 -0.625759
O23   O     O_R   0.555450 0.531330 0.555450 -0.625340
O24   O     O_R   0.968690 0.055360 0.968690 -0.625794
O25   O     O_R   0.531310 0.555360 0.031310 -0.626041
O26   O     O_R   0.468690 0.555360 0.968690 -0.625947
O27   O     O_R   0.031320 0.999900 0.092750 -0.617494
O28   O     O_R   0.968680 0.999900 0.907250 -0.617546
O29   O     O_R   0.531320 0.499900 0.092750 -0.618231
O30   O     O_R   0.468680 0.499900 0.907250 -0.618107
O31   O     O_R   0.968720 0.999920 0.030150 -0.614905
O32   O     O_R   0.031280 0.999920 0.969850 -0.614879
O33   O     O_R   0.468720 0.499920 0.030150 -0.615062
O34   O     O_R   0.444550 0.531330 0.444550 -0.625349
O35   O     O_R   0.531280 0.499920 0.969850 -0.612785
O36   O     O_R   0.031330 0.944430 0.031330 -0.622658
O37   O     O_R   0.968670 0.944430 0.968670 -0.622675
O38   O     O_R   0.531330 0.444430 0.031330 -0.620608
O39   O     O_R   0.468670 0.444430 0.968670 -0.622255
O40   O     O_R   0.500050 0.944650 0.965390 -0.623752
O41   O     O_R   0.499950 0.944650 0.034610 -0.623779
O42   O     O_R   0.000050 0.444650 0.965390 -0.623846
O43   O     O_R   0.999950 0.444650 0.034610 -0.623776
O44   O     O_2   0.918417 0.779384 0.879350 -0.256487
O45   O     O_R   0.444580 0.000120 0.909900 -0.623387
O46   O     O_2   0.919905 0.776394 0.957438 -0.310328
O47   O     O_3   0.885539 0.832902 0.887978 -0.527970
O48   O     O_2   0.081579 0.779389 0.120664 -0.256435
O49   O     O_2   0.080094 0.776389 0.042580 -0.310324
O50   O     O_3   0.114459 0.832901 0.112038 -0.527924
O51   O     O_2   0.418434 0.279446 0.879444 -0.255151
O52   O     O_2   0.419865 0.276347 0.957471 -0.310545
O53   O     O_3   0.385532 0.332908 0.888111 -0.527794
O54   O     O_2   0.580720 0.277951 0.119383 -0.303825
O55   O     O_2   0.580724 0.278071 0.042482 -0.301567
O56   O     O_R   0.555420 0.000120 0.090100 -0.623536
O57   O     O_3   0.614218 0.333230 0.114569 -0.563455
O58   O     O_R   0.944580 0.500120 0.909900 -0.623498
O59   O     O_R   0.055420 0.500120 0.090100 -0.623424
O60   O     O_R   0.444580 0.000140 0.979260 -0.622778
S1    S     S_3+6 0.921726 0.802398 0.922075 0.030831
S2    S     S_3+6 0.078271 0.802398 0.077940 0.030869
S3    S     S_3+6 0.421717 0.302403 0.922185 0.031939
S4    S     S_3+6 0.578251 0.302418 0.078508 0.013867
Zn1   Zn    Zn3+2 0.000000 0.041840 0.500000 0.951280
Zn2   Zn    Zn3+2 0.499980 0.000110 0.046290 0.949790
Zn3   Zn    Zn3+2 0.000020 0.500110 0.953710 0.949899
Zn4   Zn    Zn3+2 0.999980 0.500110 0.046290 0.950148
Zn5   Zn    Zn3+2 0.500000 0.541840 0.500000 0.951761
Zn6   Zn    Zn3+2 1.000000 0.958210 0.500000 0.952864
Zn7   Zn    Zn3+2 0.500000 0.458210 0.500000 0.952865
Zn8   Zn    Zn3+2 0.041820 0.999900 0.041820 0.965040
Zn9   Zn    Zn3+2 0.958180 0.999900 0.958180 0.964899
Zn10  Zn    Zn3+2 0.541820 0.499900 0.041820 0.970120
Zn11  Zn    Zn3+2 0.458180 0.499900 0.958180 0.965153
Zn12  Zn    Zn3+2 0.500020 0.000110 0.953710 0.950121

loop_
_geom_bond_atom_site_label_1
_geom_bond_atom_site_label_2
_ccdc_geom_bond_type
C175  O20   A    
H49   O50   S    
C126  C127  A    
C13   C200  S    
C96   C102  A    
C29   C42   S    
C72   H114  S    
C64   C77   S    
C222  H133  S    
C106  H11   S    
C228  O36   A    
C114  C115  A    
C185  C190  T    
C115  H18   S    
O38   Zn10  S    
C34   H98   S    
C145  H43   S    
C63   C76   S    
C177  C182  S    
C108  H14   S    
C207  H80   S    
C100  H7    S    
C144  H42   S    
C2    H139  S    
C89   C94   S    
C75   C229  S    
C110  C111  A    
C224  O31   A    
C9    C19   A    
C204  C208  A    
C10   C20   A    
C111  H16   S    
C70   C74   A    
C121  H23   S    
C25   C60   S    
C151  C155  A    
C80   C225  S    
C195  C199  A    
C48   H107  S    
C60   C93   S    
C153  C180  A    
C156  O23   A    
C62   C95   S    
C73   C75   A    
O14   Zn1   S    
C104  C105  A    
C188  C215  S    
C223  H123  S    
C225  O28   A    
C11   C20   A    
C50   C53   A    
C13   H140  S    
O6    Zn2   S    
C140  C141  A    
C61   C94   S    
C231  O42   A    
O24   Zn9   S    
C112  O10   A    
C21   C29   T    
C27   C86   S    
C43   C54   A    
C17   C230  S    
C66   C76   A    
O9    Zn6   S    
C32   H96   S    
C128  H29   S    
O56   Zn2   S    
C5    O4    A    
C232  O60   A    
O17   Zn5   S    
C221  H83   S    
C176  O21   A    
C199  C204  A    
C7    O8    A    
C7    C53   S    
C43   H103  S    
C129  H30   S    
O45   Zn12  S    
C160  C164  A    
C229  O39   A    
C82   C227  S    
C152  C157  A    
C160  C232  S    
O8    Zn4   S    
C168  H62   S    
H51   O57   S    
O2    Zn12  S    
C144  C145  A    
O4    Zn3   S    
C139  C140  A    
C133  H33   S    
C137  C210  S    
C35   C78   T    
C33   C38   A    
C87   H1    S    
C3    O2    A    
C8    H85   S    
C200  H144  S    
C130  C131  A    
C24   H137  S    
C173  O14   A    
O47   S1    S    
C45   C50   A    
C30   H94   S    
C211  H3    S    
C218  O25   A    
O1    Zn1   S    
C9    H86   S    
C48   C52   A    
O53   S3    S    
C11   H88   S    
C106  C107  A    
C13   C85   S    
C31   C36   A    
C6    C52   S    
C210  C215  A    
C161  C165  A    
C180  C184  S    
C78   C224  S    
C227  O35   A    
C110  H15   S    
C166  H61   S    
C38   C40   A    
C137  C142  A    
C154  C181  A    
C208  C213  A    
C28   C41   S    
C69   C77   A    
C147  C148  A    
C67   C77   A    
C211  H24   S    
C128  C129  A    
C97   C98   A    
C98   H5    S    
C112  O12   A    
C23   C59   S    
C154  H53   S    
C33   C42   A    
C5    C163  S    
O51   S3    D    
C19   C21   S    
C37   H100  S    
C37   C40   A    
C89   C221  S    
O29   Zn10  S    
C227  O30   A    
C151  C177  A    
C104  H9    S    
C67   C72   A    
C141  H40   S    
C153  C158  A    
C74   C228  S    
C84   C220  S    
C99   H6    S    
C27   H119  S    
C172  C181  A    
C16   H93   S    
C107  C108  A    
C56   C64   T    
C30   C41   A    
C12   H89   S    
C195  H72   S    
O40   Zn12  S    
C225  O32   A    
C96   C97   A    
C14   C17   A    
O18   Zn6   S    
O46   S1    D    
C84   C90   S    
C72   C75   A    
C169  C177  A    
C24   C211  S    
C193  C215  A    
C131  H31   S    
C8    C19   A    
C81   C226  S    
C30   C34   A    
C69   S4    S    
C34   C39   A    
C167  O13   A    
C4    O58   A    
C224  O27   A    
O59   Zn4   S    
O5    Zn12  S    
C114  H17   S    
C125  H26   S    
C51   C53   A    
C117  C122  A    
C25   H117  S    
O41   Zn2   S    
C27   C62   S    
C193  H70   S    
C83   C219  S    
C206  C210  A    
C122  H25   S    
C231  O43   A    
C10   H87   S    
C143  C149  A    
O27   Zn8   S    
C8    C12   A    
C156  O11   A    
C197  C202  A    
C65   S1    S    
C32   C37   A    
C142  H41   S    
C6    O6    A    
O25   Zn10  S    
O60   Zn2   S    
C165  H60   S    
O36   Zn8   S    
O34   Zn5   S    
C98   C99   A    
C1    O9    A    
C57   C94   S    
C86   C223  S    
C198  C203  A    
C120  C121  A    
C47   H106  S    
C31   C41   A    
C113  C150  T    
C39   C217  S    
C36   C39   A    
C174  O19   A    
C226  O29   A    
C200  H13   S    
C143  C212  S    
C116  H19   S    
C93   C189  S    
O57   S4    S    
C79   C124  T    
C140  H39   S    
C170  C179  A    
C136  H36   S    
C95   C211  S    
C163  C168  A    
C219  H81   S    
C159  H58   S    
C154  C159  A    
O32   Zn8   S    
C117  C118  A    
C46   C80   T    
C90   C135  T    
C194  C198  A    
C176  O17   A    
C26   C85   S    
C123  C208  S    
C159  C163  A    
C149  H47   S    
C198  H75   S    
C191  C195  A    
O49   S2    D    
C26   H122  S    
C91   C95   S    
C44   C54   A    
C45   C55   A    
C201  C205  A    
C119  H21   S    
C130  C209  S    
C196  C201  A    
C178  H142  S    
C24   C86   S    
C4    O3    A    
C221  H112  S    
C15   C18   A    
C2    C84   S    
C71   H113  S    
C226  O33   A    
C23   H120  S    
O39   Zn11  S    
C65   C76   A    
C23   C83   S    
C126  H27   S    
C86   C113  S    
O37   Zn9   S    
C192  C196  A    
C33   H97   S    
C26   C61   S    
C18   C231  S    
C194  C216  A    
O42   Zn3   S    
C220  H82   S    
C194  H71   S    
C123  C125  A    
C148  H45   S    
C186  C213  S    
C196  H73   S    
C182  C186  T    
C230  O40   A    
C220  H101  S    
C109  C116  A    
C162  C166  A    
C45   H105  S    
O21   Zn7   S    
C12   C17   A    
O7    Zn3   S    
C91   C117  S    
C1    O1    A    
C69   C73   A    
C167  C203  S    
C189  H143  S    
C132  H32   S    
C35   C92   S    
C222  H138  S    
C187  C214  S    
C22   C28   T    
C87   C92   S    
O50   S2    S    
C153  H52   S    
C1    C199  S    
C112  C201  S    
C15   H92   S    
C145  C147  A    
C229  O38   A    
C61   H131  S    
C139  H38   S    
C172  H66   S    
C88   H57   S    
C68   C95   S    
C135  C174  S    
C3    O56   A    
O54   S4    D    
C47   C51   A    
H50   O53   S    
C192  H69   S    
C97   H4    S    
C88   C220  S    
C9    C14   A    
C183  C187  T    
C11   C16   A    
C191  H67   S    
C66   C71   A    
C174  O15   A    
C178  H134  S    
C49   C52   A    
O22   Zn8   S    
C146  C175  S    
O23   Zn5   S    
C218  O26   A    
C155  H54   S    
C121  C122  A    
C152  H46   S    
C230  O41   A    
C151  H35   S    
C20   C22   S    
C13   H136  S    
O11   Zn7   S    
C133  C134  A    
C4    C162  S    
C107  H12   S    
C62   H132  S    
C91   C223  S    
C131  C132  A    
C157  C161  A    
C105  H10   S    
O13   Zn7   S    
C165  C170  A    
C5    O59   A    
C23   H116  S    
C71   C74   A    
C205  H77   S    
C119  C120  A    
C175  O16   A    
C105  C106  A    
C102  H8    S    
C209  C214  A    
O16   Zn5   S    
C7    O7    A    
C152  C179  A    
C143  C144  A    
C66   S2    S    
C68   C82   T    
C109  C110  A    
C191  C213  A    
C79   C83   S    
C115  C116  A    
C60   H126  S    
C70   H111  S    
C223  H84   S    
C111  C114  A    
C94   C200  S    
C59   C92   S    
C120  H22   S    
O30   Zn11  S    
C138  C139  A    
C3    C161  S    
C217  O22   A    
O28   Zn9   S    
C168  C172  A    
C55   C58   S    
C103  C104  A    
C219  H90   S    
C32   C42   A    
C38   H102  S    
O26   Zn11  S    
C190  C216  S    
C228  O37   A    
O15   Zn1   S    
O10   Zn6   S    
C89   H68   S    
C138  H37   S    
C44   C49   A    
C134  H34   S    
C150  C176  S    
C36   H99   S    
C197  H74   S    
C2    C189  S    
O19   Zn6   S    
C156  C202  S    
C171  H65   S    
C157  H55   S    
C158  H56   S    
C67   S3    S    
C25   H121  S    
C10   C15   A    
C167  O34   A    
C89   C109  S    
C60   H130  S    
O3    Zn4   S    
C118  C119  A    
O44   S1    D    
C83   C222  S    
C212  C216  A    
C6    O5    A    
C132  C133  A    
C25   C84   S    
C103  C108  A    
C87   C219  S    
C43   C48   A    
C147  H44   S    
C166  C171  A    
C123  C129  A    
C164  C169  A    
C169  H63   S    
C192  C214  A    
C170  H64   S    
C179  C183  S    
C2    H135  S    
C54   C56   S    
C101  C146  T    
H48   O47   S    
C148  C149  A    
C181  C185  S    
C134  C136  A    
C124  C173  S    
C203  C207  A    
C184  C188  T    
O43   Zn4   S    
C26   H118  S    
C217  O24   A    
C99   C100  A    
O33   Zn11  S    
C205  C209  A    
C87   C96   S    
C100  C102  A    
C189  H2    S    
C73   H115  S    
C24   H141  S    
C59   H129  S    
C92   C178  S    
O58   Zn3   S    
C49   H108  S    
C173  O18   A    
C61   H127  S    
O48   S2    D    
C207  C212  A    
C57   C81   T    
C171  C180  A    
C88   C103  S    
C85   C101  S    
C47   C55   A    
C58   C63   T    
C88   C93   S    
C50   H109  S    
C40   C218  S    
C155  C160  A    
C130  C136  A    
C204  H76   S    
O12   Zn1   S    
C164  H59   S    
C14   H91   S    
C91   H79   S    
C137  C138  A    
O31   Zn9   S    
C31   H95   S    
C232  O45   A    
O35   Zn10  S    
C118  H20   S    
C141  C142  A    
O52   S3    D    
C125  C126  A    
C46   C93   S    
C85   C221  S    
C193  C197  A    
C51   H110  S    
C62   H128  S    
C27   H124  S    
C158  C162  A    
C59   H125  S    
C44   H104  S    
C16   C18   A    
C202  C206  A    
O20   Zn7   S    
C127  H28   S    
C178  C222  S    
C65   C70   A    
C127  C128  A    
O55   S4    D    
C206  H78   S    
