data_mof_unit_52229.cif
_audit_creation_date              2012-12-10T17:38:46-0500
_audit_creation_method            fapswitch 2.2
_symmetry_space_group_name_H-M    P1
_symmetry_Int_Tables_number       1
_space_group_crystal_system       triclinic
_cell_length_a                    12.33972
_cell_length_b                    13.485878
_cell_length_c                    23.506055
_cell_angle_alpha                 76.482807
_cell_angle_beta                  100.931906
_cell_angle_gamma                 116.653018
_cell_volume                      3382.96976728

loop_
_atom_site_label
_atom_site_type_symbol
_atom_type_description
_atom_site_fract_x
_atom_site_fract_y
_atom_site_fract_z
_atom_type_partial_charge
C1    C     C_R   0.854171 0.286639 0.508470 0.765983
C2    C     C_R   0.847892 0.305298 0.040430 -0.128493
C3    C     C_R   0.846562 0.306085 0.980838 -0.146309
C4    C     C_R   0.923690 0.402423 0.945373 -0.017643
C5    C     C_R   0.002925 0.498624 0.970380 -0.010186
C6    C     C_R   0.081224 0.595447 0.935310 -0.019500
C7    C     C_R   0.159785 0.690941 0.960690 -0.146452
C8    C     C_R   0.160369 0.690476 0.020169 -0.136729
C9    C     C_R   0.924056 0.405190 0.885364 0.540194
C10   C     C_R   0.078678 0.594061 0.875565 0.545054
C11   C     C_R   0.906828 0.512855 0.750306 -0.095015
C12   C     C_R   0.999744 0.499879 0.608900 0.784889
C13   C     C_R   0.906613 0.513266 0.690889 -0.224670
C14   C     C_R   0.999869 0.500282 0.671544 -0.032421
C15   C     C_R   0.093589 0.487626 0.712715 -0.163272
C16   C     C_R   0.093945 0.487970 0.772002 -0.104408
C17   C     C_R   0.000514 0.500317 0.790945 0.350950
C18   C     C_R   0.088530 0.478383 0.250776 -0.147343
C19   C     C_R   0.088680 0.478683 0.309984 -0.180932
C20   C     C_R   0.000259 0.499549 0.328454 -0.103516
C21   C     C_R   0.911816 0.520317 0.286572 -0.238410
C22   C     C_R   0.911369 0.520694 0.226915 0.467663
C23   C     C_R   0.145503 0.711610 0.496241 0.908045
C24   C     C_R   0.000438 0.499006 0.209101 0.231458
C25   C     C_R   0.264521 0.023608 0.493236 0.382292
C26   C     C_R   0.230642 0.829421 0.499972 -0.219847
C27   C     C_R   0.816358 0.093926 0.498075 -0.150791
C28   C     C_R   0.737451 0.985470 0.487879 -0.105780
C29   C     C_R   0.612362 0.945884 0.489592 -0.069628
C30   C     C_R   0.564359 0.012054 0.505004 0.133422
C31   C     C_R   0.644599 0.121586 0.515758 0.091496
C32   C     C_R   0.437244 0.974332 0.507428 -0.095709
C33   C     C_R   0.390814 0.053900 0.505859 -0.005851
C34   C     C_R   0.000077 0.499772 0.391120 0.864069
C35   C     C_R   0.471486 0.156892 0.522662 -0.115829
C36   C     C_R   0.595259 0.184011 0.532830 -0.205377
C37   C     C_R   0.356542 0.859951 0.517434 0.290352
C38   C     C_R   0.186722 0.912250 0.487629 -0.257441
C39   C     C_R   0.771244 0.165029 0.510040 -0.117530
C40   C     C_R   0.360469 0.358172 0.606043 -0.216854
C41   C     C_R   0.745015 0.630120 0.413397 0.517862
C42   C     C_R   0.632307 0.629217 0.389182 -0.264053
C43   C     C_R   0.532253 0.572635 0.420331 -0.235546
C44   C     C_R   0.542481 0.517214 0.477771 0.018051
C45   C     C_R   0.080587 0.592381 0.115265 0.618373
C46   C     C_R   0.654114 0.507014 0.499477 0.244107
C47   C     C_R   0.443989 0.469257 0.513667 0.033110
C48   C     C_R   0.455654 0.407034 0.570042 0.171355
C49   C     C_R   0.561920 0.393336 0.589881 -0.305036
C50   C     C_R   0.657481 0.440806 0.554970 -0.198239
C51   C     C_R   0.335320 0.484108 0.496887 0.152048
C52   C     C_R   0.255521 0.374549 0.586705 0.187182
C53   C     C_R   0.928079 0.402596 0.125388 0.613293
C54   C     C_R   0.925994 0.400993 0.065730 -0.029469
C55   C     C_R   0.003799 0.498032 0.030586 -0.017884
C56   C     C_R   0.082557 0.594446 0.055518 -0.026264
Cu1   Cu    Cu3+1 0.098270 0.475410 0.513370 1.029783
Cu2   Cu    Cu3+1 0.901730 0.524590 0.486630 1.007687
H1    H     H_    0.787183 0.229698 0.066504 0.200145
H2    H     H_    0.158019 0.462504 0.341223 0.183038
H3    H     H_    0.843034 0.536244 0.300346 0.197387
H4    H     H_    0.090440 0.888674 0.477833 0.251151
H5    H     H_    0.439067 0.213057 0.531885 0.211656
H6    H     H_    0.912245 0.124180 0.493553 0.219229
H7    H     H_    0.553353 0.864819 0.477077 0.172862
H8    H     H_    0.773031 0.933247 0.476410 0.191456
H9    H     H_    0.784979 0.231011 0.962693 0.194562
H10   H     H_    0.652509 0.252226 0.555105 0.151664
H11   H     H_    0.182237 0.338768 0.614690 0.110970
H12   H     H_    0.570529 0.343047 0.632378 0.163643
H13   H     H_    0.367723 0.308889 0.648999 0.138938
H14   H     H_    0.321440 0.536331 0.456594 0.103295
H15   H     H_    0.448878 0.576774 0.398627 0.160096
H16   H     H_    0.622087 0.678819 0.346862 0.209726
H17   H     H_    0.728534 0.416662 0.572492 0.188092
H18   H     H_    0.220861 0.766391 0.934680 0.193638
H19   H     H_    0.221768 0.765622 0.038294 0.196498
H20   H     H_    0.834478 0.522613 0.764813 0.148550
H21   H     H_    0.833404 0.523484 0.660288 0.170548
H22   H     H_    0.166842 0.477743 0.699186 0.178586
H23   H     H_    0.166542 0.478213 0.803338 0.148081
H24   H     H_    0.157094 0.461968 0.237094 0.173810
N1    N     N_R   0.002849 0.498019 0.148503 -0.456029
N2    N     N_R   0.000832 0.499962 0.851957 -0.471595
N3    N     N_R   0.246280 0.438190 0.533650 -0.184811
N4    N     N_R   0.754320 0.561190 0.466710 -0.258082
O1    O     O_R   0.972510 0.318130 0.516820 -0.570916
O2    O     O_2   0.855923 0.309843 0.160055 -0.483715
O3    O     O_2   0.848962 0.313855 0.860607 -0.528612
O4    O     O_2   0.152874 0.686001 0.841227 -0.519328
O5    O     O_R   0.806530 0.359650 0.494230 -0.596240
O6    O     O_R   0.082990 0.479200 0.593420 -0.575276
O7    O     O_R   0.917010 0.520720 0.570830 -0.621226
O8    O     O_R   0.193470 0.640350 0.505770 -0.530838
O9    O     O_R   0.027490 0.681870 0.483180 -0.531908
O10   O     O_R   0.082990 0.479280 0.429170 -0.598726
O11   O     O_R   0.917010 0.520800 0.406580 -0.552668
O12   O     O_2   0.154705 0.684106 0.139901 -0.495159
S1    S     S_3+6 0.799194 0.548177 0.175451 0.036299
O13   O     O_2   0.711021 0.441555 0.153162 -0.250694
O14   O     O_2   0.730959 0.589427 0.203585 -0.291249
O15   O     O_3   0.865852 0.646394 0.118635 -0.513034
H25   H     H_    0.797696 0.647486 0.088839 0.380829
S2    S     S_3+6 0.200545 0.121741 0.482689 -0.000371
O16   O     O_2   0.280177 0.231821 0.448135 -0.269663
O17   O     O_2   0.075683 0.078044 0.449991 -0.256988
O18   O     O_3   0.189916 0.143055 0.548623 -0.563209
H26   H     H_    0.133125 0.068788 0.568071 0.343662
S3    S     S_3+6 0.405350 0.769839 0.574163 0.013645
O19   O     O_2   0.306232 0.697102 0.613932 -0.287612
O20   O     O_2   0.435896 0.695532 0.547684 -0.289236
O21   O     O_3   0.529827 0.846195 0.615153 -0.497034
H27   H     H_    0.502859 0.888869 0.633877 0.350038
S4    S     S_3+6 0.868848 0.745455 0.377648 0.045996
O22   O     O_2   0.909197 0.841955 0.409823 -0.256179
O23   O     O_2   0.977279 0.725876 0.373823 -0.278648
O24   O     O_3   0.819342 0.786200 0.308379 -0.482754
H28   H     H_    0.802880 0.724557 0.287303 0.367418

loop_
_geom_bond_atom_site_label_1
_geom_bond_atom_site_label_2
_ccdc_geom_bond_type
C1    O1    A    
C55   C56   A    
C13   H21   S    
C43   H15   S    
Cu1   O6    S    
C41   C42   A    
C19   C20   A    
C41   S4    S    
Cu2   O9    S    
C51   N3    A    
S2    O17   D    
S4    O22   D    
C7    C8    A    
C53   C54   A    
C41   N4    A    
C18   C24   A    
C28   C29   A    
C40   H13   S    
C24   N1    S    
C34   O10   A    
C45   O12   S    
S3    O20   D    
C5    C6    A    
C15   C16   A    
C34   O11   A    
C18   C19   A    
C23   C26   S    
O21   H27   S    
C52   H11   S    
C33   C35   A    
C11   C17   A    
C15   H22   S    
C45   C56   A    
C27   C39   A    
C16   C17   A    
Cu1   O10   S    
O18   H26   S    
Cu2   O5    S    
C21   H3    S    
C44   C47   A    
C12   O6    A    
C20   C34   S    
C35   H5    S    
C50   H17   S    
C1    O5    A    
C21   C22   A    
C8    C56   A    
C45   N1    A    
Cu2   O11   S    
Cu2   N4    S    
S2    O16   D    
C44   C46   A    
C42   H16   S    
C47   C48   A    
C2    C54   A    
S3    O21   S    
C9    O3    S    
C2    H1    S    
C26   C38   A    
C47   C51   A    
C40   C52   A    
Cu1   O1    S    
C35   C36   A    
C28   H8    S    
C43   C44   A    
C29   C30   A    
C11   H20   S    
C25   C38   A    
S1    O13   D    
C26   C37   A    
C32   C37   A    
C6    C7    A    
C29   H7    S    
C48   C49   A    
S1    O14   D    
C12   C14   S    
C49   H12   S    
C8    H19   S    
C22   C24   A    
C12   O7    A    
C51   H14   S    
C3    C4    A    
C40   C48   A    
C54   C55   A    
C52   N3    A    
C22   S1    S    
C14   C15   A    
C37   S3    S    
C5    C55   A    
C3    H9    S    
C4    C5    A    
C6    C10   A    
S4    O23   D    
C36   H10   S    
C25   S2    S    
C7    H18   S    
C19   H2    S    
C46   C50   A    
C23   O8    A    
C53   N1    A    
Cu1   O8    S    
C17   N2    S    
C32   C33   A    
C2    C3    A    
O24   H28   S    
C30   C32   A    
C11   C13   A    
Cu1   Cu2   S    
C30   C31   A    
C10   N2    A    
C16   H23   S    
C18   H24   S    
C23   O9    A    
C53   O2    S    
O15   H25   S    
S4    O24   S    
C27   H6    S    
C1    C39   S    
C9    N2    A    
S1    O15   S    
C20   C21   A    
C10   O4    S    
C49   C50   A    
C42   C43   A    
S3    O19   D    
C27   C28   A    
C31   C39   A    
C31   C36   A    
Cu2   O7    S    
C46   N4    A    
C4    C9    A    
C13   C14   A    
Cu1   N3    S    
S2    O18   S    
C25   C33   A    
C38   H4    S    
