data_mof_unit_23729.cif
_audit_creation_date              2012-12-11T17:01:24-0500
_audit_creation_method            fapswitch 2.2
_symmetry_space_group_name_H-M    P1
_symmetry_Int_Tables_number       1
_space_group_crystal_system       triclinic
_cell_length_a                    15.106631
_cell_length_b                    14.815
_cell_length_c                    14.889633
_cell_angle_alpha                 109.079367
_cell_angle_beta                  109.357821
_cell_angle_gamma                 109.701301
_cell_volume                      2573.87756191

loop_
_atom_site_label
_atom_site_type_symbol
_atom_type_description
_atom_site_fract_x
_atom_site_fract_y
_atom_site_fract_z
_atom_type_partial_charge
C1    C     C_R   0.005268 0.804886 0.098260 -0.154162
C2    C     C_R   0.674622 0.199509 0.672603 0.071375
C3    C     C_R   0.961990 0.505585 0.674604 0.052676
C4    C     C_R   0.677322 0.505384 0.963683 0.031502
C5    C     C_R   0.998527 0.592526 0.300792 -0.139026
C6    C     C_R   0.210094 0.410644 0.904583 0.035464
C7    C     C_R   0.296898 0.803609 0.205260 -0.142760
C8    C     C_R   0.976516 0.254765 0.069274 -0.145421
C9    C     C_R   0.066519 0.251051 0.976589 -0.137577
C10   C     C_R   0.209717 0.804080 0.300267 -0.127653
C11   C     C_R   0.906711 0.409426 0.210670 -0.153334
C12   C     C_R   0.776866 0.236309 0.684853 -0.136266
C13   C     C_R   0.298352 0.593578 0.995568 -0.160554
C14   C     C_R   0.938090 0.501707 0.304443 0.082668
C15   C     C_R   0.302394 0.503993 0.935053 -0.000253
C16   C     C_R   0.300711 0.867245 0.299027 0.072315
C17   C     C_R   0.050826 0.226116 0.054416 0.075861
C18   C     C_3   0.483609 0.425834 0.831219 -0.468789
C19   C     C_3   0.379674 0.429674 0.821466 -0.136319
C20   C     C_3   0.551663 0.477508 0.031719 -0.406354
C21   C     C_3   0.592040 0.624251 0.975181 -0.496192
C22   C     C_3   0.578112 0.508480 0.949934 0.369897
C23   C     C_R   0.029076 0.594911 0.779214 -0.187360
C24   C     C_3   0.402204 0.508390 0.936998 0.273410
C25   C     C_3   0.442948 0.465930 0.015410 -0.454176
C26   C     C_3   0.493736 0.628965 0.980854 0.060021
C27   C     C_R   0.574243 0.106104 0.470365 0.112257
C28   C     C_R   0.574881 0.143780 0.569849 0.036461
C29   C     C_R   0.475562 0.121788 0.567132 -0.201691
C30   C     C_R   0.378870 0.040189 0.470122 -0.206886
C31   C     C_R   0.382780 0.982031 0.376932 0.047683
C32   C     C_R   0.478863 0.028072 0.374217 0.139972
C33   C     C_3   0.534084 0.976683 0.326313 -0.600908
C34   C     C_R   0.685331 0.411112 0.945337 -0.139941
C35   C     C_3   0.638541 0.061027 0.432664 -0.184213
C36   C     C_R   0.938343 0.603178 0.474839 0.146158
C37   C     C_R   0.900640 0.503954 0.383287 0.039960
C38   C     C_R   0.836612 0.405865 0.377906 -0.219681
C39   C     C_R   0.839895 0.408249 0.473616 -0.183063
C40   C     C_R   0.909593 0.508099 0.573741 -0.003743
C41   C     C_R   0.937837 0.606066 0.568107 0.144937
C42   C     C_3   0.033355 0.721989 0.638782 -0.004838
C43   C     C_3   0.037767 0.713424 0.536192 -0.658715
C44   C     C_R   0.058257 0.036854 0.165010 0.160835
C45   C     C_R   0.953694 0.412736 0.684449 0.038393
C46   C     C_R   0.104401 0.987889 0.112143 0.032756
C47   C     C_R   0.172039 0.049657 0.083374 -0.206867
C48   C     C_R   0.168560 0.142005 0.080482 -0.197970
C49   C     C_R   0.096500 0.171221 0.105123 0.031679
C50   C     C_R   0.053852 0.127087 0.161111 0.162890
C51   C     C_3   0.943688 0.086765 0.150737 -0.521158
C52   C     C_3   0.948955 0.988763 0.155690 -0.527991
C53   C     C_R   0.780144 0.595603 0.032278 -0.145222
C54   C     C_R   0.685364 0.229845 0.775322 -0.128788
C55   C     C_R   0.096242 0.806910 0.008000 -0.145174
C56   C     C_R   0.067285 0.870366 0.070721 0.087694
H1    H     H_    0.987237 0.832520 0.163099 0.096619
H2    H     H_    0.341746 0.831429 0.167346 0.108448
H3    H     H_    0.949677 0.252230 0.127304 0.111109
H4    H     H_    0.120703 0.240982 0.947582 0.093548
H5    H     H_    0.179817 0.832282 0.354036 0.083780
H6    H     H_    0.845611 0.325717 0.178679 0.087554
H7    H     H_    0.347172 0.678876 0.020567 0.130611
H8    H     H_    0.468579 0.340712 0.809540 0.146698
H9    H     H_    0.505129 0.445220 0.772603 0.162978
H10   H     H_    0.795903 0.221725 0.620885 0.125108
H11   H     H_    0.318822 0.344120 0.791439 0.143607
H12   H     H_    0.548420 0.398329 0.021078 0.158326
H13   H     H_    0.384356 0.377533 0.980733 0.162405
H14   H     H_    0.665779 0.689288 0.054462 0.167452
H15   H     H_    0.601424 0.643231 0.911368 0.151967
H16   H     H_    0.461409 0.660393 0.926820 0.114806
H17   H     H_    0.616203 0.542146 0.117284 0.160770
H18   H     H_    0.450206 0.511004 0.096052 0.167413
H19   H     H_    0.472111 0.157634 0.641045 0.121007
H20   H     H_    0.055274 0.680171 0.804808 0.127128
H21   H     H_    0.304371 0.013810 0.473112 0.121880
H22   H     H_    0.508221 0.890799 0.310630 0.210608
H23   H     H_    0.533407 0.989007 0.256400 0.194115
H24   H     H_    0.700225 0.119277 0.424133 0.146317
H25   H     H_    0.795872 0.326502 0.305422 0.125603
H26   H     H_    0.800590 0.330630 0.470857 0.136541
H27   H     H_    0.108430 0.734884 0.701726 0.112353
H28   H     H_    0.022839 0.773018 0.512612 0.195597
H29   H     H_    0.619570 0.329047 0.908907 0.080506
H30   H     H_    0.109413 0.708064 0.535998 0.195501
H31   H     H_    0.216339 0.019793 0.049871 0.122417
H32   H     H_    0.210728 0.179899 0.045232 0.122633
H33   H     H_    0.944458 0.141630 0.223180 0.191079
H34   H     H_    0.878673 0.062482 0.069933 0.200195
H35   H     H_    0.953413 0.987569 0.231310 0.188484
H36   H     H_    0.886899 0.910152 0.077997 0.201201
H37   H     H_    0.806078 0.682187 0.068168 0.094595
H38   H     H_    0.621421 0.203174 0.793833 0.084839
H39   H     H_    0.158698 0.836917 0.987950 0.079784
H40   H     H_    0.020197 0.676757 0.348639 0.104124
N1    N     N_R   0.995640 0.706130 0.053910 -0.035329
N2    N     N_R   0.153680 0.443190 0.946090 -0.052090
N3    N     N_R   0.208920 0.706140 0.152110 -0.038282
N4    N     N_R   0.947120 0.293870 0.002870 -0.040898
N5    N     N_R   0.004360 0.293870 0.946090 -0.044462
N6    N     N_R   0.151690 0.706140 0.208890 -0.038723
N7    N     N_R   0.945990 0.443210 0.152110 -0.038918
N8    N     N_R   0.210060 0.556810 0.002870 -0.044367
N9    N     N_R   0.848310 0.293860 0.791110 -0.044836
N10   N     N_R   0.054010 0.556790 0.847890 -0.042319
N11   N     N_R   0.789940 0.443190 0.997130 -0.034237
N12   N     N_R   0.997630 0.443170 0.791110 -0.051558
N13   N     N_R   0.846320 0.556810 0.053910 -0.036562
N14   N     N_R   0.791080 0.293860 0.847890 -0.038301
N15   N     N_R   0.052880 0.706130 0.997130 -0.033658
N16   N     N_R   0.002370 0.556830 0.208890 -0.040283
Ni1   Ni    Ni4+2 0.999010 0.630300 0.130220 0.203628
Ni2   Ni    Ni4+2 0.000990 0.369700 0.869780 0.202580
Ni3   Ni    Ni4+2 0.130280 0.630280 0.000000 0.201782
Ni4   Ni    Ni4+2 0.869720 0.369720 0.000000 0.208436
N17   N     N_3   0.162770 0.303746 0.813526 -0.229187
H41   H     H_    0.196715 0.260968 0.841657 0.065472
H42   H     H_    0.079960 0.260487 0.785995 0.102783
N18   N     N_3   0.337191 0.461582 0.740420 -0.217923
H43   H     H_    0.307123 0.397321 0.662567 0.111015
H44   H     H_    0.399801 0.530479 0.751976 0.110007
N19   N     N_2   0.528715 0.705378 0.093522 -0.105327
H45   H     H_    0.568511 0.689482 0.152240 0.188519
C57   C     C_3   0.580327 0.821340 0.125567 -1.014899
H46   H     H_    0.614364 0.871817 0.214809 0.264963
H47   H     H_    0.520276 0.840292 0.081300 0.253282
H48   H     H_    0.647988 0.844576 0.107890 0.264714
N20   N     N_3   0.681045 0.011351 0.493887 -0.208549
H49   H     H_    0.706923 0.965457 0.450424 0.118033
H50   H     H_    0.619772 0.956755 0.498863 0.137487
N21   N     N_2   0.002228 0.803440 0.677772 -0.090221
H51   H     H_    0.055382 0.881399 0.697180 0.177951
C58   C     C_3   0.969019 0.804896 0.758412 -0.925732
H52   H     H_    0.928353 0.854833 0.764338 0.254072
H53   H     H_    0.041182 0.844112 0.839325 0.240814
H54   H     H_    0.910884 0.720374 0.735190 0.260692
N22   N     N_3   0.942736 0.317722 0.603746 -0.240780
H55   H     H_    0.998520 0.345702 0.578773 0.113555
H56   H     H_    0.967097 0.275363 0.641333 0.094128

loop_
_geom_bond_atom_site_label_1
_geom_bond_atom_site_label_2
_ccdc_geom_bond_type
C21   C26   S    
C43   H28   S    
C4    C53   A    
C26   H16   S    
C41   C42   S    
C3    C23   A    
N4    Ni4   S    
C23   H20   S    
C55   C56   A    
C11   H6    S    
C2    C12   A    
C58   H54   S    
N19   H45   S    
C16   C31   S    
C29   C30   A    
C7    N3    A    
C21   H15   S    
C34   N11   A    
C6    N2    A    
C28   C29   A    
C1    C56   A    
C24   C26   S    
C18   C19   S    
N17   H42   S    
C51   H34   S    
N3    Ni3   S    
C38   C39   A    
N1    N15   A    
C11   C14   A    
N2    N8    A    
C33   H22   S    
N19   C57   S    
C20   C25   S    
C53   N13   A    
C35   H24   S    
C54   N14   A    
C25   H18   S    
N12   Ni2   S    
N4    N5    A    
C6    C15   A    
C30   H21   S    
C31   C32   A    
N18   H44   S    
N21   H51   S    
C57   H48   S    
C48   H32   S    
C19   H11   S    
C35   N20   S    
C7    H2    S    
C45   N12   A    
N13   Ni1   S    
C44   C52   S    
C21   C22   S    
N5    Ni2   S    
N11   N13   A    
C36   C41   A    
N16   Ni1   S    
C44   C46   A    
N15   Ni3   S    
C4    C34   A    
C53   H37   S    
C51   C52   S    
N9    Ni2   S    
C10   N6    A    
C24   C25   S    
C55   H39   S    
C2    C54   A    
C1    N1    A    
C39   C40   A    
C33   H23   S    
C58   H53   S    
C27   C35   S    
C23   N10   A    
C12   H10   S    
C3    C45   A    
N7    N16   A    
C18   H9    S    
C34   H29   S    
C47   H31   S    
C37   C38   A    
C1    H1    S    
N8    Ni3   S    
C4    C22   S    
C47   C48   A    
C13   H7    S    
C30   C31   A    
C50   C51   S    
C15   C24   S    
C13   N8    A    
C5    C14   A    
N22   H56   S    
N21   C58   S    
C9    C17   A    
C40   C41   A    
C20   C22   S    
C3    C40   S    
C13   C15   A    
C38   H25   S    
C57   H46   S    
C52   H36   S    
C10   H5    S    
C25   H13   S    
C42   C43   S    
C17   C49   S    
N14   Ni4   S    
C5    H40   S    
N18   H43   S    
N20   H49   S    
C44   C50   A    
C46   C47   A    
C36   C37   A    
C6    N17   S    
C55   N15   A    
C27   C32   A    
C18   C22   S    
C43   H30   S    
C20   H12   S    
C7    C16   A    
C42   H27   S    
C39   H26   S    
C52   H35   S    
C19   N18   S    
C42   N21   S    
C58   H52   S    
C29   H19   S    
C5    N16   A    
C11   N7    A    
N10   Ni3   S    
C8    C17   A    
N9    N14   A    
C21   H14   S    
C9    H4    S    
C32   C33   S    
C19   C24   S    
C8    N4    A    
C8    H3    S    
N6    Ni1   S    
C10   C16   A    
N17   H41   S    
C51   H33   S    
C14   C37   S    
C18   H8    S    
C12   N9    A    
N10   N12   A    
C48   C49   A    
C45   N22   S    
C33   C35   S    
C20   H17   S    
N7    Ni4   S    
N11   Ni4   S    
C54   H38   S    
N2    Ni2   S    
N22   H55   S    
N3    N6    A    
C9    N5    A    
C49   C50   A    
C26   N19   S    
C46   C56   S    
C27   C28   A    
C57   H47   S    
C36   C43   S    
C2    C28   S    
N1    Ni1   S    
N20   H50   S    
