data_mof_unit_39495.cif
_audit_creation_date              2012-12-11T14:52:56-0500
_audit_creation_method            fapswitch 2.2
_symmetry_space_group_name_H-M    P1
_symmetry_Int_Tables_number       1
_space_group_crystal_system       triclinic
_cell_length_a                    8.25223
_cell_length_b                    15.115898
_cell_length_c                    26.953696
_cell_angle_alpha                 97.021087
_cell_angle_beta                  93.207655
_cell_angle_gamma                 80.31663
_cell_volume                      3287.29045468

loop_
_atom_site_label
_atom_site_type_symbol
_atom_type_description
_atom_site_fract_x
_atom_site_fract_y
_atom_site_fract_z
_atom_type_partial_charge
Ba1   Ba    Ba6+2 0.860900 0.457020 0.523210 1.636918
Ba2   Ba    Ba6+2 0.328940 0.542910 0.476780 1.638723
C1    C     C_3   0.759379 0.139679 0.662416 -0.373030
C2    C     C_R   0.892670 0.587833 0.176863 0.573938
C3    C     C_2   0.750053 0.558150 0.271974 -0.089152
C4    C     C_3   0.263032 0.238315 0.651583 0.298623
C5    C     C_3   0.728478 0.588616 0.326979 -0.050030
C6    C     C_1   0.984402 0.486356 0.342903 0.041312
C7    C     C_2   0.025453 0.482523 0.295176 -0.109726
C8    C     C_2   0.900364 0.517485 0.255891 0.188324
C9    C     C_R   0.021123 0.507205 0.101109 -0.079927
C10   C     C_R   0.071257 0.431702 0.127487 -0.036734
C11   C     C_R   0.162046 0.353965 0.102415 -0.059241
C12   C     C_3   0.736742 0.228163 0.639480 0.339119
C13   C     C_R   0.930590 0.585413 0.126136 -0.025307
C14   C     C_2   0.844469 0.532661 0.360309 -0.286762
C15   C     C_2   0.369057 0.496174 0.641526 -0.306103
C16   C     C_3   0.271801 0.210550 0.704057 -0.349296
C17   C     C_R   0.200979 0.424874 0.974290 0.019650
C18   C     C_R   0.041648 0.577786 0.971882 0.020575
C19   C     C_R   0.141505 0.500374 0.947739 0.050463
C20   C     C_R   0.304004 0.350787 0.948773 -0.099210
C21   C     C_R   0.344759 0.350343 0.899165 -0.060758
C22   C     C_R   0.284822 0.423554 0.872311 -0.031874
C23   C     C_3   0.485356 0.690767 0.629208 0.303355
C24   C     C_R   0.182560 0.498610 0.896490 -0.077903
C25   C     C_R   0.121937 0.572153 0.869474 -0.033304
C26   C     C_R   0.164542 0.570044 0.819063 0.587587
C27   C     C_R   0.325718 0.423187 0.821811 0.587250
C28   C     C_3   0.226121 0.264286 0.413182 0.297737
C29   C     C_2   0.468591 0.482903 0.730620 -0.069435
C30   C     C_3   0.514955 0.493121 0.677944 -0.044373
C31   C     C_1   0.217648 0.522446 0.657115 0.037474
C32   C     C_2   0.177442 0.515289 0.703354 -0.090636
C33   C     C_2   0.308629 0.495633 0.743417 0.205827
C34   C     C_3   0.474034 0.726007 0.684455 -0.375371
C35   C     C_R   0.156738 0.426067 0.025157 0.019648
C36   C     C_R   0.061324 0.504689 0.049710 0.050399
C37   C     C_R   0.005733 0.581021 0.023483 0.019956
C38   C     C_R   0.204086 0.351119 0.052672 -0.098793
C39   C     C_R   0.880364 0.660747 0.100160 -0.055560
C40   C     C_3   0.253674 0.162272 0.396900 -0.132145
C41   C     C_R   0.980395 0.649556 0.943186 -0.099994
C42   C     C_R   0.019925 0.646727 0.893399 -0.061708
C43   C     C_R   0.916737 0.658775 0.050233 -0.102764
C44   C     C_R   0.746680 0.765067 0.475630 -0.284925
C45   C     C_3   0.023821 0.736505 0.340753 0.323515
C46   C     C_R   0.834210 0.824902 0.457979 0.011418
C47   C     C_R   0.771747 0.917754 0.462760 -0.133118
C48   C     C_R   0.623455 0.952465 0.488097 0.018036
C49   C     C_R   0.545836 0.889768 0.509056 -0.111375
C50   C     C_R   0.607330 0.797675 0.502884 0.045193
C51   C     C_R   0.405472 0.085498 0.520338 -0.150425
C52   C     C_3   0.970599 0.731448 0.580496 0.308264
C53   C     C_R   0.351255 0.178136 0.531732 -0.016120
C54   C     C_R   0.584455 0.210131 0.491563 0.098795
C55   C     C_R   0.641267 0.117603 0.480434 -0.157869
C56   C     C_3   0.027955 0.763198 0.287967 -0.075601
C57   C     C_R   0.557172 0.052609 0.496663 0.010198
C58   C     C_R   0.448472 0.239882 0.520610 -0.107286
C59   C     C_3   0.935406 0.833519 0.593573 -0.383713
C60   C     C_3   0.697761 0.346030 0.374478 0.289227
C61   C     C_3   0.702848 0.323671 0.317966 -0.361914
C62   C     C_3   0.477015 0.783631 0.361647 0.351786
C63   C     C_3   0.420692 0.874032 0.341588 -0.362011
C64   C     C_R   0.028712 0.435110 0.178241 0.598574
H1    H     H_    0.858492 0.238811 0.628487 0.120800
H2    H     H_    0.844221 0.142938 0.695823 0.137040
H3    H     H_    0.806083 0.268049 0.308074 0.129031
H4    H     H_    0.720440 0.383734 0.300398 0.072199
H5    H     H_    0.585249 0.302638 0.303023 0.135248
H6    H     H_    0.654629 0.222482 0.605638 0.001485
H7    H     H_    0.812495 0.083286 0.634648 0.089267
H8    H     H_    0.361710 0.677491 0.615099 0.030918
H9    H     H_    0.576107 0.627390 0.624953 0.031951
H10   H     H_    0.424275 0.677884 0.705029 0.078336
H11   H     H_    0.597901 0.734838 0.700585 0.126899
H12   H     H_    0.315598 0.147731 0.360538 0.133163
H13   H     H_    0.639094 0.126406 0.673647 0.113960
H14   H     H_    0.368101 0.241651 0.726752 0.157596
H15   H     H_    0.111188 0.672493 0.343201 0.075051
H16   H     H_    0.897876 0.725175 0.347438 -0.065593
H17   H     H_    0.142723 0.790040 0.283388 0.143301
H18   H     H_    0.029213 0.702121 0.260650 0.114317
H19   H     H_    0.434495 0.788838 0.400462 0.079408
H20   H     H_    0.477958 0.927278 0.364802 0.073365
H21   H     H_    0.222201 0.312655 0.653914 0.042273
H22   H     H_    0.458248 0.870138 0.302353 0.118737
H23   H     H_    0.856072 0.706520 0.567081 0.005345
H24   H     H_    0.150695 0.455811 0.284630 0.135959
H25   H     H_    0.201860 0.294349 0.121331 0.122858
H26   H     H_    0.566086 0.472420 0.759075 0.100678
H27   H     H_    0.424448 0.291696 0.881808 0.120933
H28   H     H_    0.357820 0.291893 0.966265 0.069375
H29   H     H_    0.272585 0.288094 0.036703 0.069805
H30   H     H_    0.652014 0.581079 0.245718 0.122138
H31   H     H_    0.899056 0.709208 0.957771 0.069630
H32   H     H_    0.388079 0.220425 0.636441 -0.011197
H33   H     H_    0.969535 0.703964 0.873569 0.122118
H34   H     H_    0.060977 0.715256 0.550538 0.077418
H35   H     H_    0.049265 0.527535 0.713084 0.124813
H36   H     H_    0.874853 0.720585 0.034029 0.070478
H37   H     H_    0.826705 0.546881 0.400253 0.081961
H38   H     H_    0.394967 0.494649 0.602400 0.091372
H39   H     H_    0.324674 0.041433 0.529526 0.087175
H40   H     H_    0.844563 0.960844 0.448235 0.078838
H41   H     H_    0.442457 0.910394 0.532790 0.074695
H42   H     H_    0.151389 0.233320 0.721860 0.127868
H43   H     H_    0.795835 0.693657 0.472541 0.061241
H44   H     H_    0.304018 0.135943 0.702643 0.115692
H45   H     H_    0.837627 0.851842 0.621435 0.134734
H46   H     H_    0.346784 0.285707 0.422349 -0.019903
H47   H     H_    0.149230 0.279820 0.446653 0.040197
H48   H     H_    0.336195 0.126838 0.424423 0.054609
H49   H     H_    0.046166 0.135835 0.426994 0.200215
H50   H     H_    0.017843 0.161972 0.367584 0.214988
H51   H     H_    0.390497 0.791994 0.689163 0.135854
H52   H     H_    0.883212 0.887018 0.303865 0.197307
H53   H     H_    0.778663 0.803959 0.279411 0.203569
H54   H     H_    0.613780 0.770993 0.362250 -0.069165
H55   H     H_    0.285103 0.893001 0.342951 0.160981
H56   H     H_    0.894316 0.867183 0.559801 0.065166
H57   H     H_    0.811863 0.722449 0.118475 0.128669
H58   H     H_    0.748630 0.098755 0.458178 0.076559
H59   H     H_    0.313495 0.364881 0.517327 0.204625
H60   H     H_    0.391762 0.341165 0.576673 0.142017
H61   H     H_    0.048769 0.858403 0.609455 0.126299
H62   H     H_    0.817454 0.363713 0.388934 0.014372
H63   H     H_    0.598795 0.404525 0.383132 0.081429
N1    N     N_R   0.940906 0.513043 0.202928 -0.422227
N2    N     N_R   0.265101 0.495859 0.795454 -0.424255
N3    N     N_3   0.099237 0.126134 0.392017 -0.488536
N4    N     N_3   0.886271 0.830896 0.276854 -0.468666
N5    N     N_3   0.411793 0.333614 0.538415 -0.446850
O1    O     O_2   0.905540 0.548000 0.618290 -0.469971
O2    O     O_2   0.171602 0.823061 0.469072 -0.481486
O3    O     O_3   0.071339 0.805037 0.375621 -0.604178
O4    O     O_3   0.137550 0.547930 0.558110 -0.498530
O5    O     O_3   0.574690 0.391440 0.474610 -0.467543
O6    O     O_2   0.341330 0.720570 0.525000 -0.463159
O7    O     O_3   0.537015 0.755974 0.603878 -0.641420
O8    O     O_2   0.408447 0.540253 0.322724 -0.497482
O9    O     O_3   0.410146 0.715046 0.331163 -0.598412
O10   O     O_2   0.068112 0.368044 0.200046 -0.595616
O11   O     O_2   0.414847 0.357782 0.801309 -0.604964
O12   O     O_3   0.667479 0.270195 0.395231 -0.644003
O13   O     O_2   0.817375 0.657588 0.197873 -0.612565
O14   O     O_2   0.114020 0.635186 0.796479 -0.599889
O15   O     O_3   0.688580 0.383890 0.587540 -0.465472
O16   O     O_2   0.856160 0.419724 0.672402 -0.494875
O17   O     O_3   0.032215 0.692680 0.623583 -0.625526
O18   O     O_3   0.666966 0.299145 0.674392 -0.607712
O19   O     O_2   0.848360 0.279400 0.474970 -0.468907
O20   O     O_3   0.104690 0.337720 0.562900 -0.487940
O21   O     O_2   0.010730 0.177721 0.532893 -0.491483
O22   O     O_3   0.151647 0.192159 0.621883 -0.603454
O23   O     O_2   0.284150 0.451970 0.381680 -0.460629
O24   O     O_3   0.052160 0.451990 0.441880 -0.501462
O25   O     O_3   0.501140 0.616030 0.412450 -0.477116
O26   O     O_3   0.150195 0.307972 0.373212 -0.630590
O27   O     O_3   0.615020 0.608480 0.525380 -0.475953
O28   O     O_3   0.085020 0.662210 0.437090 -0.491260
P1    P     P_3+3 0.070480 0.574800 0.610950 0.996068
P2    P     P_3+3 0.668430 0.292880 0.460530 0.996215
P3    P     P_3+3 0.152876 0.220116 0.560928 0.935724
P4    P     P_3+3 0.119230 0.425130 0.389040 0.989023
P5    P     P_3+3 0.041213 0.779551 0.435541 0.950791
P6    P     P_3+3 0.682826 0.402237 0.652980 0.970650
P7    P     P_3+3 0.527332 0.721994 0.539533 0.951825
P8    P     P_3+3 0.511905 0.611061 0.347657 0.942975

loop_
_geom_bond_atom_site_label_1
_geom_bond_atom_site_label_2
_ccdc_geom_bond_type
H59   N5    S    
C19   C24   A    
C29   H26   S    
O6    P7    D    
O25   P8    S    
C33   N2    S    
C1    H2    S    
C1    H13   S    
Ba2   O28   S    
C51   C57   A    
C63   H20   S    
C28   O26   S    
C24   C25   A    
H53   N4    S    
C48   C57   S    
C4    H32   S    
Ba1   O24   S    
C17   C19   A    
C15   H38   S    
C22   C24   A    
C23   H8    S    
C35   C38   A    
C34   H11   S    
C27   O11   D    
C36   C37   A    
C42   H33   S    
C55   C57   A    
C64   O10   D    
C44   C50   A    
C54   C55   A    
C32   C33   S    
C45   H16   S    
C22   C27   A    
C11   C38   A    
C34   H10   S    
C9    C13   A    
C25   C42   A    
C40   H48   S    
C61   H3    S    
Ba1   P2    S    
Ba2   O25   S    
C12   H1    S    
O20   P3    S    
Ba1   O15   S    
O4    P1    S    
O26   P4    S    
C17   C35   A    
C7    C8    S    
Ba2   P4    S    
Ba1   O5    S    
Ba2   O24   S    
C37   C43   A    
O27   P7    S    
Ba1   O27   S    
C6    C14   D    
C53   C58   A    
C11   H25   S    
C20   H28   S    
C60   H63   S    
C52   H34   S    
O15   P6    S    
C15   C31   D    
Ba2   O27   S    
O18   P6    S    
C48   C49   A    
O23   P4    D    
H49   N3    S    
C51   C53   A    
C56   N4    S    
C4    C16   S    
C44   C46   A    
C26   O14   D    
C32   H35   S    
O19   P2    D    
C49   C50   A    
Ba2   O4    S    
C41   H31   S    
C17   C20   A    
C13   C39   A    
C52   H23   S    
C3    C5    S    
C18   C37   A    
C6    C7    D    
C2    N1    Am   
C2    O13   D    
C10   C64   A    
C4    H21   S    
C21   H27   S    
C28   H46   S    
C59   H56   S    
C23   H9    S    
C50   P7    S    
C9    C36   A    
C41   C42   A    
C8    N1    S    
C35   C36   A    
C56   H18   S    
C14   H37   S    
C29   C30   S    
H50   N3    S    
C61   H4    S    
C21   C22   A    
O16   P6    D    
C45   O3    S    
C60   C61   S    
O7    P7    S    
C31   C32   D    
C59   H61   S    
C18   C19   A    
Ba1   O19   S    
C34   H51   S    
H52   N4    S    
H60   N5    S    
C52   O17   S    
C1    C12   S    
C6    P4    S    
C49   H41   S    
C46   C47   A    
C52   C59   S    
C61   H5    S    
C40   H12   S    
C63   H55   S    
C30   P6    S    
C29   C33   D    
C5    P8    S    
Ba2   O5    S    
C38   H29   S    
C59   H45   S    
C58   N5    S    
C62   H19   S    
O3    P5    S    
C3    H30   S    
O24   P4    S    
C63   H22   S    
O1    P1    D    
C5    C14   S    
C39   C43   A    
C31   P1    S    
C12   H6    S    
C23   O7    S    
C16   H44   S    
O9    P8    S    
C7    H24   S    
C9    C10   A    
C47   H40   S    
C62   O9    S    
C54   P2    S    
O17   P1    S    
C62   H54   S    
O8    P8    D    
C26   N2    Am   
Ba2   O6    S    
C62   C63   S    
C39   H57   S    
C2    C13   A    
C3    C8    D    
C56   H17   S    
C45   C56   S    
C60   H62   S    
C27   N2    Am   
C46   P5    S    
O12   P2    S    
O22   P3    S    
O21   P3    D    
Ba2   O23   S    
Ba1   Ba2   S    
C45   H15   S    
Ba1   O20   S    
C1    H7    S    
C16   H42   S    
C18   C41   A    
O2    P5    D    
O5    P2    S    
C43   H36   S    
C23   C34   S    
O28   P5    S    
C51   H39   S    
C54   C58   A    
C10   C11   A    
Ba1   P1    S    
C16   H14   S    
C47   C48   A    
C60   O12   S    
C44   H43   S    
C12   O18   S    
C25   C26   A    
C15   C30   S    
C53   P3    S    
C20   C21   A    
C28   C40   S    
C40   N3    S    
C64   N1    Am   
Ba1   O1    S    
C4    O22   S    
Ba1   O4    S    
C55   H58   S    
C28   H47   S    
