data_mof_unit_22699.cif
_audit_creation_date              2012-12-10T18:13:18-0500
_audit_creation_method            fapswitch 2.2
_symmetry_space_group_name_H-M    P1
_symmetry_Int_Tables_number       1
_space_group_crystal_system       triclinic
_cell_length_a                    18.37672
_cell_length_b                    18.357742
_cell_length_c                    25.907552
_cell_angle_alpha                 90.343395
_cell_angle_beta                  90.412971
_cell_angle_gamma                 90.110437
_cell_volume                      8739.64342872

loop_
_atom_site_label
_atom_site_type_symbol
_atom_type_description
_atom_site_fract_x
_atom_site_fract_y
_atom_site_fract_z
_atom_type_partial_charge
Br1   Br    Br    0.097190 0.871463 0.438915 -0.483505
Br2   Br    Br    0.426748 0.798843 0.766602 -0.513710
Br3   Br    Br    0.574864 0.794605 0.260525 -0.475842
Br4   Br    Br    0.585598 0.784725 0.700211 -0.529423
Br5   Br    Br    0.722807 0.090934 0.688423 -0.693171
Br6   Br    Br    0.726370 0.121824 0.164453 -0.563304
Br7   Br    Br    0.277668 0.090807 0.690049 -0.579209
Br8   Br    Br    0.293366 0.076333 0.269527 -0.599652
Br9   Br    Br    0.236376 0.602885 0.174592 -0.647125
Br10  Br    Br    0.200585 0.588888 0.708859 -0.558191
Br11  Br    Br    0.794887 0.573332 0.233407 -0.530292
Br12  Br    Br    0.115232 0.888150 0.564564 -0.406946
Br13  Br    Br    0.784139 0.590159 0.802259 -0.667118
Br14  Br    Br    0.410660 0.361708 0.935593 -0.436583
Br15  Br    Br    0.420868 0.355360 0.060900 -0.485079
Br16  Br    Br    0.916907 0.285264 0.795056 -0.533575
Br17  Br    Br    0.908120 0.298983 0.299349 -0.478009
Br18  Br    Br    0.104425 0.263189 0.826498 -0.540253
Br19  Br    Br    0.073529 0.292994 0.228752 -0.507944
Br20  Br    Br    0.405384 0.773420 0.317419 -0.532720
C1    C     C_R   0.861384 0.142370 0.248017 0.876113
C2    C     C_R   0.813381 0.261878 0.279803 0.230391
C3    C     C_R   0.228486 0.324110 0.240409 0.055226
C4    C     C_3   0.822002 0.036110 0.537067 -0.407403
C5    C     C_3   0.822935 0.988551 0.585845 -0.353633
C6    C     C_3   0.751633 0.946533 0.591323 -0.799417
C7    C     C_3   0.840079 0.100789 0.432991 -0.412481
C8    C     C_3   0.833172 0.027765 0.403458 -0.335835
C9    C     C_3   0.754096 0.011121 0.389197 -0.912895
C10   C     C_3   0.891142 0.149644 0.572717 -0.327007
C11   C     C_3   0.825371 0.201059 0.570121 -0.391056
C12   C     C_3   0.837518 0.269230 0.603109 -0.869595
C13   C     C_R   0.186154 0.258796 0.779993 0.202178
C14   C     C_3   0.940783 0.188405 0.466762 -0.480911
C15   C     C_3   0.983885 0.201748 0.417184 -0.288820
C16   C     C_3   0.009591 0.280791 0.414346 -0.801544
C17   C     C_3   0.478115 0.685726 0.058167 -0.373324
C18   C     C_3   0.398954 0.656499 0.054793 -0.320754
C19   C     C_3   0.343814 0.716694 0.064844 -0.866547
C20   C     C_3   0.495210 0.693666 0.942530 -0.407822
C21   C     C_3   0.528027 0.770970 0.941311 -0.391411
C22   C     C_3   0.472450 0.826357 0.921999 -0.827445
C23   C     C_3   0.612874 0.644303 0.063164 -0.411970
C24   C     C_R   0.174734 0.269460 0.241776 0.186484
C25   C     C_3   0.639581 0.723476 0.069683 -0.377742
C26   C     C_3   0.714121 0.726379 0.095828 -0.856678
C27   C     C_3   0.622504 0.634462 0.946433 -0.394809
C28   C     C_3   0.663999 0.561117 0.948541 -0.354603
C29   C     C_3   0.746211 0.573049 0.947315 -0.814714
C30   C     C_3   0.275170 0.885939 0.308840 -0.342632
C31   C     C_3   0.263764 0.875876 0.366813 -0.340905
C32   C     C_3   0.264878 0.948908 0.395329 -0.747025
C33   C     C_3   0.295936 0.905452 0.762457 -0.283948
C34   C     C_3   0.304361 0.923528 0.820306 -0.318387
C35   C     C_R   0.315400 0.760643 0.279307 0.184046
C36   C     C_3   0.330332 0.001369 0.828712 -0.834525
C37   C     C_3   0.704723 0.902492 0.253171 -0.353671
C38   C     C_3   0.677747 0.925281 0.199113 -0.261731
C39   C     C_3   0.615229 0.979418 0.202286 -0.814283
C40   C     C_3   0.703497 0.901803 0.737697 -0.334847
C41   C     C_3   0.666388 0.921067 0.789008 -0.304625
C42   C     C_3   0.642295 0.000376 0.791243 -0.791043
C43   C     C_3   0.796701 0.400012 0.762282 -0.311584
C44   C     C_3   0.830087 0.414598 0.708910 -0.320096
C45   C     C_3   0.855008 0.492992 0.702582 -0.801204
C46   C     C_R   0.325722 0.771604 0.756258 0.204251
C47   C     C_3   0.754830 0.349465 0.342248 -0.304445
C48   C     C_3   0.769518 0.301540 0.389757 -0.420543
C49   C     C_3   0.767841 0.346575 0.439481 -0.877173
C50   C     C_3   0.226380 0.383745 0.810745 -0.364676
C51   C     C_3   0.166807 0.431444 0.786978 -0.284845
C52   C     C_3   0.151997 0.498161 0.820694 -0.814974
C53   C     C_3   0.206328 0.401319 0.225390 -0.343674
C54   C     C_3   0.193943 0.408221 0.166788 -0.349394
C55   C     C_3   0.265128 0.406567 0.136771 -0.718445
C56   C     C_3   0.127673 0.735887 0.178270 -0.373124
C57   C     C_R   0.676473 0.768650 0.253112 0.208308
C58   C     C_3   0.154588 0.760581 0.124972 -0.284738
C59   C     C_3   0.120715 0.716051 0.080995 -0.894582
C60   C     C_3   0.106598 0.706658 0.773273 -0.411999
C61   C     C_3   0.111528 0.708673 0.832432 -0.385308
C62   C     C_3   0.041382 0.681581 0.856970 -0.877637
C63   C     C_3   0.904006 0.706223 0.238502 -0.373097
C64   C     C_3   0.936259 0.679932 0.289975 -0.273066
C65   C     C_3   0.016221 0.659303 0.284522 -0.823175
C66   C     C_3   0.898395 0.701607 0.748922 -0.377886
C67   C     C_3   0.907497 0.683543 0.691191 -0.325786
C68   C     C_R   0.677582 0.767037 0.733966 0.207571
C69   C     C_3   0.981205 0.649934 0.678988 -0.814482
C70   C     C_3   0.612372 0.222159 0.694804 -0.377795
C71   C     C_3   0.623948 0.239968 0.637630 -0.330286
C72   C     C_3   0.570208 0.198613 0.603197 -0.880217
C73   C     C_3   0.606046 0.191052 0.243279 -0.395977
C74   C     C_3   0.608737 0.148703 0.294376 -0.407471
C75   C     C_3   0.538265 0.107272 0.304283 -0.843656
C76   C     C_3   0.397967 0.207182 0.726903 -0.386892
C77   C     C_3   0.419195 0.173185 0.779052 -0.275393
C78   C     C_3   0.493516 0.136852 0.778773 -0.881978
C79   C     C_R   0.803839 0.195637 0.749390 -0.164388
C80   C     C_3   0.396590 0.203009 0.228940 -0.379973
C81   C     C_3   0.396978 0.200654 0.169524 -0.282687
C82   C     C_3   0.470800 0.179597 0.147873 -0.787148
C83   C     C_3   0.003381 0.136127 0.059646 -0.415309
C84   C     C_3   0.927028 0.158730 0.077731 -0.362951
C85   C     C_3   0.931284 0.211551 0.123411 -0.735217
C86   C     C_3   0.011735 0.136227 0.943023 -0.377298
C87   C     C_3   0.936728 0.170534 0.932660 -0.328716
C88   C     C_3   0.939895 0.253553 0.935043 -0.771800
C89   C     C_3   0.989591 0.859104 0.058745 -0.415717
C90   C     C_R   0.805101 0.199763 0.247747 -0.212003
C91   C     C_3   0.917729 0.844963 0.087585 -0.323218
C92   C     C_3   0.910208 0.765293 0.103350 -0.952068
C93   C     C_3   0.989578 0.859675 0.939421 -0.398465
C94   C     C_3   0.913712 0.840525 0.917353 -0.338340
C95   C     C_3   0.856998 0.826066 0.958517 -0.812519
C96   C     C_3   0.491250 0.638370 0.557764 -0.412206
C97   C     C_3   0.415514 0.661622 0.576564 -0.386423
C98   C     C_3   0.420898 0.714961 0.621866 -0.706615
C99   C     C_3   0.441038 0.626258 0.445693 -0.376301
C100  C     C_3   0.358668 0.610638 0.445899 -0.339331
C101  C     C_R   0.196550 0.195402 0.750590 -0.168065
C102  C     C_3   0.315258 0.670337 0.419196 -0.791863
C103  C     C_3   0.484003 0.362326 0.554768 -0.433383
C104  C     C_3   0.401030 0.354568 0.560349 -0.337346
C105  C     C_3   0.380460 0.285873 0.589624 -0.843515
C106  C     C_3   0.533785 0.365904 0.442776 -0.432027
C107  C     C_3   0.467037 0.325192 0.421162 -0.331861
C108  C     C_3   0.488848 0.268459 0.380985 -0.900021
C109  C     C_R   0.859877 0.139669 0.749805 0.939522
C110  C     C_R   0.194839 0.196638 0.250097 -0.174578
C111  C     C_R   0.304807 0.696700 0.250296 -0.164010
C112  C     C_R   0.305418 0.698366 0.747267 -0.199268
C113  C     C_R   0.696794 0.695195 0.249637 -0.197682
C114  C     C_R   0.695016 0.696593 0.750223 -0.162197
C115  C     C_R   0.736327 0.181308 0.725841 0.175873
C116  C     C_R   0.737821 0.187795 0.222336 0.214224
C117  C     C_R   0.263104 0.181988 0.726302 0.173512
C118  C     C_R   0.267999 0.176346 0.253813 0.199664
C119  C     C_R   0.243147 0.687811 0.218825 0.196150
C120  C     C_R   0.139622 0.140135 0.250071 0.927854
C121  C     C_R   0.231563 0.680154 0.739245 0.211887
C122  C     C_R   0.770162 0.674963 0.244615 0.178720
C123  C     C_R   0.765848 0.679465 0.765659 0.170906
C124  C     C_R   0.188998 0.741927 0.217808 0.018086
C125  C     C_R   0.178249 0.731696 0.750146 0.059923
C126  C     C_R   0.824674 0.728881 0.244766 0.017565
C127  C     C_R   0.821797 0.729835 0.757335 0.033267
C128  C     C_R   0.681726 0.235105 0.725811 0.038221
C129  C     C_R   0.677603 0.230195 0.235450 0.073525
C130  C     C_R   0.319673 0.233359 0.730826 0.018518
C131  C     C_R   0.140372 0.139540 0.749886 0.963485
C132  C     C_R   0.322291 0.228758 0.246800 0.008424
C133  C     C_R   0.197121 0.804392 0.249706 -0.107380
C134  C     C_R   0.198008 0.805707 0.751383 -0.120771
C135  C     C_R   0.804037 0.803330 0.248966 -0.121474
C136  C     C_R   0.802989 0.803767 0.748594 -0.118781
C137  C     C_R   0.697149 0.304158 0.747985 -0.107872
C138  C     C_R   0.688820 0.296156 0.261806 -0.168600
C139  C     C_R   0.303982 0.303153 0.751530 -0.099332
C140  C     C_R   0.302642 0.303779 0.246267 -0.128771
C141  C     C_R   0.001830 0.065211 0.027766 0.060029
C142  C     C_R   0.360411 0.640890 0.749051 0.888271
C143  C     C_R   0.005026 0.065090 0.973228 0.035527
C144  C     C_R   0.991207 0.929970 0.027157 0.044873
C145  C     C_R   0.992145 0.930148 0.972097 0.110122
C146  C     C_R   0.489610 0.566558 0.527624 0.050935
C147  C     C_R   0.480760 0.564840 0.473456 0.030584
C148  C     C_R   0.501870 0.432924 0.526736 0.050316
C149  C     C_R   0.512191 0.434242 0.472775 0.051870
C150  C     C_R   0.999757 0.997898 0.946277 -0.100490
C151  C     C_R   0.997467 0.997678 0.053799 -0.092722
C152  C     C_R   0.499529 0.500335 0.446359 -0.090747
C153  C     C_R   0.360554 0.640362 0.250429 0.952667
C154  C     C_R   0.498418 0.499875 0.553838 -0.085986
C155  C     C_R   0.140051 0.860037 0.249892 0.800550
C156  C     C_R   0.140549 0.860425 0.750194 0.833163
C157  C     C_R   0.859938 0.859964 0.249766 0.798759
C158  C     C_R   0.859776 0.859899 0.749648 0.786211
C159  C     C_R   0.640295 0.360147 0.749743 0.796060
C160  C     C_R   0.636990 0.356858 0.253945 0.829739
C161  C     C_R   0.359920 0.359916 0.750160 0.797308
C162  C     C_R   0.359588 0.359962 0.249126 0.816519
C163  C     C_R   0.999484 0.998327 0.110076 0.806261
C164  C     C_R   0.639626 0.640178 0.749983 0.944898
C165  C     C_R   0.000055 0.998898 0.889948 0.799530
C166  C     C_R   0.499621 0.499691 0.610064 0.803500
C167  C     C_R   0.500050 0.500463 0.390018 0.805553
C168  C     C_R   0.001455 0.000410 0.389939 0.847593
C169  C     C_R   0.999436 0.999638 0.610276 0.857659
C170  C     C_R   0.497315 0.500342 0.889769 0.854273
C171  C     C_R   0.498203 0.499743 0.110116 0.856207
C172  C     C_R   0.965759 0.053385 0.474444 0.002452
C173  C     C_R   0.958033 0.045419 0.526246 -0.052230
C174  C     C_R   0.511091 0.561623 0.974254 -0.038459
C175  C     C_R   0.640435 0.639518 0.249793 0.935240
C176  C     C_R   0.513867 0.559834 0.026422 -0.049976
C177  C     C_R   0.004445 0.001390 0.445799 -0.207282
C178  C     C_R   0.000886 0.998034 0.554780 -0.191648
C179  C     C_R   0.489691 0.500934 0.945222 -0.212101
C180  C     C_R   0.492409 0.499049 0.054404 -0.211551
C181  C     C_R   0.045577 0.948546 0.473430 0.218726
C182  C     C_R   0.047572 0.950254 0.527881 0.239658
C183  C     C_R   0.460375 0.440237 0.971949 0.233547
C184  C     C_R   0.462774 0.438733 0.026496 0.238470
C185  C     C_3   0.888966 0.088732 0.530319 0.124028
C186  C     C_R   0.820991 0.265707 0.767280 0.184927
C187  C     C_3   0.905757 0.110561 0.471817 0.190667
C188  C     C_3   0.539406 0.637557 0.032670 0.181464
C189  C     C_3   0.544490 0.637050 0.971088 0.184132
C190  C     C_R   0.261720 0.815321 0.279182 0.020226
C191  C     C_R   0.272446 0.826381 0.755286 -0.015145
C192  C     C_R   0.729680 0.823390 0.252195 -0.001527
C193  C     C_R   0.729205 0.823098 0.739435 -0.016345
C194  C     C_R   0.769523 0.321829 0.762953 -0.013909
C195  C     C_R   0.752703 0.304406 0.292346 0.035465
C196  C     C_R   0.238340 0.315053 0.778771 0.022626
H1    H     H_    0.705178 0.984725 0.595204 0.288607
H2    H     H_    0.751258 0.959602 0.366593 0.251630
H3    H     H_    0.201698 0.532397 0.824397 0.262140
H4    H     H_    0.108022 0.530962 0.802825 0.263101
H5    H     H_    0.184261 0.448589 0.748058 0.266027
H6    H     H_    0.115200 0.400712 0.782129 0.269020
H7    H     H_    0.211736 0.368461 0.850787 0.246086
H8    H     H_    0.276668 0.416898 0.814705 0.189456
H9    H     H_    0.303669 0.448442 0.151756 0.263120
H10   H     H_    0.290575 0.352013 0.139737 0.260422
H11   H     H_    0.253929 0.417763 0.095406 0.262232
H12   H     H_    0.157994 0.364041 0.152010 0.251030
H13   H     H_    0.863792 0.031396 0.366826 0.217210
H14   H     H_    0.165833 0.460497 0.158942 0.258554
H15   H     H_    0.155756 0.416678 0.245909 0.223786
H16   H     H_    0.245694 0.443537 0.237747 0.230466
H17   H     H_    0.141136 0.659195 0.082093 0.297995
H18   H     H_    0.060715 0.714967 0.084063 0.264408
H19   H     H_    0.135765 0.740360 0.043396 0.241008
H20   H     H_    0.142068 0.819199 0.119850 0.206857
H21   H     H_    0.214572 0.755485 0.122175 0.245800
H22   H     H_    0.106874 0.679036 0.177089 0.246202
H23   H     H_    0.079647 0.769074 0.189062 0.148693
H24   H     H_    0.855229 0.981306 0.425652 0.216820
H25   H     H_    0.995060 0.716115 0.844795 0.246284
H26   H     H_    0.030215 0.624298 0.845392 0.273826
H27   H     H_    0.046506 0.684416 0.899666 0.254511
H28   H     H_    0.157304 0.673746 0.845653 0.237313
H29   H     H_    0.122094 0.765375 0.845891 0.216549
H30   H     H_    0.061134 0.741305 0.760581 0.213719
H31   H     H_    0.092193 0.650631 0.761055 0.243298
H32   H     H_    0.022855 0.616770 0.254248 0.268652
H33   H     H_    0.048849 0.707942 0.274359 0.268383
H34   H     H_    0.036996 0.637712 0.321744 0.260631
H35   H     H_    0.788981 0.113081 0.453865 0.191440
H36   H     H_    0.931602 0.723501 0.319710 0.247275
H37   H     H_    0.905746 0.631690 0.303844 0.254130
H38   H     H_    0.908600 0.662801 0.208709 0.231701
H39   H     H_    0.937869 0.751043 0.223127 0.184538
H40   H     H_    0.024466 0.691955 0.681562 0.283109
H41   H     H_    0.993457 0.604293 0.705589 0.260646
H42   H     H_    0.980447 0.628313 0.638870 0.259811
H43   H     H_    0.864363 0.644584 0.678907 0.227843
H44   H     H_    0.900600 0.733488 0.667670 0.250427
H45   H     H_    0.939380 0.741641 0.762190 0.191344
H46   H     H_    0.841539 0.143793 0.403143 0.191342
H47   H     H_    0.909394 0.652162 0.771992 0.238140
H48   H     H_    0.579159 0.138994 0.606578 0.289969
H49   H     H_    0.513660 0.211347 0.614657 0.264471
H50   H     H_    0.578392 0.214186 0.562326 0.240145
H51   H     H_    0.617665 0.299528 0.631696 0.205477
H52   H     H_    0.679640 0.224894 0.625603 0.254342
H53   H     H_    0.594918 0.164703 0.699080 0.251168
H54   H     H_    0.566459 0.255243 0.709353 0.175668
H55   H     H_    0.493423 0.146019 0.311709 0.262066
H56   H     H_    0.523581 0.072135 0.270786 0.274063
H57   H     H_    0.847384 0.254099 0.644002 0.283212
H58   H     H_    0.545115 0.072414 0.338846 0.264124
H59   H     H_    0.654447 0.109205 0.293714 0.229345
H60   H     H_    0.618716 0.187090 0.327041 0.222924
H61   H     H_    0.560583 0.230032 0.245077 0.209741
H62   H     H_    0.594860 0.153032 0.210899 0.238693
H63   H     H_    0.499452 0.101279 0.744255 0.270885
H64   H     H_    0.536854 0.178816 0.780155 0.272327
H65   H     H_    0.499558 0.102723 0.813776 0.255425
H66   H     H_    0.418627 0.215436 0.809951 0.257419
H67   H     H_    0.378162 0.131656 0.789231 0.235462
H68   H     H_    0.884843 0.300617 0.588676 0.266079
H69   H     H_    0.404240 0.166940 0.695167 0.243017
H70   H     H_    0.436023 0.251954 0.717512 0.174693
H71   H     H_    0.511524 0.222474 0.157200 0.280044
H72   H     H_    0.488354 0.126252 0.163590 0.246615
H73   H     H_    0.466744 0.174691 0.105212 0.273628
H74   H     H_    0.356017 0.160155 0.155774 0.235006
H75   H     H_    0.381421 0.254407 0.153561 0.261441
H76   H     H_    0.440470 0.237150 0.245357 0.200811
H77   H     H_    0.409938 0.147980 0.242996 0.238295
H78   H     H_    0.958049 0.185015 0.156958 0.255789
H79   H     H_    0.788536 0.304445 0.601154 0.239756
H80   H     H_    0.962542 0.261027 0.112788 0.264751
H81   H     H_    0.875544 0.228110 0.134805 0.265983
H82   H     H_    0.897563 0.185868 0.045719 0.227583
H83   H     H_    0.894247 0.110773 0.089120 0.268017
H84   H     H_    0.040386 0.129292 0.093343 0.208431
H85   H     H_    0.027476 0.182897 0.039492 0.202157
H86   H     H_    0.955050 0.272012 0.974594 0.242472
H87   H     H_    0.980491 0.274530 0.907307 0.316913
H88   H     H_    0.885699 0.276336 0.925053 0.260777
H89   H     H_    0.917056 0.153398 0.893744 0.245152
H90   H     H_    0.813411 0.217270 0.529935 0.210445
H91   H     H_    0.895849 0.151277 0.960827 0.220461
H92   H     H_    0.050283 0.174476 0.961868 0.208926
H93   H     H_    0.038827 0.127719 0.905367 0.211816
H94   H     H_    0.907690 0.729174 0.068869 0.270196
H95   H     H_    0.956812 0.749246 0.128203 0.258330
H96   H     H_    0.859788 0.758062 0.126021 0.267310
H97   H     H_    0.916131 0.876523 0.123857 0.247334
H98   H     H_    0.869982 0.860865 0.064000 0.232665
H99   H     H_    0.001895 0.810506 0.035697 0.216872
H100  H     H_    0.034362 0.861140 0.087561 0.183282
H101  H     H_    0.776725 0.172201 0.584725 0.246324
H102  H     H_    0.806057 0.806068 0.939904 0.234987
H103  H     H_    0.876633 0.783765 0.985590 0.266317
H104  H     H_    0.844353 0.877388 0.979361 0.260896
H105  H     H_    0.893181 0.883942 0.891789 0.249250
H106  H     H_    0.918529 0.790701 0.893187 0.201301
H107  H     H_    0.027129 0.865226 0.906278 0.151152
H108  H     H_    0.012940 0.811552 0.958415 0.180278
H109  H     H_    0.448203 0.688720 0.655304 0.263504
H110  H     H_    0.452088 0.764183 0.610604 0.280324
H111  H     H_    0.365458 0.731862 0.633737 0.253238
H112  H     H_    0.742335 0.910846 0.557120 0.254666
H113  H     H_    0.889883 0.124684 0.611388 0.231548
H114  H     H_    0.385538 0.688804 0.544782 0.232034
H115  H     H_    0.383379 0.613523 0.588820 0.255765
H116  H     H_    0.529072 0.633385 0.591210 0.213815
H117  H     H_    0.516024 0.682430 0.534560 0.198982
H118  H     H_    0.329440 0.724625 0.435565 0.266398
H119  H     H_    0.326283 0.669211 0.377222 0.286332
H120  H     H_    0.256179 0.660651 0.424747 0.254864
H121  H     H_    0.346866 0.558044 0.426159 0.248057
H122  H     H_    0.339224 0.605497 0.486169 0.218766
H123  H     H_    0.451657 0.680003 0.463771 0.206074
H124  H     H_    0.942818 0.180619 0.572724 0.200892
H125  H     H_    0.460201 0.632102 0.405386 0.215254
H126  H     H_    0.399458 0.236708 0.568534 0.264321
H127  H     H_    0.404910 0.287346 0.628877 0.246784
H128  H     H_    0.320388 0.282724 0.593409 0.267981
H129  H     H_    0.378290 0.402161 0.581214 0.253455
H130  H     H_    0.374910 0.352742 0.521568 0.217665
H131  H     H_    0.504339 0.313593 0.534427 0.209605
H132  H     H_    0.510630 0.361454 0.593356 0.191604
H133  H     H_    0.439378 0.239821 0.366581 0.257779
H134  H     H_    0.515922 0.294969 0.347761 0.242390
H135  H     H_    0.962263 0.318348 0.413974 0.277337
H136  H     H_    0.526336 0.227901 0.398393 0.268848
H137  H     H_    0.438253 0.297202 0.452894 0.227762
H138  H     H_    0.428450 0.363876 0.402859 0.234745
H139  H     H_    0.570737 0.380717 0.410815 0.210038
H140  H     H_    0.567703 0.329034 0.466643 0.188340
H141  H     H_    0.045139 0.294267 0.447940 0.245506
H142  H     H_    0.041265 0.288859 0.378475 0.293423
H143  H     H_    0.033118 0.166844 0.417300 0.249044
H144  H     H_    0.950425 0.189446 0.382484 0.275774
H145  H     H_    0.897558 0.230257 0.469627 0.211515
H146  H     H_    0.980695 0.198389 0.498194 0.211083
H147  H     H_    0.351771 0.739768 0.104232 0.279934
H148  H     H_    0.754321 0.911858 0.626244 0.250095
H149  H     H_    0.349446 0.760656 0.035859 0.251466
H150  H     H_    0.288106 0.693616 0.061590 0.271207
H151  H     H_    0.386376 0.631403 0.016766 0.211794
H152  H     H_    0.390792 0.613517 0.084146 0.255176
H153  H     H_    0.490160 0.692488 0.100028 0.232839
H154  H     H_    0.480587 0.741554 0.042467 0.196663
H155  H     H_    0.452184 0.810574 0.883056 0.293332
H156  H     H_    0.425794 0.829654 0.948942 0.249596
H157  H     H_    0.498285 0.880955 0.919611 0.253320
H158  H     H_    0.547298 0.788316 0.980032 0.213762
H159  H     H_    0.867119 0.947778 0.582998 0.222108
H160  H     H_    0.575545 0.771985 0.915042 0.227680
H161  H     H_    0.487056 0.676949 0.901876 0.252312
H162  H     H_    0.439966 0.695894 0.958778 0.209166
H163  H     H_    0.712131 0.699878 0.134207 0.274896
H164  H     H_    0.755167 0.698435 0.071492 0.264688
H165  H     H_    0.730861 0.784094 0.101300 0.247402
H166  H     H_    0.643458 0.750911 0.031891 0.212077
H167  H     H_    0.601063 0.754987 0.093897 0.230852
H168  H     H_    0.606199 0.621768 0.102387 0.231930
H169  H     H_    0.656293 0.611247 0.045578 0.214495
H170  H     H_    0.831690 0.021625 0.621173 0.239752
H171  H     H_    0.761230 0.607499 0.914010 0.298101
H172  H     H_    0.764812 0.600401 0.983441 0.245308
H173  H     H_    0.774326 0.519771 0.943871 0.264315
H174  H     H_    0.651041 0.529212 0.983493 0.221014
H175  H     H_    0.647992 0.527158 0.914652 0.227202
H176  H     H_    0.617946 0.648253 0.904780 0.218144
H177  H     H_    0.656269 0.678533 0.963515 0.200850
H178  H     H_    0.317468 0.977288 0.388955 0.270800
H179  H     H_    0.219553 0.983972 0.381623 0.263932
H180  H     H_    0.258359 0.939740 0.437368 0.274165
H181  H     H_    0.770923 0.068213 0.536198 0.206697
H182  H     H_    0.210866 0.848454 0.372765 0.269838
H183  H     H_    0.306687 0.840717 0.383545 0.256789
H184  H     H_    0.331115 0.906209 0.301447 0.262303
H185  H     H_    0.238620 0.929792 0.295258 0.226830
H186  H     H_    0.384609 0.008591 0.810879 0.271788
H187  H     H_    0.290763 0.040126 0.811574 0.288687
H188  H     H_    0.335199 0.012922 0.870712 0.247933
H189  H     H_    0.251864 0.916060 0.840526 0.239774
H190  H     H_    0.344323 0.886251 0.838581 0.237894
H191  H     H_    0.347747 0.916136 0.742104 0.244674
H192  H     H_    0.818505 0.997353 0.504435 0.216187
H193  H     H_    0.257863 0.943611 0.743379 0.233225
H194  H     H_    0.566818 0.953648 0.219994 0.285432
H195  H     H_    0.632040 0.026850 0.225957 0.280941
H196  H     H_    0.600227 0.998235 0.162982 0.263861
H197  H     H_    0.723472 0.950085 0.177542 0.257147
H198  H     H_    0.658383 0.877448 0.176259 0.229950
H199  H     H_    0.661629 0.909437 0.282613 0.233144
H200  H     H_    0.747264 0.940847 0.267008 0.185859
H201  H     H_    0.690527 0.036851 0.792010 0.294236
H202  H     H_    0.607128 0.013379 0.757521 0.286592
H203  H     H_    0.721046 0.004680 0.424615 0.269745
H204  H     H_    0.610814 0.010013 0.827050 0.234977
H205  H     H_    0.617765 0.885828 0.794283 0.259564
H206  H     H_    0.704625 0.910920 0.821644 0.224632
H207  H     H_    0.748384 0.940439 0.730301 0.232917
H208  H     H_    0.665189 0.910222 0.704998 0.245902
H209  H     H_    0.806999 0.529492 0.701496 0.291867
H210  H     H_    0.892420 0.509070 0.734536 0.288780
H211  H     H_    0.884363 0.498593 0.665498 0.238587
H212  H     H_    0.877733 0.378410 0.702899 0.249053
H213  H     H_    0.789377 0.402094 0.678121 0.228584
H214  H     H_    0.731090 0.055789 0.365438 0.254976
H215  H     H_    0.752816 0.439467 0.770377 0.233972
H216  H     H_    0.837573 0.409955 0.793254 0.246917
H217  H     H_    0.810730 0.389268 0.438798 0.277728
H218  H     H_    0.713817 0.372697 0.444317 0.260967
H219  H     H_    0.777918 0.310750 0.473043 0.243477
H220  H     H_    0.727300 0.258174 0.391893 0.214172
H221  H     H_    0.823376 0.274821 0.387207 0.255596
H222  H     H_    0.796524 0.393125 0.339355 0.250579
H223  H     H_    0.702358 0.375610 0.350873 0.224918
H224  H     H_    0.134113 0.481224 0.859694 0.265623
O1    O     O_3   0.000000 0.000010 0.249960 -0.498465
O2    O     O_R   0.414520 0.646190 0.219700 -0.600494
O3    O     O_R   0.585480 0.646190 0.780300 -0.611903
O4    O     O_R   0.585480 0.646190 0.219700 -0.619208
O5    O     O_R   0.085460 0.853840 0.280340 -0.629715
O6    O     O_R   0.085460 0.853840 0.719660 -0.621170
O7    O     O_R   0.914540 0.853840 0.280340 -0.642033
O8    O     O_R   0.914540 0.853840 0.719660 -0.653288
O9    O     O_R   0.585460 0.353840 0.780340 -0.635179
O10   O     O_R   0.585460 0.353840 0.219660 -0.641511
O11   O     O_R   0.414540 0.353840 0.780340 -0.633637
O12   O     O_3   1.000000 0.000010 0.750040 -0.493943
O13   O     O_R   0.414540 0.353840 0.219660 -0.646905
O14   O     O_R   0.853820 0.914550 0.219610 -0.659800
O15   O     O_R   0.853820 0.914550 0.780390 -0.651061
O16   O     O_R   0.146180 0.914550 0.219610 -0.628794
O17   O     O_R   0.146180 0.914550 0.780390 -0.666250
O18   O     O_R   0.353820 0.414550 0.719610 -0.623341
O19   O     O_R   0.353820 0.414550 0.280390 -0.647754
O20   O     O_R   0.646180 0.414550 0.719610 -0.649760
O21   O     O_R   0.646180 0.414550 0.280390 -0.643802
O22   O     O_R   0.146170 0.085440 0.219600 -0.609995
O23   O     O_3   0.500000 0.500010 0.749960 -0.500006
O24   O     O_R   0.146170 0.085440 0.780400 -0.631255
O25   O     O_R   0.853830 0.085440 0.219600 -0.601780
O26   O     O_R   0.853830 0.085440 0.780400 -0.633020
O27   O     O_R   0.646170 0.585440 0.719600 -0.630415
O28   O     O_R   0.646170 0.585440 0.280400 -0.602829
O29   O     O_R   0.353830 0.585440 0.719600 -0.597948
O30   O     O_R   0.353830 0.585440 0.280400 -0.639259
O31   O     O_R   0.939270 0.999980 0.134160 -0.653406
O32   O     O_R   0.939270 0.999980 0.865840 -0.651726
O33   O     O_R   0.060730 0.999980 0.134160 -0.646740
O34   O     O_3   0.500000 0.500010 0.250040 -0.496932
O35   O     O_R   0.060730 0.999980 0.865840 -0.647621
O36   O     O_R   0.439270 0.499980 0.634160 -0.647619
O37   O     O_R   0.439270 0.499980 0.365840 -0.652379
O38   O     O_R   0.560730 0.499980 0.634160 -0.646636
O39   O     O_R   0.560730 0.499980 0.365840 -0.651560
O40   O     O_R   1.000000 0.060760 0.365760 -0.680735
O41   O     O_R   1.000000 0.060760 0.634240 -0.662214
O42   O     O_R   0.500000 0.560760 0.865760 -0.678098
O43   O     O_R   0.500000 0.560760 0.134240 -0.679683
O44   O     O_R   1.000000 0.939310 0.365770 -0.593419
O45   O     O_R   0.914520 0.146190 0.280300 -0.616395
O46   O     O_R   1.000000 0.939310 0.634230 -0.607079
O47   O     O_R   0.500000 0.439310 0.865770 -0.591708
O48   O     O_R   0.500000 0.439310 0.134230 -0.587332
O49   O     O_R   0.914520 0.146190 0.719700 -0.626788
O50   O     O_R   0.085480 0.146190 0.280300 -0.605202
O51   O     O_R   0.085480 0.146190 0.719700 -0.604197
O52   O     O_R   0.414520 0.646190 0.780300 -0.608483
Zn1   Zn    Zn3+2 0.000000 0.913260 0.293350 0.977267
Zn2   Zn    Zn3+2 0.413230 0.500000 0.293420 0.970916
Zn3   Zn    Zn3+2 0.586770 0.500000 0.706580 0.968038
Zn4   Zn    Zn3+2 0.586770 0.500000 0.293420 0.998509
Zn5   Zn    Zn3+2 1.000000 0.086780 0.293330 0.984015
Zn6   Zn    Zn3+2 0.000000 0.086780 0.706670 1.019882
Zn7   Zn    Zn3+2 0.500000 0.586780 0.793330 0.994320
Zn8   Zn    Zn3+2 0.500000 0.586780 0.206670 1.008572
Zn9   Zn    Zn3+2 1.000000 0.913260 0.706650 0.989981
Zn10  Zn    Zn3+2 0.500000 0.413260 0.793350 0.992962
Zn11  Zn    Zn3+2 0.500000 0.413260 0.206650 0.984722
Zn12  Zn    Zn3+2 0.913230 0.000000 0.206580 0.953401
Zn13  Zn    Zn3+2 0.913230 1.000000 0.793420 0.958557
Zn14  Zn    Zn3+2 0.086770 0.000000 0.206580 0.988164
Zn15  Zn    Zn3+2 0.086770 1.000000 0.793420 0.980578
Zn16  Zn    Zn3+2 0.413230 0.500000 0.706580 0.989715

loop_
_geom_bond_atom_site_label_1
_geom_bond_atom_site_label_2
_ccdc_geom_bond_type
O18   Zn16  S    
C36   H188  S    
C106  C107  S    
C51   H5    S    
C158  O8    A    
C122  C126  A    
C174  C176  A    
C85   H78   S    
C110  C120  S    
C66   C127  S    
C94   C95   S    
C57   C113  A    
C151  C163  S    
C78   H63   S    
C91   H97   S    
C86   C87   S    
C24   C110  A    
C4    C185  S    
C62   H26   S    
C164  O27   A    
Br8   C118  S    
C14   C15   S    
C137  C159  S    
C108  H134  S    
C138  C160  S    
O16   Zn14  S    
O1    Zn14  S    
C14   H145  S    
C136  C158  S    
O14   Zn12  S    
O12   Zn13  S    
C65   H32   S    
Br14  C183  S    
C73   H61   S    
C106  H139  S    
C164  O3    A    
C121  C125  A    
C72   H50   S    
C186  C194  A    
C36   H187  S    
C153  O30   A    
C95   H103  S    
O31   Zn12  S    
C49   H219  S    
C96   C146  S    
C70   H54   S    
C167  O39   A    
C71   H51   S    
C95   H104  S    
C84   C85   S    
C141  C143  A    
C170  C179  S    
C99   H125  S    
C83   H84   S    
C161  O11   A    
O11   Zn10  S    
C83   C141  S    
C130  C139  A    
C79   C109  S    
C31   C32   S    
C22   H155  S    
C175  O4    A    
C67   H43   S    
C74   H59   S    
Br7   C117  S    
C20   C189  S    
O8    Zn9   S    
Br10  C121  S    
O51   Zn6   S    
C17   C18   S    
C11   H101  S    
C26   H165  S    
C161  O18   A    
C9    H214  S    
C76   C130  S    
C76   H69   S    
C60   H31   S    
C43   H216  S    
C86   C143  S    
C139  C161  S    
C72   H48   S    
O46   Zn9   S    
C56   C124  S    
C86   H92   S    
C148  C149  A    
C67   C69   S    
C17   C188  S    
O27   Zn3   S    
O4    Zn8   S    
C17   H153  S    
Br3   C57   S    
C99   C147  S    
Br19  C24   S    
C16   H142  S    
C12   H79   S    
C144  C145  A    
C23   C188  S    
C104  H129  S    
C42   H204  S    
C59   H18   S    
C114  C164  S    
C171  O48   A    
C86   H93   S    
C14   C187  S    
C105  H126  S    
C133  C155  S    
C46   C112  A    
C134  C156  S    
C142  O52   A    
C108  H136  S    
C55   H11   S    
C5    C6    S    
C80   H76   S    
O2    Zn8   S    
C7    H46   S    
O12   Zn15  S    
C111  C153  S    
C166  O38   A    
C93   H108  S    
C153  O2    A    
C84   H82   S    
C38   H198  S    
C39   H195  S    
C167  O37   A    
C95   H102  S    
C18   H152  S    
C102  H119  S    
C48   H220  S    
C45   H209  S    
C44   H213  S    
C44   H212  S    
C21   C22   S    
C65   H33   S    
C90   C116  A    
C96   H117  S    
C85   H80   S    
O34   Zn4   S    
C40   C193  S    
C1    O45   A    
C77   C78   S    
C78   H65   S    
C103  C104  S    
C33   C34   S    
C80   C132  S    
C148  C154  A    
C113  C122  A    
C75   H58   S    
C56   H23   S    
C168  O40   A    
C61   H28   S    
C37   H200  S    
C56   C58   S    
C6    H112  S    
O39   Zn4   S    
C89   C91   S    
C100  H122  S    
C133  C190  A    
C104  H130  S    
C26   H163  S    
C160  O10   A    
C150  C165  S    
C119  C124  A    
C31   H182  S    
C101  C117  A    
C143  C150  A    
O19   Zn2   S    
C171  O43   A    
C169  O41   A    
C11   C12   S    
C178  C182  A    
C87   C88   S    
Br12  C182  S    
C129  C138  A    
O26   Zn13  S    
C114  C123  A    
C2    C195  A    
C76   C77   S    
C42   H202  S    
C25   H167  S    
O20   Zn3   S    
C29   H172  S    
C1    O25   A    
C185  C187  S    
C36   H186  S    
C52   H4    S    
C105  H128  S    
C173  C185  S    
C68   C193  A    
C63   H38   S    
C55   H9    S    
C171  C180  S    
C71   C72   S    
C48   C49   S    
C109  O26   A    
C10   C185  S    
C101  C131  S    
O24   Zn15  S    
C176  C188  S    
O23   Zn7   S    
C76   H70   S    
C63   C64   S    
C180  C184  A    
C19   H147  S    
C20   H161  S    
C23   C25   S    
C45   H211  S    
C82   H73   S    
C103  C148  S    
C58   H20   S    
C9    H2    S    
C92   H95   S    
C31   H183  S    
O36   Zn16  S    
C89   H100  S    
C172  C187  S    
C60   H30   S    
C117  C130  A    
O47   Zn10  S    
O33   Zn14  S    
O34   Zn2   S    
O23   Zn10  S    
C53   H15   S    
C7    H35   S    
C41   H206  S    
C112  C121  A    
Br5   C115  S    
O6    Zn9   S    
C19   H150  S    
C69   H42   S    
Br2   C46   S    
C103  H132  S    
Br4   C68   S    
O23   Zn3   S    
C131  O24   A    
O48   Zn11  S    
O34   Zn11  S    
C27   C189  S    
C59   H19   S    
C51   C52   S    
C78   H64   S    
C97   C98   S    
C37   C38   S    
C5    H159  S    
C80   C81   S    
C62   H27   S    
C34   H189  S    
C128  C137  A    
C43   C194  S    
C163  O31   A    
C41   C42   S    
Br18  C13   S    
C112  C142  S    
C111  C119  A    
O50   Zn5   S    
C162  O19   A    
C14   H146  S    
C175  O28   A    
C30   C190  S    
C15   H144  S    
C136  C193  A    
C10   H113  S    
C16   H141  S    
C106  H140  S    
C109  O49   A    
O7    Zn1   S    
C107  H138  S    
C81   C82   S    
C47   H222  S    
C49   H218  S    
C53   C54   S    
C73   C129  S    
C15   C16   S    
C4    H181  S    
Br1   C181  S    
C27   H177  S    
C116  C129  A    
C25   C26   S    
C137  C194  A    
C30   H185  S    
C22   H156  S    
C8    C9    S    
C96   H116  S    
C157  O14   A    
C77   H67   S    
C74   H60   S    
C10   C11   S    
C152  C167  S    
C173  C178  A    
O29   Zn16  S    
C56   H22   S    
C81   H74   S    
C12   H57   S    
C165  O35   A    
C57   C192  A    
C32   H180  S    
C131  O51   A    
C97   H115  S    
C98   H109  S    
C156  O6    A    
C156  O17   A    
O15   Zn13  S    
O1    Zn1   S    
C126  C135  A    
C91   C92   S    
C188  C189  S    
C2    C90   A    
C69   H40   S    
C155  O5    A    
C50   H8    S    
O9    Zn10  S    
C22   H157  S    
C1    C90   S    
C50   C51   S    
C94   H105  S    
O34   Zn8   S    
O23   Zn16  S    
C176  C180  A    
C169  O46   A    
C51   H6    S    
C6    H1    S    
C179  C183  A    
Br15  C184  S    
C10   H124  S    
C155  O16   A    
C146  C154  A    
C47   C48   S    
C75   H56   S    
C64   C65   S    
C59   H17   S    
O43   Zn8   S    
C66   C67   S    
C60   C61   S    
C91   H98   S    
C118  C132  A    
O41   Zn6   S    
C3    C24   A    
C62   H25   S    
C63   H39   S    
C40   C41   S    
C142  O29   A    
C108  H133  S    
C33   H193  S    
C134  C191  A    
C157  O7    A    
C27   H176  S    
C63   C126  S    
C9    H203  S    
C28   H175  S    
C99   H123  S    
C113  C175  S    
C30   C31   S    
C79   C115  A    
C172  C177  A    
C159  O20   A    
C127  C136  A    
C29   H171  S    
C73   H62   S    
C72   H49   S    
C60   C125  S    
C58   H21   S    
C35   C111  A    
C38   C39   S    
C70   H53   S    
C107  C108  S    
C102  H120  S    
C66   H47   S    
C81   H75   S    
C32   H179  S    
C93   C94   S    
C145  C150  A    
C92   H94   S    
C93   C145  S    
C89   C144  S    
C67   H44   S    
C99   C100  S    
C75   H55   S    
C147  C152  A    
C21   H158  S    
Br17  C2    S    
C87   H91   S    
C44   C45   S    
C37   H199  S    
C163  O33   A    
C8    H24   S    
C35   C190  A    
Br9   C119  S    
C26   H164  S    
C70   C71   S    
C18   C19   S    
C162  O13   A    
C168  C177  S    
C5    H170  S    
C30   H184  S    
Br13  C123  S    
C74   C75   S    
O22   Zn14  S    
C40   H207  S    
C68   C114  A    
C88   H87   S    
C23   H169  S    
C52   H224  S    
C6    H148  S    
C83   C84   S    
C17   H154  S    
C125  C134  A    
C46   C191  A    
C12   H68   S    
C166  O36   A    
C8    H13   S    
C135  C157  S    
C43   H215  S    
C169  C178  S    
C183  C184  A    
C132  C140  A    
C73   C74   S    
O12   Zn9   S    
C64   H36   S    
C181  C182  A    
C47   C195  S    
C25   H166  S    
C54   H14   S    
C61   C62   S    
C87   H89   S    
C123  C127  A    
C105  H127  S    
C47   H223  S    
O52   Zn7   S    
O30   Zn2   S    
Br16  C186  S    
O40   Zn5   S    
C11   H90   S    
C82   H72   S    
C160  O21   A    
O38   Zn3   S    
C96   C97   S    
C159  O9    A    
C124  C133  A    
C29   H173  S    
Br6   C116  S    
C98   H111  S    
C170  O42   A    
O32   Zn13  S    
C168  O44   A    
C38   H197  S    
C120  O22   A    
C70   C128  S    
C39   H196  S    
C177  C181  A    
C20   H162  S    
C102  H118  S    
C66   H45   S    
C165  O32   A    
C45   H210  S    
C37   C192  S    
C65   H34   S    
C92   H96   S    
O35   Zn15  S    
C89   H99   S    
C13   C101  A    
C16   H135  S    
C85   H81   S    
C3    C53   S    
Br20  C35   S    
C140  C162  S    
C13   C196  A    
C100  C102  S    
C50   H7    S    
C41   H205  S    
C21   H160  S    
C34   C36   S    
C54   C55   S    
C79   C186  A    
C61   H29   S    
C19   H149  S    
C69   H41   S    
C4    C5    S    
O3    Zn7   S    
C54   H12   S    
C100  H121  S    
C33   H191  S    
C103  H131  S    
C58   C59   S    
O1    Zn5   S    
O17   Zn15  S    
C138  C195  A    
O13   Zn11  S    
C43   C44   S    
O12   Zn6   S    
C141  C151  A    
C82   H71   S    
O21   Zn4   S    
C158  O15   A    
O45   Zn5   S    
O5    Zn1   S    
C27   C28   S    
C33   C191  S    
C3    C140  A    
C34   H190  S    
C40   H208  S    
O25   Zn12  S    
C135  C192  A    
O28   Zn4   S    
C93   H107  S    
O1    Zn12  S    
C28   H174  S    
C20   C21   S    
C23   H168  S    
C15   H143  S    
O10   Zn11  S    
C146  C147  A    
C149  C152  A    
C18   H151  S    
C42   H201  S    
C88   H88   S    
C64   H37   S    
C170  O47   A    
C107  H137  S    
C52   H3    S    
C28   C29   S    
C139  C196  A    
C4    H192  S    
C49   H217  S    
C55   H10   S    
C80   H77   S    
C32   H178  S    
O37   Zn2   S    
C50   C196  S    
C172  C173  A    
O44   Zn1   S    
C106  C149  S    
C77   H66   S    
C154  C166  S    
C174  C189  S    
C120  O50   A    
O42   Zn7   S    
C84   H83   S    
C39   H194  S    
C7    C187  S    
Br11  C122  S    
C48   H221  S    
C97   H114  S    
C98   H110  S    
C174  C179  A    
O49   Zn6   S    
C83   H85   S    
C115  C128  A    
C7    C8    S    
C144  C151  A    
C94   H106  S    
C53   H16   S    
C71   H52   S    
C88   H86   S    
C104  C105  S    
C110  C118  A    
