data_mof_unit_23625.cif
_audit_creation_date              2012-12-11T14:01:27-0500
_audit_creation_method            fapswitch 2.2
_symmetry_space_group_name_H-M    P1
_symmetry_Int_Tables_number       1
_space_group_crystal_system       triclinic
_cell_length_a                    19.056678
_cell_length_b                    10.93896
_cell_length_c                    18.807913
_cell_angle_alpha                 89.445537
_cell_angle_beta                  89.818988
_cell_angle_gamma                 90.192994
_cell_volume                      3920.47623124

loop_
_atom_site_label
_atom_site_type_symbol
_atom_type_description
_atom_site_fract_x
_atom_site_fract_y
_atom_site_fract_z
_atom_type_partial_charge
C1    C     C_R   0.272372 0.042311 0.853405 0.570000
C2    C     C_R   0.727566 0.042806 0.146549 0.571479
C3    C     C_R   0.772374 0.542306 0.853408 0.567215
C4    C     C_R   0.227566 0.542806 0.146549 0.573250
C5    C     C_R   0.499647 0.061500 0.068768 -0.070904
C6    C     C_R   0.524034 0.049680 0.922855 -0.084431
C7    C     C_R   0.999688 0.561507 0.068749 -0.071000
C8    C     C_R   0.024071 0.549664 0.922837 -0.084378
C9    C     C_R   0.012249 0.668248 0.029546 -0.077500
C10   C     C_R   0.026621 0.661924 0.957165 -0.089147
C11   C     C_R   0.512196 0.168249 0.029569 -0.077944
C12   C     C_R   0.526571 0.161937 0.957188 -0.088853
C13   C     C_2   0.248396 0.577060 0.919848 -0.044087
C14   C     C_2   0.751570 0.578608 0.080352 -0.043493
C15   C     C_2   0.748396 0.077060 0.919847 -0.043570
C16   C     C_2   0.251569 0.078612 0.080351 -0.043576
C17   C     C_2   0.250717 0.589132 0.077583 0.356490
C18   C     C_2   0.749062 0.588207 0.921954 0.355355
C19   C     C_2   0.750718 0.089133 0.077584 0.355722
C20   C     C_2   0.249060 0.088213 0.921952 0.354797
C21   C     C_2   0.292817 0.520101 0.036923 -0.118488
C22   C     C_2   0.707642 0.518354 0.963906 -0.115287
C23   C     C_2   0.792817 0.020103 0.036923 -0.118124
C24   C     C_2   0.207639 0.018362 0.963904 -0.115315
C25   C     C_2   0.302791 0.545924 0.961248 -0.085894
C26   C     C_2   0.697372 0.545586 0.039241 -0.087120
C27   C     C_2   0.802791 0.045927 0.961248 -0.085851
C28   C     C_2   0.197370 0.045595 0.039240 -0.087114
C29   C     C_2   0.518492 0.843916 0.588477 0.442557
C30   C     C_2   0.536203 0.822102 0.432602 0.530943
C31   C     C_2   0.006512 0.336190 0.580339 0.426215
C32   C     C_2   0.069599 0.328485 0.435000 0.433278
C33   C     C_2   0.578139 0.774246 0.482753 0.155464
C34   C     C_2   0.552250 0.753071 0.555144 0.083194
C35   C     C_2   0.062206 0.232899 0.480077 0.125220
C36   C     C_2   0.053522 0.252740 0.557123 0.089007
C37   C     C_2   0.242896 0.569207 0.581898 0.078423
C38   C     C_2   0.757896 0.543144 0.407888 0.103671
C39   C     C_2   0.743263 0.067778 0.583148 0.091980
C40   C     C_2   0.257020 0.053947 0.413683 0.079744
C41   C     C_2   0.244338 0.587812 0.422956 -0.079889
C42   C     C_2   0.760615 0.581096 0.576870 -0.040634
C43   C     C_2   0.738890 0.073516 0.425393 -0.067880
C44   C     C_2   0.263668 0.069096 0.571992 -0.079091
C45   C     C_R   0.471045 0.821642 0.853429 0.524860
C46   C     C_R   0.528274 0.822972 0.146999 0.547991
C47   C     C_R   0.971051 0.321642 0.853424 0.526848
C48   C     C_R   0.028280 0.322973 0.146994 0.544576
C49   C     C_2   0.190649 0.623135 0.464871 0.408088
C50   C     C_2   0.797085 0.520139 0.527886 0.416115
C51   C     C_2   0.683907 0.064392 0.470025 0.359857
C52   C     C_2   0.315649 0.037635 0.527248 0.391175
C53   C     C_2   0.189027 0.613111 0.542414 0.155571
C54   C     C_2   0.804930 0.574067 0.457638 0.132466
C55   C     C_2   0.689393 0.105514 0.541740 0.150523
C56   C     C_2   0.314133 0.077498 0.453520 0.131819
C57   C     C_R   0.260775 0.635413 0.851184 0.541202
C58   C     C_R   0.739114 0.636123 0.148731 0.541918
C59   C     C_R   0.760775 0.135411 0.851183 0.538457
C60   C     C_R   0.239114 0.136121 0.148732 0.548854
C61   C     C_R   0.273765 0.043586 0.646570 0.572602
C62   C     C_R   0.726580 0.043695 0.352576 0.555626
C63   C     C_R   0.772345 0.547586 0.649048 0.578709
C64   C     C_R   0.227433 0.546522 0.351955 0.557670
C65   C     C_R   0.473281 0.825072 0.649980 0.602233
C66   C     C_R   0.559956 0.819009 0.359952 0.633845
C67   C     C_R   0.972671 0.324561 0.649256 0.584002
C68   C     C_R   0.067808 0.318238 0.357639 0.608381
C69   C     C_R   0.259182 0.633206 0.647823 0.590343
C70   C     C_R   0.741382 0.628672 0.349774 0.591842
C71   C     C_R   0.759952 0.135759 0.646887 0.614344
C72   C     C_R   0.240471 0.132155 0.352224 0.574582
C73   C     C_R   0.498875 0.833906 0.075344 0.003975
C74   C     C_R   0.496692 0.828075 0.926513 0.011218
C75   C     C_R   0.998893 0.333908 0.075334 0.003401
C76   C     C_R   0.996709 0.328071 0.926503 0.010972
C77   C     C_R   0.501841 0.945660 0.035976 0.024062
C78   C     C_R   0.507644 0.941159 0.960949 0.026498
C79   C     C_R   0.001871 0.445661 0.035963 0.023849
C80   C     C_R   0.007672 0.441152 0.960936 0.026722
C81   C     C_R   0.489458 0.720536 0.967022 -0.146060
C82   C     C_R   0.489078 0.723739 0.039753 -0.148935
C83   C     C_R   0.989475 0.220533 0.967014 -0.146118
C84   C     C_R   0.989094 0.223740 0.039745 -0.149043
Cr1   Cr    Cr6+3 0.230530 0.836340 0.748870 1.035920
Cr2   Cr    Cr6+3 0.769470 0.836340 0.251130 1.047106
Cr3   Cr    Cr6+3 0.730530 0.336340 0.748870 1.052339
Cr4   Cr    Cr6+3 0.269470 0.336340 0.251130 1.035097
Cr5   Cr    Cr6+3 0.387420 0.989430 0.750820 1.088804
Cr6   Cr    Cr6+3 0.612580 0.989430 0.249180 1.081177
Cr7   Cr    Cr6+3 0.887420 0.489430 0.750820 1.071475
Cr8   Cr    Cr6+3 0.112580 0.489430 0.249180 1.096266
Cr9   Cr    Cr6+3 0.385640 0.677860 0.749230 1.027117
Cr10  Cr    Cr6+3 0.614360 0.677860 0.250770 1.033562
Cr11  Cr    Cr6+3 0.885640 0.177860 0.749230 1.031418
Cr12  Cr    Cr6+3 0.114360 0.177860 0.250770 1.038527
H1    H     H_    0.481162 0.632309 0.942703 0.137627
H2    H     H_    0.484905 0.637292 0.068143 0.138414
H3    H     H_    0.981174 0.132305 0.942697 0.137444
H4    H     H_    0.984917 0.137296 0.068136 0.138764
H5    H     H_    0.295633 0.564986 0.443282 0.119484
H6    H     H_    0.738336 0.669697 0.566054 -0.016060
H7    H     H_    0.791282 0.097963 0.443041 0.100184
H8    H     H_    0.216077 0.113258 0.553552 0.083258
H9    H     H_    0.486409 0.071379 0.124316 0.135070
H10   H     H_    0.536382 0.048511 0.866707 0.125334
H11   H     H_    0.986450 0.571399 0.124296 0.135183
H12   H     H_    0.036415 0.548483 0.866687 0.124734
H13   H     H_    0.011541 0.756056 0.055596 0.118580
H14   H     H_    0.038561 0.744498 0.927261 0.116381
H15   H     H_    0.511479 0.256054 0.055623 0.117471
H16   H     H_    0.538504 0.244519 0.927287 0.116658
H17   H     H_    0.319004 0.440000 0.058600 0.129779
H18   H     H_    0.682130 0.436973 0.943533 0.129516
H19   H     H_    0.819005 0.940002 0.058599 0.129934
H20   H     H_    0.182125 0.936982 0.943531 0.129722
H21   H     H_    0.355876 0.542194 0.940247 0.138221
H22   H     H_    0.644238 0.540989 0.060224 0.141886
H23   H     H_    0.855877 0.042199 0.940247 0.137985
H24   H     H_    0.144236 0.040998 0.060223 0.142177
H25   H     H_    0.195239 0.576803 0.941032 0.156942
H26   H     H_    0.804740 0.579420 0.059205 0.158042
H27   H     H_    0.695240 0.076802 0.941032 0.157121
H28   H     H_    0.304739 0.079423 0.059203 0.157888
O1    O     O_R   0.215090 0.709860 0.828130 -0.519782
O2    O     O_R   0.784910 0.709860 0.171870 -0.515696
O3    O     O_R   0.715090 0.209860 0.828130 -0.522294
O4    O     O_R   0.284910 0.209860 0.171870 -0.511726
O5    O     O_R   0.445660 0.919250 0.676780 -0.418789
O6    O     O_R   0.554340 0.919250 0.323220 -0.448035
O7    O     O_R   0.945660 0.419250 0.676780 -0.452034
O8    O     O_R   0.054340 0.419250 0.323220 -0.443457
O9    O     O_R   0.456260 0.718170 0.670000 -0.561526
O10   O     O_R   0.543740 0.718170 0.330000 -0.524261
O11   O     O_R   0.956260 0.218170 0.670000 -0.546489
O12   O     O_R   0.043740 0.218170 0.330000 -0.504509
O13   O     O_R   0.320940 0.626760 0.674370 -0.495116
O14   O     O_R   0.679060 0.626760 0.325630 -0.512286
O15   O     O_R   0.820940 0.126760 0.674370 -0.498118
O16   O     O_R   0.179060 0.126760 0.325630 -0.522350
O17   O     O_3   0.334530 0.834540 0.749640 -0.256266
O18   O     O_3   0.665470 0.834540 0.250360 -0.287021
O19   O     O_3   0.834530 0.334540 0.749640 -0.247925
O20   O     O_3   0.165470 0.334540 0.250360 -0.305882
O21   O     O_R   0.236990 0.958390 0.823710 -0.545711
O22   O     O_R   0.763010 0.958390 0.176290 -0.541602
O23   O     O_R   0.736990 0.458390 0.823710 -0.549752
O24   O     O_R   0.263010 0.458390 0.176290 -0.540399
O25   O     O_R   0.332380 0.074750 0.830850 -0.477156
O26   O     O_R   0.667620 0.074750 0.169150 -0.480205
O27   O     O_R   0.832380 0.574750 0.830850 -0.477662
O28   O     O_R   0.167620 0.574750 0.169150 -0.477770
O29   O     O_R   0.445800 0.917770 0.825070 -0.518269
O30   O     O_R   0.554200 0.917770 0.174930 -0.513652
O31   O     O_R   0.945800 0.417770 0.825070 -0.516472
O32   O     O_R   0.054200 0.417770 0.174930 -0.515128
O33   O     O_R   0.456410 0.716580 0.829970 -0.531660
O34   O     O_R   0.543590 0.716580 0.170030 -0.519215
O35   O     O_R   0.956410 0.216580 0.829970 -0.531469
O36   O     O_R   0.043590 0.216580 0.170030 -0.519025
O37   O     O_R   0.321080 0.625290 0.822650 -0.501391
O38   O     O_R   0.678920 0.625290 0.177350 -0.504680
O39   O     O_R   0.821080 0.125290 0.822650 -0.503963
O40   O     O_R   0.178920 0.125290 0.177350 -0.498361
O41   O     O_R   0.214930 0.711450 0.668160 -0.488848
O42   O     O_R   0.785070 0.711450 0.331840 -0.465931
O43   O     O_R   0.714930 0.211450 0.668160 -0.470148
O44   O     O_R   0.285070 0.211450 0.331840 -0.475579
O45   O     O_R   0.236850 0.959870 0.675420 -0.491931
O46   O     O_R   0.763150 0.959870 0.324580 -0.494183
O47   O     O_R   0.736850 0.459870 0.675420 -0.472990
O48   O     O_R   0.263150 0.459870 0.324580 -0.512438
O49   O     O_R   0.332230 0.076350 0.670880 -0.465724
O50   O     O_R   0.667770 0.076350 0.329120 -0.457679
O51   O     O_R   0.832230 0.576350 0.670880 -0.496085
O52   O     O_R   0.167770 0.576350 0.329120 -0.415717
F1    F     F_    0.131150 0.671257 0.435724 -0.578509
F2    F     F_    0.829273 0.412103 0.543238 -0.579581
F3    F     F_    0.618149 0.037039 0.447197 -0.604962
F4    F     F_    0.374764 0.981576 0.550996 -0.544008
N1    N     N_3   0.126837 0.659009 0.576851 -0.569321
H29   H     H_    0.083501 0.608873 0.559437 0.319904
H30   H     H_    0.119866 0.750469 0.561759 0.268437
N2    N     N_3   0.852915 0.674669 0.448414 -0.579610
H31   H     H_    0.903175 0.643267 0.460935 0.296119
H32   H     H_    0.839931 0.742490 0.484912 0.221194
N3    N     N_3   0.638957 0.195542 0.563657 -0.555367
H33   H     H_    0.588616 0.158359 0.559592 0.318431
H34   H     H_    0.642281 0.270314 0.528706 0.253706
N4    N     N_3   0.372285 0.148998 0.427354 -0.559031
H35   H     H_    0.417735 0.096315 0.431999 0.328025
H36   H     H_    0.378018 0.224978 0.460185 0.234817
N5    N     N_3   0.288405 0.474295 0.556267 -0.680082
H37   H     H_    0.257729 0.395693 0.550020 0.224929
H38   H     H_    0.326133 0.452064 0.594396 0.252484
N6    N     N_3   0.714878 0.435312 0.418605 -0.646914
H39   H     H_    0.748135 0.359488 0.417614 0.247261
H40   H     H_    0.680341 0.423536 0.376180 0.246661
N7    N     N_3   0.787288 0.967699 0.561276 -0.682072
H41   H     H_    0.758308 0.887588 0.569164 0.205992
H42   H     H_    0.831394 0.959640 0.593769 0.253143
N8    N     N_3   0.209102 0.958067 0.435586 -0.659468
H43   H     H_    0.237229 0.876166 0.436229 0.251468
H44   H     H_    0.169733 0.945871 0.397790 0.280342
F5    F     F_    0.220889 0.693213 0.051448 -0.654130
F6    F     F_    0.778165 0.693574 0.946461 -0.653231
F7    F     F_    0.720888 0.193214 0.051448 -0.655217
F8    F     F_    0.278165 0.193578 0.946459 -0.653281
N9    N     N_3   0.646894 0.734206 0.464033 -0.662998
H45   H     H_    0.682638 0.788787 0.491106 0.228303
H46   H     H_    0.651703 0.643381 0.480638 0.265164
N10   N     N_3   0.562521 0.633814 0.586162 -0.665679
H47   H     H_    0.514774 0.586653 0.587546 0.270632
H48   H     H_    0.582482 0.642919 0.637580 0.225360
N11   N     N_3   0.057130 0.110161 0.454242 -0.613308
H49   H     H_    0.007526 0.076321 0.468138 0.248268
H50   H     H_    0.094019 0.057061 0.481221 0.267394
N12   N     N_3   0.087183 0.167832 0.604850 -0.688298
H51   H     H_    0.051469 0.099903 0.620272 0.256418
H52   H     H_    0.104874 0.214293 0.649744 0.217002
F9    F     F_    0.468685 0.854884 0.446395 -0.585418
F10   F     F_    0.521700 0.959525 0.561074 -0.568234
F11   F     F_    0.082413 0.441433 0.461206 -0.600998
F12   F     F_    0.975681 0.416627 0.534561 -0.563393

loop_
_geom_bond_atom_site_label_1
_geom_bond_atom_site_label_2
_ccdc_geom_bond_type
C2    O26   A    
Cr7   O27   S    
C38   C70   S    
C16   C28   D    
N4    H35   S    
C14   H26   S    
C37   C69   S    
Cr2   O2    S    
C82   H2    S    
C68   O12   A    
Cr1   O1    S    
C35   C36   S    
Cr2   O42   S    
Cr5   O49   S    
Cr6   O26   S    
Cr3   O3    S    
C81   C82   A    
C44   H8    S    
N12   H51   S    
Cr12  O12   S    
C5    H9    S    
C77   C78   A    
Cr8   O52   S    
C3    O23   A    
C48   O36   A    
C69   O41   A    
Cr4   O44   S    
C50   C54   S    
C75   C79   A    
N8    H44   S    
Cr4   O48   S    
C50   F2    S    
Cr1   O21   S    
C47   C76   S    
C5    C11   A    
Cr9   O9    S    
C70   O42   A    
C6    C12   A    
C49   C53   S    
C75   C84   A    
C6    C78   A    
Cr7   O7    S    
C59   O3    A    
C62   O50   A    
C72   O16   A    
Cr2   O22   S    
Cr5   O5    S    
N2    H31   S    
C3    C18   S    
Cr2   O46   S    
C16   C60   S    
C68   O8    A    
C39   N7    S    
Cr10  O10   S    
C66   O10   A    
C33   N9    S    
C39   C55   D    
C20   C24   D    
C14   C58   S    
C38   N6    S    
C40   C56   D    
Cr8   O28   S    
C76   C80   A    
C1    O25   A    
C23   C27   S    
C64   O52   A    
C3    O27   A    
C66   O6    A    
C9    C10   A    
Cr10  O38   S    
C49   F1    S    
C32   C68   S    
C37   C53   D    
C44   C52   D    
Cr5   O25   S    
C48   O32   A    
N7    H41   S    
Cr10  O34   S    
C83   H3    S    
C7    H11   S    
C19   F7    S    
C72   O44   A    
C48   C75   S    
C13   C25   D    
C45   O29   A    
C51   F3    S    
C42   H6    S    
C76   C83   A    
C41   C49   D    
C31   F12   S    
C58   O2    A    
N9    H45   S    
C30   F9    S    
Cr7   O19   S    
N1    H30   S    
C69   O13   A    
C29   F10   S    
C62   O46   A    
Cr3   O43   S    
N8    H43   S    
Cr8   O20   S    
C11   H15   S    
Cr10  O18   S    
C32   C35   D    
C26   H22   S    
C60   O4    A    
C61   O49   A    
C21   H17   S    
C28   H24   S    
Cr1   O17   S    
C63   O47   A    
C47   O35   A    
C51   C55   S    
N5    H38   S    
C39   C71   S    
N1    H29   S    
N12   H52   S    
C29   C34   D    
Cr1   O45   S    
Cr5   O29   S    
Cr12  O40   S    
C45   C74   S    
C9    H13   S    
C37   N5    S    
C64   O48   A    
C19   C23   D    
N11   H49   S    
C52   F4    S    
Cr7   O31   S    
C67   O11   A    
C53   N1    S    
C65   O5    A    
Cr12  O20   S    
C46   O34   A    
C13   H25   S    
C15   C27   D    
C83   C84   A    
C38   C54   D    
Cr9   O37   S    
Cr7   O51   S    
Cr3   O47   S    
Cr11  O11   S    
C33   C34   S    
C6    H10   S    
C45   O33   A    
Cr8   O32   S    
C56   N4    S    
Cr6   O18   S    
C14   C26   D    
C4    O28   A    
Cr9   O33   S    
N7    H42   S    
C30   C66   S    
C15   H27   S    
C42   C50   D    
C29   C65   S    
C4    C17   S    
C46   O30   A    
N6    H40   S    
Cr12  O36   S    
C40   N8    S    
C24   H20   S    
C55   N3    S    
C22   C26   S    
Cr10  O14   S    
C5    C77   A    
Cr11  O35   S    
C61   O45   A    
C1    O21   A    
C20   F8    S    
C74   C81   A    
C36   N12   S    
C58   O38   A    
C73   C82   A    
C12   H16   S    
C32   F11   S    
Cr9   O17   S    
Cr2   O18   S    
C7    C79   A    
C7    C9    A    
C21   C25   S    
N9    H46   S    
C1    C20   S    
N4    H36   S    
C40   C72   S    
C30   C33   D    
Cr8   O8    S    
C2    C19   S    
C18   C22   D    
C15   C59   S    
C67   O7    A    
Cr11  O19   S    
C24   C28   S    
N10   H48   S    
N6    H39   S    
C43   H7    S    
C25   H21   S    
Cr12  O16   S    
C84   H4    S    
C71   O15   A    
C11   C12   A    
C63   O51   A    
C27   H23   S    
C44   C61   S    
C2    O22   A    
Cr6   O50   S    
Cr11  O15   S    
N2    H32   S    
Cr11  O39   S    
C18   F6    S    
Cr1   O41   S    
C17   F5    S    
C16   H28   S    
N3    H33   S    
Cr4   O4    S    
C57   O1    A    
Cr4   O24   S    
C70   O14   A    
C43   C51   D    
Cr6   O30   S    
C81   H1    S    
Cr5   O17   S    
C74   C78   A    
C60   O40   A    
C57   O37   A    
C41   H5    S    
C10   H14   S    
C54   N2    S    
C34   N10   S    
C17   C21   D    
N3    H34   S    
N11   H50   S    
Cr9   O13   S    
C31   C67   S    
C23   H19   S    
C79   C80   A    
Cr6   O6    S    
C22   H18   S    
C13   C57   S    
N10   H47   S    
C8    C10   A    
N5    H37   S    
Cr3   O23   S    
C8    C80   A    
C59   O39   A    
C73   C77   A    
C31   C36   D    
C8    H12   S    
C71   O43   A    
C41   C64   S    
Cr3   O19   S    
C35   N11   S    
C42   C63   S    
Cr4   O20   S    
C46   C73   S    
C65   O9    A    
C52   C56   S    
C43   C62   S    
C47   O31   A    
C4    O24   A    
