data_mof_unit_39008.cif
_audit_creation_date              2012-12-10T17:33:01-0500
_audit_creation_method            fapswitch 2.2
_symmetry_space_group_name_H-M    P1
_symmetry_Int_Tables_number       1
_space_group_crystal_system       triclinic
_cell_length_a                    12.362345
_cell_length_b                    13.193156
_cell_length_c                    14.224322
_cell_angle_alpha                 92.666845
_cell_angle_beta                  107.76754
_cell_angle_gamma                 117.244169
_cell_volume                      1916.1124423

loop_
_atom_site_label
_atom_site_type_symbol
_atom_type_description
_atom_site_fract_x
_atom_site_fract_y
_atom_site_fract_z
_atom_type_partial_charge
C1    C     C_R   0.653427 0.714880 0.512809 0.860795
C2    C     C_R   0.830434 0.469352 0.912481 0.092750
C3    C     C_R   0.765193 0.461259 0.980654 0.163512
C4    C     C_R   0.940142 0.451700 0.939692 0.063732
C5    C     C_R   0.994188 0.442710 0.040389 0.066634
C6    C     C_R   0.924307 0.431302 0.105362 -0.211105
C7    C     C_R   0.810460 0.438298 0.074969 -0.253430
C8    C     C_R   0.996274 0.440875 0.869289 -0.221106
C9    C     C_R   0.108541 0.431465 0.899024 -0.232165
C10   C     C_R   0.171160 0.436633 0.000167 0.164891
C11   C     C_R   0.115725 0.444191 0.072244 0.091667
C12   C     C_R   0.617232 0.514818 0.686580 0.764849
C13   C     C_R   0.290062 0.436278 0.030374 -0.203959
C14   C     C_R   0.357640 0.448518 0.132163 -0.182661
C15   C     C_R   0.187316 0.459363 0.174672 -0.249028
C16   C     C_R   0.102716 0.990963 0.329723 -0.122107
C17   C     C_R   0.251418 0.161611 0.466045 -0.093339
C18   C     C_R   0.762774 0.915754 0.611416 -0.199263
C19   C     C_R   0.867158 0.029291 0.643261 -0.156688
C20   C     C_R   0.959817 0.065060 0.598017 -0.036247
C21   C     C_R   0.946693 0.988732 0.516805 0.052479
C22   C     C_R   0.829478 0.880176 0.474403 -0.109442
C23   C     C_R   0.347039 0.285345 0.488101 0.790423
C24   C     C_R   0.043253 0.020991 0.472987 -0.041588
C25   C     C_R   0.011990 0.954132 0.377774 -0.069449
C26   C     C_R   0.890093 0.852268 0.331132 0.402591
C27   C     C_R   0.797350 0.817698 0.377148 0.382658
C28   C     C_R   0.171004 0.116609 0.523358 0.466176
C29   C     C_R   0.218825 0.096019 0.371627 -0.259413
C30   C     C_R   0.745383 0.839472 0.529177 -0.071081
C31   C     C_R   0.250470 0.671273 0.670744 -0.294440
C32   C     C_R   0.652498 0.341937 0.364044 0.030534
C33   C     C_R   0.725436 0.297628 0.339817 -0.274438
C34   C     C_R   0.379670 0.480557 0.313035 0.843127
C35   C     C_R   0.859596 0.348190 0.394730 0.130219
C36   C     C_R   0.925313 0.453212 0.470606 -0.057487
C37   C     C_R   0.843308 0.491021 0.496169 0.259157
C38   C     C_R   0.065742 0.519872 0.525665 -0.027435
C39   C     C_R   0.116322 0.609660 0.611740 0.171239
C40   C     C_R   0.033835 0.640454 0.637158 -0.286739
C41   C     C_R   0.901821 0.585532 0.578658 -0.192336
C42   C     C_R   0.160424 0.506908 0.497592 0.041792
C43   C     C_R   0.336017 0.646840 0.643289 0.058639
C44   C     C_R   0.672811 0.507577 0.791363 -0.046710
C45   C     C_R   0.307678 0.462527 0.204952 -0.070352
C46   C     C_R   0.655062 0.476114 0.953535 -0.187054
C47   C     C_R   0.608373 0.498168 0.858965 -0.205430
C48   C     C_R   0.785342 0.497401 0.819983 -0.243123
Cu1   Cu    Cu3+1 0.416420 0.526630 0.522910 0.934337
Cu2   Cu    Cu3+1 0.583580 0.473370 0.477090 0.949264
H1    H     H_    0.759352 0.428515 0.126731 0.144574
H2    H     H_    0.332040 0.428865 0.975471 0.127878
H3    H     H_    0.280406 0.129091 0.327565 0.157036
H4    H     H_    0.080934 0.942592 0.256541 0.187345
H5    H     H_    0.697808 0.886373 0.653112 0.148566
H6    H     H_    0.038502 0.154329 0.624864 0.154373
H7    H     H_    0.879027 0.088578 0.705676 0.145061
H8    H     H_    0.439175 0.692666 0.689613 0.126727
H9    H     H_    0.153618 0.473618 0.232815 0.154239
H10   H     H_    0.072541 0.710716 0.701642 0.161212
H11   H     H_    0.288999 0.738273 0.737715 0.146076
H12   H     H_    0.133648 0.453718 0.426358 0.160512
H13   H     H_    0.548033 0.298632 0.322681 0.135169
H14   H     H_    0.675128 0.218888 0.281203 0.173170
H15   H     H_    0.848530 0.619387 0.602087 0.201463
H16   H     H_    0.450443 0.450070 0.154070 0.164439
H17   H     H_    0.148653 0.423520 0.842879 0.143280
H18   H     H_    0.604136 0.469172 0.004997 0.133439
H19   H     H_    0.520482 0.505074 0.837941 0.147368
H20   H     H_    0.837021 0.512779 0.768755 0.151451
H21   H     H_    0.953029 0.413040 0.179269 0.163747
H22   H     H_    0.953451 0.435859 0.789670 0.155944
N1    N     N_R   0.290690 0.566960 0.557640 -0.185202
N2    N     N_R   0.709100 0.433710 0.442970 -0.197792
O1    O     O_R   0.545970 0.684450 0.528810 -0.588223
O2    O     O_R   0.687130 0.639470 0.490120 -0.566587
O3    O     O_R   0.519670 0.535100 0.660030 -0.596203
O4    O     O_R   0.660830 0.490120 0.621340 -0.598194
O5    O     O_R   0.312870 0.360530 0.509880 -0.578440
O6    O     O_R   0.454030 0.315550 0.471190 -0.580448
O7    O     O_R   0.339170 0.509880 0.378660 -0.587985
O8    O     O_R   0.480330 0.464900 0.339970 -0.570261
O9    O     O_3   0.856912 0.790677 0.236021 -0.564953
C49   C     C_3   0.876689 0.694167 0.247306 -0.296918
H23   H     H_    0.804899 0.628772 0.275345 0.194250
H24   H     H_    0.978461 0.721386 0.298125 0.146527
H25   H     H_    0.861596 0.651458 0.172013 0.194454
O10   O     O_3   0.223825 0.131257 0.628286 -0.594918
C50   C     C_3   0.302906 0.248768 0.681259 -0.320443
H26   H     H_    0.256375 0.302366 0.655298 0.175446
H27   H     H_    0.402326 0.285608 0.678816 0.172362
H28   H     H_    0.315230 0.251476 0.762076 0.183024
O11   O     O_3   0.672382 0.726477 0.322776 -0.563367
C51   C     C_3   0.595912 0.773811 0.270513 -0.278463
H29   H     H_    0.637073 0.823790 0.217345 0.190716
H30   H     H_    0.585499 0.830027 0.323928 0.152855
H31   H     H_    0.496521 0.701236 0.224818 0.181127
I1    I     I_    0.932809 0.234829 0.370114 -0.489282

loop_
_geom_bond_atom_site_label_1
_geom_bond_atom_site_label_2
_ccdc_geom_bond_type
C43   N1    A    
C37   N2    A    
O11   C51   S    
C40   H10   S    
C17   C29   A    
C31   H11   S    
C35   C36   A    
C49   H25   S    
C4    C8    A    
C19   H7    S    
C26   C27   A    
C17   C23   S    
C31   C43   A    
C26   O9    S    
C36   C37   A    
C49   H24   S    
C5    C11   A    
C3    C7    A    
Cu2   N2    S    
C32   N2    A    
C5    C6    A    
C18   C19   A    
Cu1   O7    S    
C47   H19   S    
C43   H8    S    
C11   C15   A    
C19   C20   A    
Cu1   O3    S    
C8    C9    A    
C12   O4    A    
C28   O10   S    
Cu1   O1    S    
C18   C30   A    
C34   O7    A    
C23   O6    A    
C50   H27   S    
C35   I1    S    
C9    C10   A    
C42   H12   S    
C44   C47   A    
C20   H6    S    
C21   C22   A    
C17   C28   A    
Cu2   O4    S    
C14   C45   A    
C6    H21   S    
C8    H22   S    
C1    O1    A    
C24   C25   A    
C39   C40   A    
C41   H15   S    
C51   H31   S    
C2    C48   A    
C16   C29   A    
Cu1   O5    S    
C2    C4    A    
C9    H17   S    
C46   H18   S    
Cu2   O2    S    
C13   H2    S    
O9    C49   S    
C12   O3    A    
C20   C21   A    
C14   H16   S    
C34   C45   S    
C49   H23   S    
C50   H28   S    
C51   H30   S    
C18   H5    S    
C40   C41   A    
C22   C27   A    
Cu1   N1    S    
C27   O11   S    
C15   C45   A    
Cu2   O8    S    
C16   C25   A    
C46   C47   A    
C42   N1    A    
C22   C30   A    
C1    O2    A    
C15   H9    S    
C24   C28   A    
C32   H13   S    
C48   H20   S    
C4    C5    A    
C10   C13   A    
Cu2   O6    S    
C38   C42   A    
C6    C7    A    
C3    C46   A    
C32   C33   A    
C36   C38   A    
C2    C3    A    
C25   C26   A    
C7    H1    S    
C12   C44   S    
C38   C39   A    
C29   H3    S    
C33   H14   S    
C1    C30   S    
C33   C35   A    
C31   C39   A    
C37   C41   A    
C51   H29   S    
C16   H4    S    
C10   C11   A    
O10   C50   S    
Cu1   Cu2   S    
C21   C24   A    
C34   O8    A    
C23   O5    A    
C50   H26   S    
C13   C14   A    
C44   C48   A    
