data_mof_unit_47725.cif
_audit_creation_date              2012-12-10T17:05:21-0500
_audit_creation_method            fapswitch 2.2
_symmetry_space_group_name_H-M    P1
_symmetry_Int_Tables_number       1
_space_group_crystal_system       triclinic
_cell_length_a                    10.023571
_cell_length_b                    10.674389
_cell_length_c                    15.485941
_cell_angle_alpha                 89.835726
_cell_angle_beta                  67.370887
_cell_angle_gamma                 89.521079
_cell_volume                      1529.31367831

loop_
_atom_site_label
_atom_site_type_symbol
_atom_type_description
_atom_site_fract_x
_atom_site_fract_y
_atom_site_fract_z
_atom_type_partial_charge
C1    C     C_R   0.494544 0.737295 0.508453 0.828903
C2    C     C_R   0.429011 0.448501 0.907388 0.073929
C3    C     C_R   0.294695 0.391771 0.958726 0.164264
C4    C     C_R   0.537159 0.454407 0.944702 0.077014
C5    C     C_R   0.500192 0.427127 0.040358 0.095469
C6    C     C_R   0.364543 0.370734 0.090939 -0.207949
C7    C     C_R   0.265016 0.350984 0.049732 -0.153911
C8    C     C_R   0.682021 0.483547 0.888537 -0.239345
C9    C     C_R   0.782912 0.502627 0.927956 -0.217364
C10   C     C_R   0.741309 0.498905 0.024958 0.020663
C11   C     C_R   0.599858 0.459125 0.081685 0.043436
C12   C     C_R   0.409405 0.498239 0.676213 0.880369
C13   C     C_R   0.837850 0.538397 0.065847 0.445043
C14   C     C_R   0.794004 0.538736 0.164080 -0.123179
C15   C     C_R   0.558345 0.461334 0.178442 -0.263714
C16   C     C_2   0.592329 0.067166 0.528900 -0.100225
C17   C     C_2   0.506439 0.129166 0.495423 -0.276825
C18   C     C_2   0.595364 0.932279 0.525879 -0.185149
C19   C     C_2   0.475727 0.865307 0.540089 -0.165090
C20   C     C_2   0.112428 0.441916 0.437575 -0.101959
C21   C     C_2   0.964487 0.449280 0.434093 -0.130171
C22   C     C_R   0.501649 0.262164 0.498467 0.936496
C23   C     C_R   0.591325 0.502309 0.323427 0.883674
C24   C     C_R   0.355028 0.477836 0.777029 -0.090675
C25   C     C_R   0.651231 0.501525 0.220410 -0.222360
C26   C     C_R   0.193011 0.376006 0.917561 -0.081773
C27   C     C_R   0.224332 0.416827 0.826007 -0.186752
C28   C     C_R   0.450871 0.500174 0.820394 -0.255295
H1    H     H_    0.163249 0.306163 0.089977 0.151639
H2    H     H_    0.667242 0.114845 0.552800 0.165617
H3    H     H_    0.436597 0.081629 0.467214 0.138826
H4    H     H_    0.702372 0.889575 0.498307 0.158985
H5    H     H_    0.194279 0.387282 0.383747 0.152849
H6    H     H_    0.073859 0.556494 0.546595 0.151855
H7    H     H_    0.951028 0.408239 0.373975 0.167914
H8    H     H_    0.862781 0.530800 0.558546 0.162178
H9    H     H_    0.449852 0.436700 0.223337 0.173553
H10   H     H_    0.892232 0.526193 0.882045 0.176857
H11   H     H_    0.091132 0.329885 0.955337 0.142914
H12   H     H_    0.149196 0.397607 0.792896 0.156238
H13   H     H_    0.544974 0.556290 0.783680 0.154395
H14   H     H_    0.334204 0.336520 0.161455 0.135052
H15   H     H_    0.720962 0.489338 0.813221 0.147287
N1    N     N_2   0.148330 0.498670 0.499030 -0.190487
N2    N     N_2   0.852680 0.498640 0.499000 -0.195388
O1    O     O_R   0.386950 0.680940 0.500010 -0.624337
O2    O     O_R   0.613110 0.680900 0.499990 -0.606869
O3    O     O_R   0.322330 0.500030 0.632270 -0.615328
O4    O     O_R   0.548480 0.499990 0.632240 -0.611255
O5    O     O_R   0.386890 0.319100 0.500010 -0.599796
O6    O     O_R   0.613050 0.319060 0.499990 -0.610622
O7    O     O_R   0.451520 0.500010 0.367760 -0.601383
O8    O     O_R   0.677670 0.499970 0.367730 -0.623509
Zn1   Zn    Zn3+2 0.349000 0.500030 0.500020 0.940038
Zn2   Zn    Zn3+2 0.651000 0.499970 0.499980 0.935022
O9    O     O_3   0.975957 0.576111 0.009347 -0.619802
C29   C     C_3   0.975281 0.706526 0.993659 0.087525
H16   H     H_    0.953391 0.758769 0.059903 0.145382
H17   H     H_    0.892109 0.733079 0.965384 0.120862
C30   C     C_3   0.123711 0.743896 0.922313 -0.310412
H18   H     H_    0.208327 0.716232 0.948752 0.248589
H19   H     H_    0.145319 0.693575 0.855481 0.219456
C31   C     C_3   0.132193 0.884645 0.903730 -0.924956
H20   H     H_    0.050527 0.913798 0.875256 0.271402
H21   H     H_    0.241289 0.908225 0.851754 0.291833
H22   H     H_    0.113153 0.937143 0.969305 0.255758
C32   C     C_2   0.325454 0.910604 0.595674 0.386964
H23   H     H_    0.233969 0.865371 0.588156 0.071604
O10   O     O_2   0.302025 0.994312 0.653397 -0.561752
C33   C     C_2   0.895238 0.585428 0.205810 0.411408
H24   H     H_    0.855778 0.641311 0.269123 0.075869
O11   O     O_2   0.024643 0.563023 0.169158 -0.549498

loop_
_geom_bond_atom_site_label_1
_geom_bond_atom_site_label_2
_ccdc_geom_bond_type
C2    C4    A    
C31   H21   S    
C19   C32   S    
C33   H24   S    
C21   H7    S    
C24   C28   A    
C9    C10   A    
C12   C24   S    
C21   N2    D    
C17   C22   S    
C8    H15   S    
C4    C8    A    
C27   H12   S    
C22   O5    A    
C13   O9    S    
O1    Zn1   S    
O8    Zn2   S    
C2    C3    A    
C29   H16   S    
C31   H22   S    
H6    N1    S    
H8    N2    S    
C16   C18   S    
C13   C14   A    
C20   C21   S    
O3    Zn1   S    
C4    C5    A    
C14   C33   S    
C22   O6    A    
C23   O7    A    
O5    Zn1   S    
C26   H11   S    
C30   H18   S    
C30   C31   S    
C7    H1    S    
C20   H5    S    
C23   O8    A    
C30   H19   S    
C9    H10   S    
C20   N1    D    
C12   O3    A    
O7    Zn1   S    
C5    C11   A    
C6    C7    A    
C3    C7    A    
C23   C25   S    
C14   C25   A    
C26   C27   A    
C5    C6    A    
C17   H3    S    
C1    O1    A    
C29   H17   S    
C12   O4    A    
C15   C25   A    
C10   C11   A    
C16   H2    S    
C32   H23   S    
N1    Zn1   S    
C28   H13   S    
C24   C27   A    
C18   H4    S    
O9    C29   S    
N2    Zn2   S    
O2    Zn2   S    
C18   C19   D    
C6    H14   S    
C16   C17   D    
C29   C30   S    
C2    C28   A    
O6    Zn2   S    
O4    Zn2   S    
C1    C19   S    
C11   C15   A    
C33   O11   D    
C3    C26   A    
C15   H9    S    
C31   H20   S    
C1    O2    A    
C8    C9    A    
C32   O10   D    
C10   C13   A    
