data_mof_unit_50992.cif
_audit_creation_date              2012-12-10T18:36:25-0500
_audit_creation_method            fapswitch 2.2
_symmetry_space_group_name_H-M    P1
_symmetry_Int_Tables_number       1
_space_group_crystal_system       triclinic
_cell_length_a                    14.023156
_cell_length_b                    15.096521
_cell_length_c                    15.701564
_cell_angle_alpha                 92.395735
_cell_angle_beta                  70.344888
_cell_angle_gamma                 91.56537
_cell_volume                      3127.31112714

loop_
_atom_site_label
_atom_site_type_symbol
_atom_type_description
_atom_site_fract_x
_atom_site_fract_y
_atom_site_fract_z
_atom_type_partial_charge
C1    C     C_R   0.500372 0.669868 0.501912 0.847924
C2    C     C_R   0.498794 0.329978 0.501725 0.832660
C3    C     C_R   0.366377 0.533157 0.104151 0.573747
C4    C     C_R   0.596154 0.600992 0.918703 0.566562
C5    C     C_R   0.298186 0.517219 0.058348 -0.183542
C6    C     C_R   0.666667 0.610526 0.962951 -0.195784
C7    C     C_R   0.412389 0.904632 0.565516 -0.030343
C8    C     C_R   0.561961 0.100053 0.551669 -0.010622
C9    C     C_R   0.415705 0.811793 0.564465 0.621863
C10   C     C_R   0.556768 0.192854 0.551292 0.587564
C11   C     C_R   0.500512 0.766528 0.506751 -0.164831
C12   C     C_R   0.498220 0.233167 0.506579 -0.152276
C13   C     C_R   0.584155 0.813823 0.452231 -0.318796
C14   C     C_R   0.445385 0.180413 0.461954 -0.310454
C15   C     C_R   0.583651 0.905636 0.454891 -0.174424
C16   C     C_R   0.446750 0.088963 0.464493 -0.182730
C17   C     C_R   0.499301 0.951504 0.511711 0.029080
C18   C     C_R   0.502459 0.048330 0.510547 0.036265
C19   C     C_R   0.914167 0.449738 0.433412 0.434538
C20   C     C_R   0.102553 0.580906 0.522866 0.445719
C21   C     C_R   0.810930 0.445762 0.440215 0.684971
C22   C     C_R   0.200985 0.574947 0.528346 0.699546
C23   C     C_R   0.437558 0.497468 0.672767 0.827761
C24   C     C_R   0.562541 0.504254 0.327260 0.800883
C25   C     C_R   0.774133 0.559492 0.554655 0.164103
C26   C     C_R   0.211836 0.426785 0.471497 0.139468
C27   C     C_R   0.873555 0.556562 0.556512 -0.320672
C28   C     C_R   0.110473 0.429854 0.474050 -0.307728
C29   C     C_R   0.947049 0.504932 0.493951 -0.038464
C30   C     C_R   0.054982 0.506740 0.495569 -0.012522
C31   C     C_R   0.398190 0.497952 0.773326 -0.171273
C32   C     C_R   0.599886 0.522503 0.228645 -0.180076
C33   C     C_R   0.263849 0.484556 0.919242 0.608692
C34   C     C_R   0.719908 0.583276 0.091094 0.603982
C35   C     C_R   0.296524 0.474304 0.824466 -0.020208
C36   C     C_R   0.699453 0.554205 0.179697 -0.034847
C37   C     C_R   0.464764 0.525318 0.819213 -0.180681
C38   C     C_R   0.528060 0.516061 0.184528 -0.179442
C39   C     C_R   0.432662 0.535320 0.914163 0.031130
C40   C     C_R   0.546293 0.548899 0.098139 0.027672
C41   C     C_R   0.331142 0.512972 0.963922 -0.098348
C42   C     C_R   0.644606 0.580834 0.050625 -0.087184
C43   C     C_R   0.500529 0.560705 0.961376 -0.072700
C44   C     C_R   0.470766 0.546583 0.055842 -0.090930
Cu1   Cu    Cu3+1 0.403570 0.500010 0.500000 1.009316
Cu2   Cu    Cu3+1 0.596430 0.499990 0.500000 1.009200
H1    H     H_    0.219299 0.505624 0.097663 0.236358
H2    H     H_    0.739568 0.640583 0.927413 0.224352
H3    H     H_    0.893419 0.597095 0.606620 0.238310
H4    H     H_    0.073645 0.370337 0.459080 0.228607
H5    H     H_    0.458188 0.482401 0.218145 0.213471
H6    H     H_    0.543299 0.534519 0.779449 0.221977
H7    H     H_    0.649385 0.779988 0.406570 0.161928
H8    H     H_    0.405591 0.209227 0.422585 0.177723
H9    H     H_    0.648848 0.941281 0.411499 0.162752
H10   H     H_    0.404948 0.049350 0.429421 0.161625
N1    N     N_R   0.741310 0.499980 0.500000 -0.263720
N2    N     N_R   0.258690 0.500020 0.500000 -0.263337
O1    O     O_R   0.418570 0.628550 0.499990 -0.462776
O2    O     O_R   0.581430 0.371450 0.500010 -0.462853
O3    O     O_R   0.581440 0.628540 0.499990 -0.637840
O4    O     O_R   0.418560 0.371460 0.500010 -0.627234
O5    O     O_R   0.372890 0.500010 0.629830 -0.564551
O6    O     O_R   0.627110 0.499990 0.370170 -0.551831
O7    O     O_R   0.535760 0.500000 0.629840 -0.595353
O8    O     O_R   0.464240 0.500000 0.370160 -0.585276
F1    F     F_    0.981180 0.401827 0.365533 -0.626307
F2    F     F_    0.055528 0.660117 0.544054 -0.652427
F3    F     F_    0.781863 0.389915 0.383388 -0.616464
F4    F     F_    0.235593 0.645714 0.565015 -0.568352
C45   C     C_3   0.710971 0.634590 0.611403 -0.272887
C46   C     C_3   0.734909 0.723900 0.563953 -0.397385
C47   C     C_3   0.831920 0.769051 0.568535 -0.749990
H11   H     H_    0.833193 0.771730 0.638937 0.271280
H12   H     H_    0.899257 0.733702 0.523077 0.305433
H13   H     H_    0.835930 0.837911 0.545167 0.228495
H14   H     H_    0.741199 0.714500 0.491876 0.239291
H15   H     H_    0.671057 0.769500 0.597123 0.226372
H16   H     H_    0.629656 0.622155 0.630261 0.225463
H17   H     H_    0.724195 0.641134 0.677210 0.230433
C48   C     C_3   0.260684 0.338392 0.434208 -0.304125
C49   C     C_3   0.339950 0.345102 0.338805 -0.288824
C50   C     C_3   0.332431 0.268090 0.274793 -0.859030
H18   H     H_    0.340752 0.203578 0.302756 0.247987
H19   H     H_    0.258194 0.268869 0.263864 0.286277
H20   H     H_    0.393408 0.274921 0.208385 0.251264
H21   H     H_    0.328104 0.406908 0.308172 0.268210
H22   H     H_    0.417460 0.346068 0.342332 0.221891
H23   H     H_    0.283985 0.305046 0.484517 0.183300
H24   H     H_    0.202570 0.289118 0.428353 0.175152
C51   C     C_3   0.785901 0.559736 0.217666 -0.281636
C52   C     C_3   0.783936 0.647453 0.271010 -0.385032
C53   C     C_3   0.876766 0.658761 0.300613 -0.759876
H25   H     H_    0.878780 0.605341 0.346231 0.245382
H26   H     H_    0.947197 0.657214 0.240794 0.278252
H27   H     H_    0.873612 0.723569 0.337512 0.234497
H28   H     H_    0.782053 0.703856 0.228292 0.244461
H29   H     H_    0.714926 0.649709 0.331700 0.226340
H30   H     H_    0.785994 0.501764 0.258437 0.248238
H31   H     H_    0.859704 0.555248 0.161648 0.255460
C54   C     C_3   0.222599 0.431292 0.782808 -0.355341
C55   C     C_3   0.150331 0.499769 0.769614 -0.252750
C56   C     C_3   0.073266 0.455866 0.731486 -0.838880
H32   H     H_    0.112439 0.419672 0.666615 0.238174
H33   H     H_    0.024319 0.408545 0.780277 0.269533
H34   H     H_    0.024691 0.507239 0.719146 0.253772
H35   H     H_    0.108873 0.533482 0.835534 0.265029
H36   H     H_    0.193804 0.551052 0.722788 0.265524
H37   H     H_    0.262176 0.394356 0.718587 0.192739
H38   H     H_    0.177417 0.379283 0.827945 0.232968
F5    F     F_    0.166519 0.463071 0.968536 -0.670815
F6    F     F_    0.813719 0.615530 0.044207 -0.673726
F7    F     F_    0.326895 0.542992 0.195555 -0.675577
F8    F     F_    0.619005 0.640037 0.838046 -0.715441
C57   C     C_3   0.314793 0.950934 0.620785 -0.336336
C58   C     C_3   0.321951 0.997383 0.707106 -0.377433
C59   C     C_3   0.220370 0.036232 0.764921 -0.790464
H39   H     H_    0.195417 0.085354 0.726309 0.249518
H40   H     H_    0.162011 0.982828 0.786230 0.269354
H41   H     H_    0.228187 0.070156 0.826404 0.248231
H42   H     H_    0.345679 0.949228 0.747522 0.240188
H43   H     H_    0.378290 0.052415 0.689388 0.222746
H44   H     H_    0.294096 0.999331 0.578950 0.188815
H45   H     H_    0.250733 0.902393 0.640184 0.266456
C60   C     C_3   0.634729 0.058645 0.591488 -0.350127
C61   C     C_3   0.580265 0.016860 0.682770 -0.379289
C62   C     C_3   0.655770 0.981442 0.723427 -0.786887
H46   H     H_    0.703821 0.930123 0.677222 0.255724
H47   H     H_    0.704789 0.036133 0.735515 0.259711
H48   H     H_    0.614163 0.950999 0.789018 0.256453
H49   H     H_    0.532374 0.067214 0.730708 0.235349
H50   H     H_    0.531563 0.960655 0.673994 0.226113
H51   H     H_    0.681461 0.008277 0.543037 0.187901
H52   H     H_    0.689589 0.109310 0.601004 0.254756
F9    F     F_    0.337818 0.765536 0.621939 -0.616231
F10   F     F_    0.608218 0.244036 0.595097 -0.667003

loop_
_geom_bond_atom_site_label_1
_geom_bond_atom_site_label_2
_ccdc_geom_bond_type
C60   H52   S    
C61   C62   S    
C27   C29   A    
C34   F6    S    
C47   H11   S    
C1    C11   S    
C2    C12   S    
C62   H47   S    
C48   C49   S    
C52   H29   S    
C39   C41   A    
C20   C30   A    
Cu1   Cu2   S    
C5    H1    S    
C53   H25   S    
C6    H2    S    
C32   C36   A    
C4    F8    S    
C19   C21   A    
C10   F10   S    
C1    O1    A    
C2    O2    A    
C54   H37   S    
C57   C58   S    
Cu1   O4    S    
C58   C59   S    
C7    C9    A    
C7    C57   S    
C24   C32   S    
C46   H15   S    
C46   H14   S    
C28   H4    S    
C7    C17   A    
C34   C42   A    
C19   F1    S    
C25   C45   S    
C14   C16   A    
C32   C38   A    
C51   H31   S    
C24   O8    A    
C48   H23   S    
C23   O5    A    
C53   H26   S    
C47   H12   S    
C25   N1    A    
C45   H16   S    
C45   H17   S    
C52   H28   S    
C13   H7    S    
C3    C44   A    
Cu1   N2    S    
C57   H44   S    
C58   H42   S    
Cu2   O3    S    
C54   C55   S    
Cu2   O7    S    
C4    C6    A    
C3    F7    S    
C59   H41   S    
C51   C52   S    
C37   H6    S    
C39   C43   A    
C38   H5    S    
C35   C54   S    
C54   H38   S    
Cu1   O5    S    
C8    C18   A    
C31   C37   A    
C21   F3    S    
C23   C31   S    
C43   C44   A    
C16   H10   S    
C21   N1    A    
C29   C30   S    
C26   N2    A    
C40   C42   A    
C50   H18   S    
C61   H50   S    
C17   C18   S    
C55   H35   S    
C56   H33   S    
C55   H36   S    
C9    C11   A    
C10   C12   A    
C33   F5    S    
C48   H24   S    
C9    F9    S    
C36   C51   S    
C16   C18   A    
C14   H8    S    
C12   C14   A    
C53   H27   S    
C13   C15   A    
Cu2   N1    S    
C60   C61   S    
C47   H13   S    
C31   C35   A    
C25   C27   A    
Cu2   O2    S    
C62   H46   S    
C19   C29   A    
C56   H32   S    
C58   H43   S    
C60   H51   S    
C15   C17   A    
C5    C41   A    
Cu1   O1    S    
C57   H45   S    
C50   H19   S    
C20   F2    S    
C20   C22   A    
C46   C47   S    
C3    C5    A    
C1    O3    A    
C22   N2    A    
C4    C43   A    
C26   C48   S    
C26   C28   A    
C33   C41   A    
C23   O7    A    
C59   H40   S    
C62   H48   S    
C45   C46   S    
C37   C39   A    
C59   H39   S    
C38   C40   A    
C11   C13   A    
C61   H49   S    
C49   H22   S    
C28   C30   A    
C52   C53   S    
C33   C35   A    
C24   O6    A    
C56   H34   S    
C34   C36   A    
C55   C56   S    
C27   H3    S    
C8    C60   S    
C40   C44   A    
C50   H20   S    
C8    C10   A    
C49   C50   S    
C6    C42   A    
Cu2   O6    S    
Cu1   O8    S    
C51   H30   S    
C22   F4    S    
C49   H21   S    
C2    O4    A    
C15   H9    S    
