data_mof_unit_12249.cif
_audit_creation_date              2012-12-11T14:38:11-0500
_audit_creation_method            fapswitch 2.2
_symmetry_space_group_name_H-M    P1
_symmetry_Int_Tables_number       1
_space_group_crystal_system       triclinic
_cell_length_a                    19.351865
_cell_length_b                    11.179344
_cell_length_c                    19.591177
_cell_angle_alpha                 90.104763
_cell_angle_beta                  97.026221
_cell_angle_gamma                 90.210945
_cell_volume                      4206.50922747

loop_
_atom_site_label
_atom_site_type_symbol
_atom_type_description
_atom_site_fract_x
_atom_site_fract_y
_atom_site_fract_z
_atom_type_partial_charge
C1    C     C_R   0.726932 0.950194 0.358722 0.548412
C2    C     C_R   0.273167 0.949841 0.641378 0.542386
C3    C     C_R   0.226932 0.450194 0.358722 0.548417
C4    C     C_R   0.773167 0.449840 0.641378 0.543234
C5    C     C_3   0.683700 0.453824 0.456589 -0.239955
C6    C     C_3   0.335477 0.403563 0.535960 -0.235158
C7    C     C_3   0.183700 0.953827 0.456588 -0.239975
C8    C     C_3   0.835477 0.903563 0.535960 -0.235248
C9    C     C_3   0.821019 0.432049 0.534767 -0.234613
C10   C     C_3   0.187050 0.456790 0.470153 -0.237963
C11   C     C_3   0.321020 0.932052 0.534766 -0.234541
C12   C     C_3   0.687050 0.956788 0.470153 -0.237932
C13   C     C_3   0.740702 0.271726 0.565771 -0.121063
C14   C     C_3   0.243289 0.272143 0.434126 -0.122910
C15   C     C_3   0.240703 0.771728 0.565769 -0.121419
C16   C     C_3   0.743289 0.772141 0.434125 -0.122727
C17   C     C_3   0.754482 0.407327 0.571180 0.083663
C18   C     C_3   0.245953 0.409350 0.429091 0.079147
C19   C     C_3   0.254483 0.907328 0.571178 0.083869
C20   C     C_3   0.745953 0.909348 0.429090 0.079171
C21   C     C_3   0.733817 0.352107 0.441227 0.038617
C22   C     C_3   0.267261 0.351923 0.558823 0.041557
C23   C     C_3   0.233818 0.852110 0.441227 0.038670
C24   C     C_3   0.767261 0.851921 0.558823 0.041274
C25   C     C_3   0.810108 0.393369 0.461154 -0.232581
C26   C     C_3   0.210676 0.449315 0.546925 -0.248098
C27   C     C_3   0.310109 0.893371 0.461153 -0.232593
C28   C     C_3   0.710676 0.949312 0.546925 -0.248188
C29   C     C_3   0.718710 0.245143 0.487723 -0.240922
C30   C     C_3   0.244056 0.243465 0.511709 -0.228123
C31   C     C_3   0.218711 0.745145 0.487721 -0.240954
C32   C     C_3   0.744057 0.743463 0.511709 -0.228116
C33   C     C_3   0.555549 0.230042 0.953749 -0.245995
C34   C     C_3   0.572099 0.230578 0.031874 -0.218827
C35   C     C_3   0.922237 0.775091 0.973716 -0.239582
C36   C     C_3   0.944681 0.772079 0.051609 -0.233436
C37   C     C_3   0.427224 0.241602 0.968805 -0.220711
C38   C     C_3   0.502818 0.040636 0.040034 -0.236044
C39   C     C_3   0.940702 0.553030 0.968906 -0.232103
C40   C     C_3   0.062655 0.696146 0.028109 -0.230517
C41   C     C_3   0.485546 0.041001 0.961419 -0.232821
C42   C     C_3   0.443768 0.239970 0.047133 -0.247011
C43   C     C_3   0.039412 0.693025 0.950894 -0.221180
C44   C     C_3   0.966751 0.550704 0.046853 -0.237737
C45   C     C_R   0.536157 0.180362 0.338511 0.533560
C46   C     C_R   0.464001 0.180377 0.661595 0.529490
C47   C     C_R   0.036156 0.680362 0.338510 0.531395
C48   C     C_R   0.964000 0.680377 0.661595 0.536324
C49   C     C_3   0.483771 0.172069 0.934317 0.052293
C50   C     C_3   0.512201 0.171466 0.066723 0.055144
C51   C     C_3   0.959580 0.675103 0.937334 0.044843
C52   C     C_3   0.000220 0.673171 0.069174 0.056198
C53   C     C_1   0.756895 0.413092 0.900277 -0.018883
C54   C     C_1   0.219196 0.474084 0.085349 -0.021574
C55   C     C_1   0.256688 0.912403 0.900227 -0.013660
C56   C     C_1   0.718475 0.975625 0.085026 -0.026203
C57   C     C_1   0.735761 0.364491 0.026574 -0.052084
C58   C     C_1   0.241552 0.435866 0.958234 -0.046662
C59   C     C_1   0.234584 0.861628 0.026120 -0.050606
C60   C     C_1   0.740645 0.937743 0.957709 -0.050817
C61   C     C_1   0.745194 0.388404 0.957615 -0.050339
C62   C     C_1   0.229877 0.457882 0.026760 -0.049144
C63   C     C_1   0.244531 0.886635 0.957325 -0.045469
C64   C     C_1   0.728920 0.959837 0.026288 -0.051498
C65   C     C_1   0.729473 0.343405 0.085825 -0.024792
C66   C     C_1   0.251284 0.408803 0.900671 -0.016394
C67   C     C_1   0.228335 0.840587 0.085432 -0.022663
C68   C     C_1   0.750675 0.910176 0.900254 -0.021550
C69   C     C_R   0.725077 0.314483 0.367929 0.554685
C70   C     C_R   0.275071 0.314030 0.631992 0.552658
C71   C     C_R   0.225078 0.814484 0.367928 0.554608
C72   C     C_R   0.775071 0.814029 0.631992 0.554036
C73   C     C_R   0.704876 0.996977 0.154353 0.538226
C74   C     C_R   0.276953 0.952400 0.835962 0.541242
C75   C     C_R   0.205107 0.496446 0.154343 0.540600
C76   C     C_R   0.776890 0.452274 0.835841 0.534190
C77   C     C_R   0.532886 0.178798 0.140676 0.529373
C78   C     C_R   0.464822 0.179288 0.860212 0.541931
C79   C     C_R   0.029015 0.678906 0.142286 0.524866
C80   C     C_R   0.937869 0.682164 0.862633 0.551297
C81   C     C_R   0.722609 0.312478 0.155726 0.538067
C82   C     C_R   0.263004 0.361352 0.835144 0.552028
C83   C     C_R   0.222217 0.811324 0.155796 0.541956
C84   C     C_R   0.762859 0.861731 0.835001 0.545837
C85   C     C_1   0.485686 0.172660 0.594568 -0.034147
C86   C     C_1   0.514795 0.172883 0.405675 -0.029476
C87   C     C_1   0.985681 0.672660 0.594566 -0.035462
C88   C     C_1   0.014790 0.672883 0.405673 -0.029149
C89   C     C_1   0.504632 0.169543 0.464992 -0.075755
C90   C     C_1   0.496007 0.169385 0.535286 -0.078722
C91   C     C_1   0.004626 0.669543 0.464989 -0.075533
C92   C     C_1   0.996000 0.669385 0.535284 -0.079014
C93   C     C_3   0.687115 0.468172 0.534642 -0.237923
C94   C     C_3   0.320493 0.450908 0.461649 -0.227999
C95   C     C_3   0.187115 0.968174 0.534641 -0.237888
C96   C     C_3   0.820493 0.950907 0.461648 -0.227907
Cr1   Cr    Cr6+3 0.765780 0.160710 0.267420 1.007414
Cr2   Cr    Cr6+3 0.234220 0.160710 0.732580 1.011849
Cr3   Cr    Cr6+3 0.265780 0.660710 0.267420 1.008704
Cr4   Cr    Cr6+3 0.734220 0.660710 0.732580 1.005044
Cr5   Cr    Cr6+3 0.612200 0.009560 0.248850 1.006163
Cr6   Cr    Cr6+3 0.387800 0.009560 0.751150 1.008274
Cr7   Cr    Cr6+3 0.112200 0.509560 0.248850 1.006401
Cr8   Cr    Cr6+3 0.887800 0.509560 0.751150 1.008117
Cr9   Cr    Cr6+3 0.616030 0.323720 0.248510 1.009623
Cr10  Cr    Cr6+3 0.383970 0.323720 0.751490 1.008645
Cr11  Cr    Cr6+3 0.116030 0.823720 0.248510 1.009655
Cr12  Cr    Cr6+3 0.883970 0.823720 0.751490 1.005916
H1    H     H_    0.680275 0.559411 0.550715 0.126263
H2    H     H_    0.327116 0.548853 0.461429 0.115557
H3    H     H_    0.180275 0.059413 0.550714 0.126242
H4    H     H_    0.827116 0.048852 0.461428 0.115560
H5    H     H_    0.748789 0.169347 0.472871 0.105874
H6    H     H_    0.189044 0.227287 0.518990 0.114666
H7    H     H_    0.248789 0.669349 0.472869 0.105868
H8    H     H_    0.689045 0.727283 0.518989 0.114664
H9    H     H_    0.865964 0.378982 0.559497 0.139281
H10   H     H_    0.139660 0.399594 0.458953 0.132326
H11   H     H_    0.365965 0.878986 0.559496 0.139249
H12   H     H_    0.639660 0.899592 0.458953 0.132322
H13   H     H_    0.846508 0.317977 0.455043 0.139056
H14   H     H_    0.164328 0.431729 0.573878 0.149808
H15   H     H_    0.346508 0.817978 0.455043 0.139082
H16   H     H_    0.664328 0.931725 0.573878 0.149524
H17   H     H_    0.556189 0.323558 0.934330 0.141320
H18   H     H_    0.621446 0.181064 0.046478 0.093993
H19   H     H_    0.864847 0.762563 0.963461 0.112828
H20   H     H_    0.965461 0.861905 0.068066 0.151809
H21   H     H_    0.596156 0.179238 0.930369 0.119631
H22   H     H_    0.580562 0.324997 0.049138 0.149227
H23   H     H_    0.934679 0.864713 0.953640 0.148960
H24   H     H_    0.898674 0.754571 0.079161 0.125969
H25   H     H_    0.424286 0.336529 0.951610 0.150238
H26   H     H_    0.551434 0.988579 0.053893 0.145145
H27   H     H_    0.883355 0.539272 0.960900 0.123594
H28   H     H_    0.086204 0.785278 0.041812 0.134695
H29   H     H_    0.448256 0.333628 0.066648 0.145738
H30   H     H_    0.525226 0.988323 0.937806 0.131090
H31   H     H_    0.922517 0.531300 0.076507 0.128533
H32   H     H_    0.055558 0.778134 0.927914 0.148332
H33   H     H_    0.434095 0.996773 0.947435 0.149878
H34   H     H_    0.400533 0.196125 0.070408 0.123706
H35   H     H_    0.066318 0.618849 0.926960 0.133996
H36   H     H_    0.005491 0.477677 0.057455 0.144327
H37   H     H_    0.460351 0.995472 0.063832 0.131415
H38   H     H_    0.374976 0.200748 0.953739 0.119354
H39   H     H_    0.103817 0.627908 0.041134 0.103504
H40   H     H_    0.964869 0.477608 0.943405 0.150024
H41   H     H_    0.639710 0.425278 0.550350 0.127545
H42   H     H_    0.361203 0.417681 0.431085 0.127011
H43   H     H_    0.139710 0.925280 0.550349 0.127595
H44   H     H_    0.861203 0.917679 0.431084 0.126905
H45   H     H_    0.629128 0.432339 0.435011 0.140585
H46   H     H_    0.375784 0.332682 0.538647 0.129838
H47   H     H_    0.129129 0.932342 0.435010 0.140640
H48   H     H_    0.875784 0.832682 0.538647 0.129550
H49   H     H_    0.698147 0.538077 0.432929 0.132075
H50   H     H_    0.356506 0.478065 0.570200 0.134776
H51   H     H_    0.198147 0.038079 0.432928 0.132045
H52   H     H_    0.856506 0.978065 0.570200 0.134901
H53   H     H_    0.340870 0.024496 0.539723 0.109659
H54   H     H_    0.666187 0.043980 0.453461 0.107961
H55   H     H_    0.840870 0.524493 0.539724 0.109459
H56   H     H_    0.166187 0.543983 0.453461 0.108058
H57   H     H_    0.324824 0.966307 0.427747 0.136962
H58   H     H_    0.734009 0.034240 0.566180 0.137675
H59   H     H_    0.824822 0.466306 0.427748 0.136822
H60   H     H_    0.234010 0.534242 0.566179 0.137594
H61   H     H_    0.790390 0.223582 0.581881 0.134906
H62   H     H_    0.192769 0.239767 0.406698 0.143099
H63   H     H_    0.290391 0.723584 0.581879 0.134782
H64   H     H_    0.692769 0.739766 0.406698 0.143109
H65   H     H_    0.661927 0.226571 0.478175 0.119311
H66   H     H_    0.275775 0.165926 0.526929 0.111259
H67   H     H_    0.161928 0.726574 0.478173 0.119392
H68   H     H_    0.775777 0.665924 0.526928 0.111295
O1    O     O_R   0.783100 0.287550 0.345460 -0.521762
O2    O     O_R   0.216900 0.287550 0.654540 -0.527764
O3    O     O_R   0.283100 0.787550 0.345460 -0.521688
O4    O     O_R   0.716900 0.787550 0.654540 -0.526869
O5    O     O_R   0.554710 0.081900 0.170950 -0.521926
O6    O     O_R   0.445290 0.081900 0.829050 -0.506124
O7    O     O_R   0.054710 0.581900 0.170950 -0.519780
O8    O     O_R   0.945290 0.581900 0.829050 -0.502494
O9    O     O_R   0.545650 0.284910 0.163740 -0.527213
O10   O     O_R   0.454350 0.284910 0.836260 -0.523355
O11   O     O_R   0.045650 0.784910 0.163740 -0.527906
O12   O     O_R   0.954350 0.784910 0.836260 -0.520244
O13   O     O_R   0.677950 0.374280 0.185410 -0.479287
O14   O     O_R   0.322050 0.374280 0.814590 -0.495518
O15   O     O_R   0.177950 0.874280 0.185410 -0.476258
O16   O     O_R   0.822050 0.874280 0.814590 -0.505934
O17   O     O_3   0.664670 0.164660 0.254930 -0.309014
O18   O     O_3   0.335330 0.164660 0.745070 -0.270556
O19   O     O_3   0.164670 0.664660 0.254930 -0.308396
O20   O     O_3   0.835330 0.664660 0.745070 -0.286535
O21   O     O_R   0.760020 0.037400 0.337700 -0.522168
O22   O     O_R   0.239980 0.037400 0.662300 -0.530189
O23   O     O_R   0.260020 0.537400 0.337700 -0.522201
O24   O     O_R   0.739980 0.537400 0.662300 -0.528823
O25   O     O_R   0.666600 0.921990 0.332020 -0.519667
O26   O     O_R   0.333400 0.921990 0.667980 -0.526212
O27   O     O_R   0.166600 0.421990 0.332020 -0.519869
O28   O     O_R   0.833400 0.421990 0.667980 -0.525604
O29   O     O_R   0.557260 0.082670 0.312540 -0.492845
O30   O     O_R   0.442740 0.082670 0.687460 -0.495561
O31   O     O_R   0.057260 0.582670 0.312540 -0.494130
O32   O     O_R   0.942740 0.582670 0.687460 -0.491590
O33   O     O_R   0.548410 0.285740 0.316480 -0.518318
O34   O     O_R   0.451590 0.285740 0.683520 -0.520145
O35   O     O_R   0.048410 0.785740 0.316480 -0.519598
O36   O     O_R   0.951590 0.785740 0.683520 -0.516907
O37   O     O_R   0.680500 0.375040 0.327000 -0.493466
O38   O     O_R   0.319500 0.375040 0.673000 -0.502454
O39   O     O_R   0.180500 0.875040 0.327000 -0.493586
O40   O     O_R   0.819500 0.875040 0.673000 -0.501824
O41   O     O_R   0.780350 0.286720 0.192720 -0.497763
O42   O     O_R   0.219650 0.286720 0.807280 -0.502105
O43   O     O_R   0.280350 0.786720 0.192720 -0.497562
O44   O     O_R   0.719650 0.786720 0.807280 -0.502754
O45   O     O_R   0.757470 0.036630 0.196110 -0.501041
O46   O     O_R   0.242530 0.036630 0.803890 -0.494626
O47   O     O_R   0.257470 0.536630 0.196110 -0.502144
O48   O     O_R   0.742530 0.536630 0.803890 -0.496926
O49   O     O_R   0.663840 0.921160 0.179280 -0.497094
O50   O     O_R   0.336160 0.921160 0.820720 -0.512745
O51   O     O_R   0.163840 0.421160 0.179280 -0.494224
O52   O     O_R   0.836160 0.421160 0.820720 -0.516132
C97   C     C_3   0.687237 0.227203 0.613446 -0.425465
H69   H     H_    0.714602 0.174472 0.656510 0.138883
H70   H     H_    0.660568 0.300975 0.637494 0.142053
H71   H     H_    0.646398 0.169159 0.585792 0.138494
C98   C     C_3   0.300954 0.209134 0.399586 -0.419027
H72   H     H_    0.280702 0.124450 0.375568 0.138656
H73   H     H_    0.316898 0.263189 0.356639 0.145959
H74   H     H_    0.347748 0.191377 0.436830 0.141414
C99   C     C_3   0.187236 0.727204 0.613442 -0.424852
H75   H     H_    0.214600 0.674470 0.656505 0.139175
H76   H     H_    0.160568 0.800976 0.637491 0.142779
H77   H     H_    0.146397 0.669162 0.585787 0.138690
C100  C     C_3   0.800953 0.709133 0.399583 -0.419303
H78   H     H_    0.780702 0.624448 0.375566 0.138437
H79   H     H_    0.816895 0.763188 0.356635 0.145409
H80   H     H_    0.847748 0.691377 0.436826 0.141428

loop_
_geom_bond_atom_site_label_1
_geom_bond_atom_site_label_2
_ccdc_geom_bond_type
C58   C62   S    
C39   C51   S    
C67   C83   S    
C8    C24   S    
Cr4   O44   S    
C47   O35   A    
C76   O52   A    
C9    H9    S    
C14   C18   S    
C93   H41   S    
C35   C36   S    
C8    C96   S    
C11   H53   S    
C14   H62   S    
C11   H11   S    
Cr11  O19   S    
C9    C25   S    
Cr10  O18   S    
C31   H67   S    
C76   O48   A    
C15   C19   S    
C100  H79   S    
C40   H28   S    
C11   C19   S    
C79   O11   A    
C12   C28   S    
Cr7   O7    S    
Cr8   O28   S    
C10   C18   S    
C13   C29   S    
C16   C20   S    
C6    C22   S    
Cr7   O31   S    
C97   H71   S    
C73   O45   A    
C36   H24   S    
C7    C23   S    
C4    O28   A    
Cr11  O35   S    
Cr4   O48   S    
Cr7   O51   S    
C96   H44   S    
Cr3   O19   S    
Cr6   O50   S    
Cr9   O33   S    
C49   C78   S    
Cr2   O18   S    
C3    C18   S    
Cr5   O49   S    
C100  H78   S    
C95   H3    S    
Cr1   O17   S    
C37   C42   S    
C9    H55   S    
C51   C80   S    
C21   C25   S    
C84   O44   A    
C13   C97   S    
C69   O1    A    
C12   H12   S    
C55   C74   S    
C43   H35   S    
C58   C66   T    
C40   C43   S    
C48   O36   A    
C79   O7    A    
C6    C94   S    
C55   C63   T    
C39   H40   S    
C42   H34   S    
C77   O5    A    
C56   C64   T    
C78   O10   A    
Cr8   O32   S    
C23   C27   S    
C37   H38   S    
Cr2   O2    S    
C52   C79   S    
C93   H1    S    
C98   H72   S    
Cr3   O43   S    
C36   C52   S    
C28   H58   S    
C46   C85   S    
C59   C67   T    
C16   C100  S    
C44   C52   S    
C7    H47   S    
C13   H61   S    
C20   C96   S    
C75   O47   A    
Cr3   O23   S    
C87   C92   T    
C82   O14   A    
C42   H29   S    
C48   O32   A    
Cr12  O20   S    
C36   H20   S    
Cr7   O19   S    
C14   C30   S    
C77   O9    A    
Cr6   O18   S    
C31   H7    S    
C22   C70   S    
Cr12  O36   S    
Cr5   O17   S    
Cr8   O52   S    
Cr7   O27   S    
Cr4   O20   S    
C80   O12   A    
Cr10  O38   S    
C7    H51   S    
Cr3   O47   S    
C34   C50   S    
Cr9   O37   S    
Cr2   O22   S    
C15   H63   S    
C68   C84   S    
Cr1   O21   S    
C69   O37   A    
Cr10  O10   S    
C38   C41   S    
C29   H65   S    
C91   C92   S    
Cr6   O30   S    
C27   H15   S    
C70   O2    A    
C39   H27   S    
C54   C62   T    
C46   O34   A    
C12   H54   S    
C94   H2    S    
C25   H59   S    
C1    O25   A    
C21   C69   S    
C78   O6    A    
Cr6   O6    S    
Cr9   O17   S    
C24   C32   S    
C38   H37   S    
Cr3   O3    S    
C97   H69   S    
C10   H10   S    
C23   C71   S    
C66   C82   S    
C32   H68   S    
C98   H74   S    
C16   H64   S    
C60   C68   T    
Cr1   O1    S    
C82   O42   A    
C88   C91   T    
C11   C27   S    
C44   H36   S    
C81   O41   A    
C12   C20   S    
C33   H17   S    
C33   C34   S    
Cr8   O20   S    
C48   C87   S    
C5    C21   S    
C43   H32   S    
Cr12  O40   S    
C32   H8    S    
C3    O23   A    
C15   C31   S    
C98   H73   S    
C81   O13   A    
C37   C49   S    
C6    H46   S    
Cr5   O29   S    
C42   C50   S    
C45   O29   A    
C4    C17   S    
Cr4   O24   S    
C9    C17   S    
C72   O40   A    
C27   H57   S    
C44   H31   S    
C5    H49   S    
C25   H13   S    
Cr2   O42   S    
C35   C51   S    
C18   C94   S    
Cr1   O41   S    
C53   C76   S    
C17   C93   S    
Cr10  O14   S    
C53   C61   T    
C8    H52   S    
C50   C77   S    
C35   H23   S    
C35   H19   S    
C19   C95   S    
C24   C72   S    
C30   H6    S    
C33   H21   S    
C46   O30   A    
C29   H5    S    
C1    C20   S    
C10   H56   S    
C56   C73   S    
C22   C30   S    
C40   H39   S    
Cr8   O8    S    
C2    C19   S    
C2    O22   A    
Cr12  O12   S    
C1    O21   A    
C24   C28   S    
C80   O8    A    
C57   C65   T    
C86   C89   T    
C6    H50   S    
C5    C93   S    
C85   C90   T    
C28   H16   S    
C57   C61   S    
C39   C44   S    
C38   C50   S    
C47   O31   A    
C16   C32   S    
C41   C49   S    
C7    C95   S    
C41   H33   S    
C74   O46   A    
C59   C63   S    
C83   O15   A    
C13   C17   S    
C60   C64   S    
C100  H80   S    
C47   C88   S    
C99   H76   S    
C45   C86   S    
Cr6   O26   S    
Cr10  O34   S    
C97   H70   S    
C40   C52   S    
C73   O49   A    
C3    O27   A    
C10   C26   S    
C21   C29   S    
C30   H66   S    
C43   C51   S    
C71   O39   A    
Cr2   O46   S    
C34   H18   S    
C75   O51   A    
C2    O26   A    
C96   H4    S    
Cr9   O13   S    
Cr1   O45   S    
C84   O16   A    
C70   O38   A    
C37   H25   S    
C38   H26   S    
C8    H48   S    
Cr5   O5    S    
C45   O33   A    
Cr9   O9    S    
C15   C99   S    
C71   O3    A    
C54   C75   S    
C5    H45   S    
C94   H42   S    
C4    O24   A    
C95   H43   S    
C34   H22   S    
C74   O50   A    
C83   O43   A    
C22   C26   S    
C99   H77   S    
Cr11  O15   S    
C72   O4    A    
C65   C81   S    
Cr12  O16   S    
Cr11  O11   S    
Cr5   O25   S    
C26   H14   S    
C41   H30   S    
C89   C90   S    
C99   H75   S    
C33   C49   S    
Cr11  O39   S    
C14   C98   S    
C26   H60   S    
C23   C31   S    
Cr4   O4    S    
