data_mof_unit_30676.cif
_audit_creation_date              2012-12-10T17:10:13-0500
_audit_creation_method            fapswitch 2.2
_symmetry_space_group_name_H-M    P1
_symmetry_Int_Tables_number       1
_space_group_crystal_system       triclinic
_cell_length_a                    15.724931
_cell_length_b                    10.769363
_cell_length_c                    10.12154
_cell_angle_alpha                 90.34661
_cell_angle_beta                  90.973089
_cell_angle_gamma                 90.700958
_cell_volume                      1713.64838171

loop_
_atom_site_label
_atom_site_type_symbol
_atom_type_description
_atom_site_fract_x
_atom_site_fract_y
_atom_site_fract_z
_atom_type_partial_charge
C1    C     C_R   0.498308 0.263297 0.499121 0.963082
C2    C     C_2   0.513263 0.866928 0.497481 -0.236941
C3    C     C_2   0.495007 0.061694 0.391385 -0.088261
C4    C     C_R   0.338290 0.500296 0.498970 0.894796
C5    C     C_2   0.479758 0.134179 0.495917 -0.334325
C6    C     C_2   0.537849 0.585090 0.928404 -0.113263
C7    C     C_2   0.550726 0.570544 0.077628 0.640434
C8    C     C_R   0.501185 0.736469 0.500127 0.940359
C9    C     C_R   0.661695 0.500368 0.500996 0.915578
C10   C     C_3   0.971264 0.391522 0.503537 0.470632
C11   C     C_3   0.025391 0.443864 0.390654 -0.202697
C12   C     C_3   0.083535 0.508046 0.495840 -0.072502
C13   C     C_1   0.249574 0.503517 0.496713 -0.040672
C14   C     C_1   0.750445 0.502713 0.502808 -0.040480
C15   C     C_3   0.028907 0.455497 0.608342 -0.118164
C16   C     C_2   0.053114 0.374934 0.269760 0.957467
C17   C     C_2   0.572183 0.698077 0.868200 0.957990
C18   C     C_2   0.510945 0.374571 0.889650 1.073455
C19   C     C_3   0.614558 0.747969 0.161404 -0.165954
C20   C     C_3   0.395612 0.360124 0.129003 -0.014155
C21   C     C_3   0.995973 0.180103 0.502561 -0.141312
C22   C     C_2   0.937183 0.621929 0.262836 1.010399
C23   C     C_3   0.973404 0.573143 0.603987 -0.283983
C24   C     C_2   0.059115 0.757349 0.485013 0.973815
C25   C     C_2   0.059609 0.397880 0.734709 0.955335
C26   C     C_2   0.390455 0.890024 0.335733 0.987696
C27   C     C_2   0.591111 0.913893 0.567849 0.917588
C28   C     C_2   0.550067 0.094377 0.278068 0.958478
C29   C     C_3   0.916335 0.508055 0.498705 0.039837
C30   C     C_3   0.028533 0.625135 0.490889 -0.050079
C31   C     C_3   0.970015 0.561275 0.386434 -0.169540
C32   C     C_1   0.174407 0.506317 0.495736 0.174619
C33   C     C_1   0.825625 0.505218 0.502023 0.135266
C34   C     C_2   0.469220 0.934068 0.407561 -0.207104
H1    H     H_    0.446825 0.096941 0.581212 0.205265
H2    H     H_    0.448859 0.293686 0.140988 0.149954
H3    H     H_    0.352999 0.323216 0.049312 0.174029
H4    H     H_    0.056246 0.203331 0.556859 0.122611
H5    H     H_    0.009004 0.161499 0.396975 0.184247
H6    H     H_    0.970633 0.092825 0.545142 0.233064
H7    H     H_    0.835672 0.676358 0.154400 0.368743
H8    H     H_    0.158566 0.877027 0.480750 0.352183
H9    H     H_    0.159155 0.346475 0.849064 0.357114
H10   H     H_    0.290592 0.770547 0.325792 0.371454
H11   H     H_    0.719246 0.913560 0.580234 0.362400
H12   H     H_    0.950578 0.626263 0.690536 0.203132
H13   H     H_    0.653194 0.187040 0.212195 0.362459
H14   H     H_    0.150014 0.312768 0.160548 0.350990
H15   H     H_    0.672126 0.780617 0.781134 0.351736
H16   H     H_    0.584863 0.242960 0.972161 0.362760
H17   H     H_    0.547374 0.780192 0.161864 0.170023
H18   H     H_    0.650663 0.801139 0.086897 0.190296
H19   H     H_    0.643365 0.770884 0.259482 0.219093
H20   H     H_    0.356216 0.360909 0.217775 0.177809
N1    N     N_2   0.500900 0.501330 0.852150 -0.203421
N2    N     N_2   0.500930 0.501360 0.147810 0.033537
O1    O     O_R   0.499990 0.319060 0.613040 -0.590450
O2    O     O_R   0.139602 0.360455 0.245297 -0.813315
O3    O     O_2   0.531774 0.794216 0.872254 -0.569520
O4    O     O_R   0.652666 0.695853 0.812080 -0.763046
O5    O     O_2   0.455472 0.298636 0.859575 -0.597986
O6    O     O_R   0.585605 0.335331 0.953431 -0.808309
O7    O     O_3   0.623588 0.619361 0.138062 -0.607264
O8    O     O_3   0.422924 0.480641 0.093202 -0.595781
O9    O     O_3   0.933654 0.272315 0.514314 -0.583914
O10   O     O_2   0.987474 0.660639 0.181610 -0.584849
O11   O     O_R   0.849702 0.633946 0.241086 -0.761301
O12   O     O_R   0.500010 0.319100 0.386900 -0.633712
O13   O     O_2   0.007336 0.840957 0.480540 -0.633937
O14   O     O_R   0.146170 0.784544 0.485054 -0.787303
O15   O     O_2   0.007895 0.361023 0.814734 -0.542755
O16   O     O_R   0.146703 0.386637 0.760600 -0.800544
O17   O     O_2   0.366552 0.943708 0.235894 -0.573807
O18   O     O_R   0.341827 0.791295 0.384324 -0.788271
O19   O     O_2   0.585391 0.982371 0.663959 -0.558166
O20   O     O_R   0.670853 0.876045 0.525222 -0.816919
O21   O     O_2   0.536177 0.046473 0.169900 -0.605792
O22   O     O_R   0.620423 0.173751 0.296440 -0.765692
O23   O     O_R   0.376760 0.499970 0.613050 -0.588047
O24   O     O_R   0.376790 0.500010 0.386910 -0.605061
O25   O     O_R   0.499990 0.680900 0.613100 -0.604222
O26   O     O_R   0.500010 0.680940 0.386960 -0.618259
O27   O     O_R   0.623210 0.499990 0.613090 -0.601766
O28   O     O_R   0.623240 0.500030 0.386950 -0.555834
O29   O     O_2   0.999535 0.332108 0.192780 -0.554309
Zn1   Zn    Zn3+2 0.499980 0.499970 0.650990 1.070136
Zn2   Zn    Zn3+2 0.500020 0.500030 0.349010 1.053123

loop_
_geom_bond_atom_site_label_1
_geom_bond_atom_site_label_2
_ccdc_geom_bond_type
H9    O16   S    
C13   C32   T    
O28   Zn2   S    
C6    N1    D    
C1    O12   A    
C14   C33   T    
C24   O14   S    
H7    O11   S    
H15   O4    S    
H11   O20   S    
C8    O26   A    
C23   C29   S    
C3    C28   S    
C4    O24   A    
O24   Zn2   S    
C10   C15   S    
C30   C31   S    
C15   C25   S    
O26   Zn2   S    
C29   C33   S    
H8    O14   S    
C26   O17   D    
O1    Zn1   S    
C4    C13   S    
C22   O10   D    
C19   H18   S    
C26   C34   S    
C21   H4    S    
C19   O7    S    
N2    O8    S    
C2    C27   S    
C25   O15   D    
C28   O22   S    
O25   Zn1   S    
C12   C30   S    
C19   H19   S    
C15   C23   S    
C11   C31   S    
C23   H12   S    
C12   C32   S    
C7    N2    D    
C27   O19   D    
C24   O13   D    
C22   C31   S    
C8    O25   A    
C23   C30   S    
C4    O23   A    
C20   H20   S    
C18   O6    S    
N2    Zn2   S    
C17   O4    S    
C3    C34   S    
C20   O8    S    
C9    C14   S    
C1    O1    A    
C11   C16   S    
C21   H5    S    
C12   C15   S    
C25   O16   S    
C16   O2    S    
H10   O18   S    
C28   O21   D    
C7    O7    S    
C18   N1    S    
C17   O3    D    
C9    O27   A    
C16   O29   D    
H16   O6    S    
C1    C5    S    
C27   O20   S    
C10   O9    S    
C6    C17   S    
C21   O9    S    
C2    C8    S    
C3    C5    D    
C11   C12   S    
C18   O5    D    
H14   O2    S    
C6    C7    S    
N1    Zn1   S    
C29   C31   S    
C20   H3    S    
C10   C29   S    
C2    C34   D    
C21   H6    S    
C5    H1    S    
C26   O18   S    
C24   C30   S    
C22   O11   S    
C10   C11   S    
C9    O28   A    
C20   H2    S    
C19   H17   S    
O27   Zn1   S    
O12   Zn2   S    
H13   O22   S    
O23   Zn1   S    
