data_mof_unit_23867.cif
_audit_creation_date              2013-03-05T16:19:41-0500
_audit_creation_method            fapswitch 2.2
_symmetry_space_group_name_H-M    P1
_symmetry_Int_Tables_number       1
_space_group_crystal_system       triclinic
_cell_length_a                    10.963677
_cell_length_b                    10.701114
_cell_length_c                    27.314478
_cell_angle_alpha                 90.004168
_cell_angle_beta                  91.094311
_cell_angle_gamma                 90.190871
_cell_volume                      3204.02943777

loop_
_atom_site_label
_atom_site_type_symbol
_atom_site_description
_atom_site_fract_x
_atom_site_fract_y
_atom_site_fract_z
_atom_type_partial_charge
O1    O     O_R   0.314910 0.616040 0.499990 -0.577782
O2    O     O_R   0.314910 0.383960 0.499990 -0.605830
C1    C     C_R   0.262480 0.500057 0.502559 0.804665
O3    O     O_R   0.500140 0.616020 0.428740 -0.493765
O4    O     O_R   0.500140 0.383980 0.428740 -0.514092
C2    C     C_R   0.498384 0.499908 0.406754 0.928708
Zn1   Zn    Zn3+2 0.500150 0.654960 0.499980 1.090058
Zn2   Zn    Zn3+2 0.500150 0.345040 0.499980 1.104431
O5    O     O_R   0.685320 0.616040 0.499970 -0.515968
O6    O     O_R   0.685320 0.383960 0.499970 -0.516503
O7    O     O_R   0.500090 0.616050 0.571230 -0.632949
O8    O     O_R   0.500090 0.383950 0.571230 -0.578205
C3    C     C_R   0.741076 0.499930 0.493328 0.892244
C4    C     C_R   0.495608 0.500259 0.592424 0.875054
C5    C     C_R   0.334766 0.543612 0.177507 0.605820
O9    O     O_2   0.238948 0.555982 0.207274 -0.511992
N1    N     N_R   0.447223 0.519761 0.197902 -0.332582
C6    C     C_R   0.549533 0.514364 0.170443 0.573202
C7    C     C_R   0.527365 0.601119 0.274806 -0.167404
C8    C     C_R   0.544495 0.594045 0.324979 -0.022049
C9    C     C_R   0.422083 0.407702 0.327125 -0.245422
C10   C     C_R   0.411327 0.407810 0.276019 0.482362
C11   C     C_R   0.460640 0.509041 0.249906 0.152020
C12   C     C_R   0.427271 0.555502 0.097651 -0.086623
C13   C     C_R   0.320239 0.555413 0.126084 -0.030033
C14   C     C_R   0.204585 0.567323 0.101962 0.174018
C15   C     C_R   0.542251 0.536601 0.120266 -0.070297
C16   C     C_R   0.488969 0.500094 0.352400 -0.126459
H1    H     H_    0.378071 0.335039 0.346784 0.279610
C17   C     C_R   0.467760 0.504963 0.644320 -0.131188
C18   C     C_R   0.299051 0.576270 0.970626 0.066300
C19   C     C_R   0.516990 0.625772 0.969932 0.002907
C20   C     C_R   0.405659 0.606299 0.944670 0.079751
C21   C     C_R   0.191998 0.544892 0.943771 -0.218614
C22   C     C_R   0.191940 0.540802 0.892892 -0.124409
C23   C     C_R   0.297020 0.572696 0.867289 -0.014133
C24   C     C_R   0.402456 0.612890 0.893106 -0.092152
C25   C     C_R   0.505943 0.655034 0.867506 -0.040594
C26   C     C_R   0.502958 0.644629 0.816040 0.523777
N2    N     N_R   0.405958 0.588392 0.792554 -0.343958
C27   C     C_R   0.301902 0.557966 0.816561 0.521790
C28   C     C_R   0.342705 0.601121 0.706079 -0.061499
C29   C     C_R   0.365746 0.575983 0.657318 -0.310879
C30   C     C_R   0.543030 0.451429 0.681041 0.363279
C31   C     C_R   0.515787 0.473154 0.729981 -0.204339
C32   C     C_R   0.419319 0.551983 0.742520 0.246487
O10   O     O_2   0.205482 0.509134 0.791674 -0.549859
C33   C     C_R   0.304605 0.575829 0.022482 0.018163
C34   C     C_R   0.420043 0.573728 0.046497 0.041002
C35   C     C_R   0.528525 0.587391 0.019297 0.043189
C36   C     C_R   0.198875 0.575491 0.050824 -0.193780
H2    H     H_    0.306324 0.616278 0.629402 0.157050
H3    H     H_    0.267916 0.661944 0.715408 0.170235
H4    H     H_    0.109626 0.510485 0.873723 0.192075
H5    H     H_    0.109327 0.515156 0.961241 0.147517
H6    H     H_    0.110109 0.586238 0.033580 0.140579
O11   O     O_2   0.658397 0.488097 0.191994 -0.519832
C37   C     C_R   0.647771 0.535586 0.092409 -0.130156
H7    H     H_    0.603091 0.662249 0.341636 0.256986
H8    H     H_    0.568423 0.677527 0.254898 0.178904
H9    H     H_    0.735365 0.514703 0.109588 0.197815
C38   C     C_R   0.611455 0.686878 0.945530 -0.211934
C39   C     C_R   0.608200 0.702034 0.894691 0.183866
O12   O     O_2   0.596802 0.686203 0.789261 -0.555232
C40   C     C_R   0.642699 0.557222 0.042154 0.182186
H10   H     H_    0.688609 0.723395 0.966244 0.171267
H11   H     H_    0.573233 0.434275 0.758803 0.183891
C41   C     C_3   0.072821 0.607591 0.530050 -0.476686
C42   C     C_3   0.072808 0.378942 0.519622 -0.400240
H12   H     H_    0.117829 0.698997 0.523425 0.247286
H13   H     H_    0.101089 0.297767 0.497427 0.276842
H14   H     H_    0.084288 0.587897 0.569912 0.190262
H15   H     H_    0.107414 0.361172 0.557570 0.170988
C43   C     C_3   0.936496 0.617038 0.515980 -0.323360
C44   C     C_3   0.933098 0.391233 0.520200 -0.339491
H16   H     H_    0.885813 0.633491 0.550280 0.244589
H17   H     H_    0.902936 0.401276 0.558644 0.247038
H18   H     H_    0.928779 0.698448 0.492038 0.266730
H19   H     H_    0.892073 0.309174 0.505530 0.307055
H20   H     H_    0.103315 0.622036 0.438615 0.205699
H21   H     H_    0.158242 0.480789 0.420692 0.233125
C45   C     C_3   0.091130 0.522543 0.445404 -0.434485
C46   C     C_3   0.127697 0.501110 0.499676 0.090957
C47   C     C_3   0.885286 0.498872 0.487847 -0.135080
C48   C     C_3   0.956508 0.486103 0.433799 0.597754
C49   C     C_3   0.389633 0.076201 0.471913 0.149525
C50   C     C_3   0.380615 0.922853 0.478130 0.199301
H22   H     H_    0.311253 0.104935 0.493741 0.155090
H23   H     H_    0.313150 0.913345 0.507731 0.124954
C51   C     C_3   0.618966 0.079805 0.480264 0.432327
C52   C     C_3   0.599038 0.927772 0.466301 0.415812
C53   C     C_3   0.485185 0.077514 0.549621 -0.092676
C54   C     C_3   0.503286 0.922484 0.549561 -0.107121
N3    N     N_3   0.499750 0.138610 0.498940 -0.225940
N4    N     N_3   0.499750 0.861390 0.498940 -0.209859
H24   H     H_    0.553242 0.114588 0.575546 0.296243
H25   H     H_    0.591409 0.898867 0.565245 0.271707
S1    S     S_3+6 0.676183 0.366481 0.667867 0.067690
O13   O     O_2   0.640304 0.235681 0.653708 -0.217939
O14   O     O_2   0.742452 0.426856 0.626402 -0.319091
O15   O     O_3   0.769866 0.360084 0.717290 -0.510406
H26   H     H_    0.798117 0.447218 0.722441 0.364636
C55   C     C_3   0.716550 0.764674 0.871570 -0.747548
H27   H     H_    0.767092 0.696337 0.849163 0.267007
H28   H     H_    0.685634 0.844837 0.848768 0.271049
H29   H     H_    0.782093 0.802221 0.899436 0.205252
C56   C     C_3   0.757263 0.527389 0.014421 -0.933324
H30   H     H_    0.805998 0.447317 0.031687 0.249262
H31   H     H_    0.736606 0.497713 0.976249 0.261198
H32   H     H_    0.820146 0.608907 0.015112 0.234021
S2    S     S_3+6 0.340183 0.277882 0.246980 0.085804
O16   O     O_2   0.205266 0.283841 0.255436 -0.217131
O17   O     O_2   0.362861 0.274986 0.192912 -0.308030
O18   O     O_3   0.396069 0.146049 0.272043 -0.480163
H33   H     H_    0.342926 0.078283 0.259016 0.401994
S3    S     S_3+6 0.902527 0.583948 0.383401 0.110560
O19   O     O_2   0.957004 0.541002 0.336139 -0.159388
O20   O     O_2   0.767878 0.564282 0.379486 -0.288760
O21   O     O_3   0.936228 0.736419 0.385445 -0.469409
H34   H     H_    0.974387 0.751019 0.417575 0.358857
S4    S     S_3+6 0.967129 0.333930 0.401230 0.131060
O22   O     O_2   0.081533 0.328102 0.371797 -0.258007
O23   O     O_2   0.966349 0.222822 0.434113 -0.212390
O24   O     O_3   0.853085 0.318856 0.359192 -0.433107
H35   H     H_    0.879385 0.251734 0.336791 0.402753
S5    S     S_3+6 0.302935 0.151350 0.421010 0.147450
O25   O     O_2   0.292167 0.288870 0.423850 -0.282650
O26   O     O_2   0.339556 0.124759 0.369779 -0.159074
O27   O     O_3   0.159867 0.097397 0.426336 -0.447615
H36   H     H_    0.126903 0.088500 0.392469 0.433696
S6    S     S_3+6 0.275153 0.844381 0.433090 0.116462
O28   O     O_2   0.149670 0.854815 0.453759 -0.334008
O29   O     O_2   0.272276 0.906981 0.384095 -0.180089
O30   O     O_3   0.295665 0.694735 0.418467 -0.513898
H37   H     H_    0.259356 0.683131 0.385236 0.377690
S7    S     S_3+6 0.671954 0.161039 0.423835 0.172520
O31   O     O_2   0.742315 0.272814 0.435644 -0.223519
O32   O     O_2   0.758144 0.084234 0.395000 -0.232988
O33   O     O_3   0.566135 0.210430 0.383544 -0.461378
H38   H     H_    0.611511 0.235234 0.354021 0.398696
S8    S     S_3+6 0.570968 0.899027 0.397184 0.136398
O34   O     O_2   0.486394 0.797129 0.384962 -0.253215
O35   O     O_2   0.516348 0.002019 0.369090 -0.187263
O36   O     O_3   0.699337 0.866871 0.366355 -0.456286
H39   H     H_    0.677855 0.876508 0.331151 0.379634
C57   C     C_3   0.371114 0.126748 0.577204 -0.843136
H40   H     H_    0.387645 0.127479 0.617543 0.261295
H41   H     H_    0.348667 0.223266 0.566247 0.279898
H42   H     H_    0.287704 0.070227 0.569917 0.223349
C58   C     C_3   0.420576 0.853943 0.587094 -0.750031
H43   H     H_    0.477161 0.802789 0.614626 0.263356
H44   H     H_    0.366098 0.914353 0.610701 0.230666
H45   H     H_    0.355977 0.787989 0.569015 0.249799
S9    S     S_3+6 0.746753 0.106684 0.529969 0.089305
O37   O     O_2   0.727870 0.226085 0.556934 -0.251933
O38   O     O_2   0.751975 0.013483 0.570731 -0.300521
O39   O     O_3   0.890274 0.108105 0.510231 -0.432378
H46   H     H_    0.943276 0.105074 0.540023 0.379928
S10   S     S_3+6 0.746508 0.855788 0.473427 0.109524
O40   O     O_2   0.767365 0.816563 0.525530 -0.302219
O41   O     O_2   0.748308 0.746066 0.440132 -0.238941
O42   O     O_3   0.868430 0.938862 0.456520 -0.417740
H47   H     H_    0.879679 0.925890 0.421297 0.433426
C59   C     C_3   0.084936 0.567709 0.128640 -0.702823
H48   H     H_    0.004900 0.573325 0.103165 0.194692
H49   H     H_    0.074878 0.479913 0.149865 0.286230
H50   H     H_    0.080623 0.650209 0.153171 0.272201

loop_
_geom_bond_atom_site_label_1
_geom_bond_atom_site_label_2
_geom_bond_distance
_ccdc_geom_bond_type
O39   H46   0.991462 S    
C49   S5    1.854211 S    
C7    C8    1.381819 A    
C12   C15   1.408396 A    
S6    O30   1.667420 S    
O18   H33   0.990555 S    
C23   C27   1.396607 A    
S2    O17   1.502619 D    
C31   C32   1.402581 A    
Zn1   O7    1.990245 S    
C26   O12   1.348055 S    
C3    C47   1.591068 S    
O15   H26   0.990730 S    
C43   H16   1.112690 S    
C59   H48   1.111233 S    
C25   C39   1.423252 A    
S8    O35   1.465975 D    
C28   H3    1.082785 S    
O4    C2    1.378343 A    
O7    C4    1.368823 A    
C49   H22   1.099903 S    
C29   H2    1.083840 S    
C5    C13   1.416280 A    
C41   C43   1.539768 S    
C5    O9    1.347486 S    
C53   H24   1.092430 S    
S3    O19   1.505224 D    
C5    N1    1.368029 A    
C21   C22   1.390413 A    
C28   C32   1.394229 A    
C50   S6    1.869391 S    
C42   H13   1.107761 S    
O5    C3    1.399885 A    
S4    O24   1.688686 S    
C49   N3    1.552117 S    
C30   S1    1.765189 S    
S10   O41   1.485518 D    
C33   C36   1.406158 A    
C2    C16   1.486269 S    
S2    O16   1.503024 D    
C58   H45   1.107633 S    
C50   N4    1.561777 S    
C31   H11   1.082780 S    
C56   H30   1.111574 S    
C18   C20   1.414627 A    
C48   S4    1.860566 S    
C51   S9    1.952802 S    
S9    O38   1.495243 D    
C41   H14   1.113876 S    
C37   H9    1.084722 S    
C21   H5    1.079383 S    
C54   N4    1.529177 S    
C9    C10   1.398655 A    
C22   H4    1.083436 S    
C56   H31   1.108919 S    
C17   C30   1.409575 A    
C54   C58   1.562860 S    
C4    C17   1.456595 S    
S7    O33   1.670897 S    
C37   C40   1.392188 A    
C10   C11   1.409074 A    
C51   N3    1.547732 S    
C57   H41   1.102652 S    
C59   H50   1.109955 S    
S10   O42   1.675144 S    
C38   H10   1.080665 S    
C53   C57   1.565133 S    
Zn2   N3    2.209201 S    
C12   C13   1.419500 A    
S9    O39   1.673048 S    
C39   C55   1.510874 S    
O21   H34   0.977335 S    
S8    O36   1.690168 S    
C26   N2    1.369052 A    
C49   C50   1.652605 S    
O36   H39   0.991099 S    
C8    C16   1.398497 A    
S5    O27   1.678555 S    
O3    Zn1   1.989969 S    
C13   C14   1.423841 A    
C9    H1    1.064557 S    
C45   C46   1.545582 S    
H21   C45   1.103531 S    
O1    C1    1.368433 A    
C22   C23   1.400346 A    
C7    C11   1.394536 A    
C24   C25   1.416558 A    
C42   C46   1.541264 S    
C57   H42   1.109531 S    
C51   S7    1.870798 S    
C6    O11   1.351114 S    
S10   O40   1.497378 D    
Zn2   O8    1.990186 S    
C38   C39   1.397884 A    
C53   N3    1.541810 S    
N1    C6    1.362587 A    
C27   O10   1.349623 S    
C18   C21   1.411669 A    
C55   H28   1.110250 S    
N1    C11   1.429918 S    
C47   C48   1.688960 S    
C8    H7    1.066807 S    
C42   H15   1.113536 S    
C44   H17   1.112213 S    
C19   C35   1.413055 A    
S4    O22   1.504166 D    
C57   H40   1.113257 S    
H20   C45   1.088952 S    
N2    C27   1.365151 A    
C9    C16   1.402725 A    
O8    C4    1.374066 A    
C34   C35   1.421453 A    
S1    O14   1.502150 D    
C18   C33   1.416585 A    
C50   H23   1.110635 S    
C1    C46   1.478387 S    
C56   H32   1.110012 S    
C58   H44   1.098928 S    
C17   C29   1.405476 A    
O3    C2    1.379913 A    
C28   C29   1.386865 A    
N2    C32   1.431404 S    
S6    O28   1.501527 D    
S1    O15   1.682125 S    
C54   H25   1.080125 S    
C30   C31   1.394940 A    
S7    O32   1.490752 D    
O27   H36   0.991168 S    
C12   C34   1.411573 A    
Zn1   O5    2.073789 S    
C23   C24   1.408561 A    
S5    O26   1.490804 D    
O1    Zn1   2.071822 S    
C41   C46   1.540184 S    
C52   S10   1.800464 S    
C48   S3    1.820649 S    
O2    Zn2   2.074541 S    
C6    C15   1.391921 A    
C36   H6    1.079559 S    
C43   C47   1.575858 S    
S7    O31   1.454003 D    
S6    O29   1.496472 D    
O6    C3    1.394957 A    
O4    Zn2   1.990028 S    
O33   H38   0.991313 S    
O30   H37   0.991763 S    
C7    H8    1.083441 S    
O42   H47   0.982209 S    
C45   C48   1.552177 S    
Zn1   N4    2.209235 S    
S3    O21   1.672413 S    
C10   S2    1.771913 S    
C19   C20   1.405525 A    
C59   H49   1.110310 S    
O2    C1    1.372992 A    
C19   C38   1.402279 A    
S8    O34   1.463438 D    
C51   C52   1.683579 S    
C25   C26   1.409899 A    
C15   C37   1.396841 A    
S5    O25   1.478891 D    
C33   C34   1.414588 A    
C14   C59   1.512733 S    
C53   C54   1.671478 S    
S3    O20   1.492290 D    
C42   C44   1.538186 S    
C55   H29   1.110992 S    
C44   C47   1.539149 S    
C35   C40   1.426113 A    
C20   C24   1.409992 A    
S4    O23   1.490246 D    
C52   N4    1.586317 S    
S9    O37   1.491764 D    
S2    O18   1.680529 S    
Zn2   O6    2.071071 S    
S1    O13   1.501305 D    
C43   H18   1.091899 S    
C55   H27   1.109960 S    
C41   H12   1.110508 S    
C58   H43   1.111110 S    
C14   C36   1.399780 A    
C44   H19   1.060384 S    
C40   C56   1.514064 S    
O24   H35   0.990707 S    
C52   S8    1.931464 S    
