data_mof_unit_35532.cif
_audit_creation_date              2012-12-10T17:08:11-0500
_audit_creation_method            fapswitch 2.2
_symmetry_space_group_name_H-M    P1
_symmetry_Int_Tables_number       1
_space_group_crystal_system       triclinic
_cell_length_a                    23.52972
_cell_length_b                    11.059723
_cell_length_c                    9.896873
_cell_angle_alpha                 111.512498
_cell_angle_beta                  99.144223
_cell_angle_gamma                 90.395949
_cell_volume                      2359.65475089

loop_
_atom_site_label
_atom_site_type_symbol
_atom_type_description
_atom_site_fract_x
_atom_site_fract_y
_atom_site_fract_z
_atom_type_partial_charge
C1    C     C_R   0.495856 0.254044 0.440416 0.860229
C2    C     C_R   0.504146 0.745960 0.559582 0.868771
C3    C     C_R   0.230705 0.514385 0.385262 0.036461
C4    C     C_R   0.752711 0.505793 0.375043 0.019598
C5    C     C_R   0.290286 0.514831 0.385645 -0.180681
C6    C     C_R   0.693272 0.505646 0.377179 -0.182769
C7    C     C_R   0.328483 0.500514 0.501833 -0.123412
C8    C     C_R   0.671611 0.499116 0.498537 -0.121234
C9    C     C_R   0.306841 0.486954 0.619950 -0.179276
C10   C     C_R   0.709891 0.491596 0.618598 -0.175364
C11   C     C_R   0.247454 0.486538 0.622643 0.019330
C12   C     C_R   0.769490 0.491294 0.619249 0.034519
C13   C     C_R   0.209236 0.500139 0.504455 0.188817
C14   C     C_R   0.790954 0.498687 0.496876 0.189185
C15   C     C_2   0.493612 0.114407 0.406926 -0.345389
C16   C     C_2   0.506373 0.885602 0.593054 -0.344154
C17   C     C_2   0.501005 0.069642 0.516270 -0.138877
C18   C     C_2   0.499060 0.930361 0.483702 -0.137742
C19   C     C_2   0.507945 0.504688 0.082682 -0.039823
C20   C     C_2   0.504154 0.476672 0.917333 -0.004101
C21   C     C_R   0.390991 0.500203 0.500432 0.810194
C22   C     C_R   0.609037 0.499781 0.499619 0.815668
C23   C     C_R   0.884582 0.615131 0.556241 0.510452
C24   C     C_R   0.115628 0.383597 0.445257 0.510128
C25   C     C_R   0.876140 0.382986 0.438103 0.512705
C26   C     C_R   0.124132 0.615646 0.564551 0.513504
C27   C     C_R   0.935763 0.380688 0.438548 -0.012603
C28   C     C_R   0.064504 0.617944 0.564005 -0.012679
C29   C     C_R   0.970068 0.499264 0.500076 -0.018513
C30   C     C_R   0.030187 0.499386 0.502250 -0.018548
C31   C     C_R   0.944399 0.617718 0.559462 -0.012426
C32   C     C_R   0.055840 0.380960 0.442552 -0.012339
C33   C     C_R   0.961802 0.263180 0.379528 -0.152067
C34   C     C_R   0.038466 0.735453 0.623020 -0.151814
C35   C     C_R   0.021227 0.263320 0.381451 -0.155025
C36   C     C_R   0.979019 0.735348 0.620689 -0.154957
Cu1   Cu    Cu3+1 0.509980 0.521810 0.644910 0.951522
Cu2   Cu    Cu3+1 0.490020 0.478190 0.355090 0.952808
H1    H     H_    0.936376 0.170779 0.331659 0.195100
H2    H     H_    0.063900 0.827843 0.671024 0.195073
H3    H     H_    0.039914 0.171030 0.334913 0.193908
H4    H     H_    0.960322 0.827652 0.667065 0.193840
H5    H     H_    0.307030 0.528048 0.295917 0.195735
H6    H     H_    0.663753 0.511627 0.284355 0.181298
H7    H     H_    0.336351 0.475746 0.709818 0.189165
H8    H     H_    0.693208 0.484517 0.711405 0.195364
H9    H     H_    0.491539 0.863983 0.368895 0.178531
H10   H     H_    0.508600 0.136014 0.631078 0.175058
H11   H     H_    0.513946 0.952241 0.707674 0.146699
H12   H     H_    0.485962 0.047783 0.292299 0.148979
H13   H     H_    0.481851 0.387428 0.837098 0.123537
H14   H     H_    0.538976 0.579965 0.161606 0.150063
N1    N     N_R   0.851968 0.498974 0.496522 -0.494574
N2    N     N_R   0.148264 0.499727 0.505387 -0.494524
N3    N     N_2   0.475010 0.445410 0.137370 -0.132316
N4    N     N_2   0.524990 0.554590 0.862630 -0.139554
O1    O     O_R   0.505330 0.332340 0.577400 -0.585726
O2    O     O_R   0.494670 0.667660 0.422600 -0.579782
O3    O     O_R   0.488470 0.295500 0.332650 -0.578269
O4    O     O_R   0.511530 0.704500 0.667350 -0.593295
O5    O     O_R   0.426310 0.518390 0.622390 -0.579655
O6    O     O_R   0.573690 0.481610 0.377610 -0.586557
O7    O     O_R   0.409450 0.481550 0.377650 -0.577820
O8    O     O_R   0.590550 0.518450 0.622350 -0.574466
O9    O     O_2   0.859119 0.727434 0.612491 -0.522817
O10   O     O_2   0.141039 0.271376 0.388116 -0.523055
O11   O     O_2   0.842516 0.270534 0.380194 -0.521282
O12   O     O_2   0.157792 0.728049 0.623152 -0.521007
C37   C     C_3   0.560942 0.671415 0.960461 -0.180428
C38   C     C_3   0.622238 0.638680 0.006429 -0.737043
H15   H     H_    0.622185 0.564882 0.057757 0.245297
H16   H     H_    0.643772 0.600072 0.908860 0.269641
H17   H     H_    0.647532 0.728191 0.087072 0.237283
H18   H     H_    0.564446 0.739047 0.902812 0.213774
H19   H     H_    0.541157 0.726520 0.057968 0.133731
C39   C     C_3   0.436102 0.334549 0.031853 -0.165971
C40   C     C_3   0.384781 0.299310 0.090090 -0.660933
H20   H     H_    0.397564 0.262475 0.179235 0.255072
H21   H     H_    0.357776 0.383317 0.124245 0.257207
H22   H     H_    0.357316 0.219217 0.999172 0.205420
H23   H     H_    0.414419 0.358050 0.937315 0.154913
H24   H     H_    0.461163 0.247497 0.991022 0.153771
C41   C     C_2   0.190986 0.528864 0.260380 0.431591
H25   H     H_    0.144771 0.528123 0.258497 0.073394
O13   O     O_2   0.209366 0.541745 0.157411 -0.509697
C42   C     C_2   0.774763 0.513704 0.245802 0.454477
H26   H     H_    0.820679 0.514770 0.243322 0.089864
O14   O     O_2   0.741851 0.519163 0.139897 -0.521278
C43   C     C_2   0.225471 0.471803 0.748789 0.455608
H27   H     H_    0.179680 0.472782 0.752884 0.088601
O15   O     O_2   0.258299 0.458277 0.850213 -0.520164
C44   C     C_2   0.809232 0.482916 0.747601 0.430706
H28   H     H_    0.855406 0.481748 0.748989 0.073422
O16   O     O_2   0.790913 0.477148 0.853969 -0.506004

loop_
_geom_bond_atom_site_label_1
_geom_bond_atom_site_label_2
_ccdc_geom_bond_type
C9    H7    S    
C27   C29   A    
C36   H4    S    
C19   C20   S    
C25   O11   S    
C17   H10   S    
C20   N4    D    
C18   H9    S    
C40   H20   S    
C27   C33   A    
C33   H1    S    
C34   H2    S    
Cu1   Cu2   S    
C25   N1    A    
Cu2   O7    S    
C20   H13   S    
C1    O3    A    
C2    O4    A    
C4    C42   S    
C24   N2    A    
C7    C9    A    
C15   H12   S    
Cu2   O2    S    
Cu1   N4    S    
C19   H14   S    
Cu2   N3    S    
C10   H8    S    
C8    C22   S    
C38   H15   S    
C1    C15   S    
C43   O15   D    
C2    C16   S    
C21   O5    A    
C3    C13   A    
C24   O10   S    
C5    H5    S    
C28   C34   A    
C6    H6    S    
C26   N2    A    
C23   N1    A    
C40   H21   S    
C32   C35   A    
C16   H11   S    
C4    C6    A    
C39   H24   S    
C5    C7    A    
C42   H26   S    
C6    C8    A    
C7    C21   S    
C23   C31   A    
C24   C32   A    
C29   C30   A    
C1    O1    A    
C22   O6    A    
C11   C43   S    
C41   H25   S    
C38   H17   S    
C44   O16   D    
C17   C18   S    
C37   H18   S    
C39   C40   S    
C9    C11   A    
C10   C12   A    
N3    C39   S    
C16   C18   D    
C41   O13   D    
C12   C14   A    
C3    C41   S    
Cu1   O8    S    
C13   N2    S    
C40   H22   S    
C19   N3    D    
C15   C17   D    
C12   C44   S    
C3    C5    A    
C39   H23   S    
Cu1   O5    S    
C2    O2    A    
C25   C27   A    
C26   C28   A    
C26   O12   S    
C23   O9    S    
C28   C30   A    
C29   C31   A    
C30   C32   A    
C11   C13   A    
C44   H28   S    
C33   C35   A    
C34   C36   A    
C37   H19   S    
C42   O14   D    
C4    C14   A    
C37   C38   S    
C35   H3    S    
C21   O7    A    
Cu1   O4    S    
C22   O8    A    
Cu2   O3    S    
C14   N1    S    
C8    C10   A    
N4    C37   S    
C31   C36   A    
C38   H16   S    
C43   H27   S    
Cu1   O1    S    
Cu2   O6    S    
