data_mof_unit_32464.cif
_audit_creation_date              2012-12-11T14:28:16-0500
_audit_creation_method            fapswitch 2.2
_symmetry_space_group_name_H-M    P1
_symmetry_Int_Tables_number       1
_space_group_crystal_system       triclinic
_cell_length_a                    10.998253
_cell_length_b                    19.036555
_cell_length_c                    18.48678
_cell_angle_alpha                 90.238853
_cell_angle_beta                  89.202419
_cell_angle_gamma                 89.089428
_cell_volume                      3869.65478412

loop_
_atom_site_label
_atom_site_type_symbol
_atom_type_description
_atom_site_fract_x
_atom_site_fract_y
_atom_site_fract_z
_atom_type_partial_charge
C1    C     C_R   0.320966 0.970311 0.646756 0.567342
C2    C     C_R   0.318856 0.970078 0.853585 0.567667
C3    C     C_R   0.319442 0.030103 0.353652 0.568897
C4    C     C_R   0.322243 0.029741 0.146606 0.565628
C5    C     C_R   0.820966 0.470310 0.646756 0.567349
C6    C     C_R   0.818857 0.470078 0.853585 0.567670
C7    C     C_R   0.819442 0.530102 0.353652 0.568885
C8    C     C_R   0.822241 0.529741 0.146607 0.565623
C9    C     C_3   0.201863 0.743535 0.453607 -0.127129
C10   C     C_3   0.174853 0.729700 0.043029 -0.103130
C11   C     C_3   0.185616 0.222460 0.534403 -0.129001
C12   C     C_3   0.178607 0.225968 0.964337 -0.126163
C13   C     C_3   0.701874 0.243533 0.453611 -0.127151
C14   C     C_3   0.674863 0.229708 0.043034 -0.103134
C15   C     C_3   0.685621 0.722477 0.534404 -0.129002
C16   C     C_3   0.678593 0.725962 0.964341 -0.126161
C17   C     C_3   0.069732 0.745029 0.430455 0.065805
C18   C     C_3   0.039584 0.730886 0.063953 0.065556
C19   C     C_3   0.072215 0.254745 0.570222 0.074159
C20   C     C_3   0.063495 0.256468 0.931409 0.075931
C21   C     C_3   0.569749 0.245036 0.430448 0.065819
C22   C     C_3   0.539591 0.230890 0.063953 0.065557
C23   C     C_3   0.572207 0.754746 0.570221 0.074159
C24   C     C_3   0.563491 0.756471 0.931411 0.075927
C25   C     C_R   0.323159 0.995593 0.425415 -0.018902
C26   C     C_R   0.334836 0.991658 0.076707 -0.017099
C27   C     C_R   0.330997 0.008368 0.577066 -0.015762
C28   C     C_R   0.324062 0.004611 0.925365 -0.014835
C29   C     C_R   0.823159 0.495590 0.425414 -0.018906
C30   C     C_R   0.834826 0.491659 0.076707 -0.017101
C31   C     C_R   0.830997 0.508365 0.577064 -0.015759
C32   C     C_R   0.824066 0.504613 0.925364 -0.014842
C33   C     C_R   0.543122 0.974745 0.422048 -0.075506
C34   C     C_R   0.557990 0.990707 0.068327 -0.078233
C35   C     C_R   0.555329 0.009233 0.568654 -0.091472
C36   C     C_R   0.545826 0.018058 0.920536 -0.082655
C37   C     C_R   0.043123 0.474743 0.422046 -0.075505
C38   C     C_R   0.057976 0.490679 0.068333 -0.078239
C39   C     C_R   0.055328 0.509235 0.568652 -0.091477
C40   C     C_R   0.045836 0.518041 0.920543 -0.082661
C41   C     C_R   0.654712 0.975935 0.455880 -0.128744
C42   C     C_R   0.663702 0.996832 0.026951 -0.135342
C43   C     C_R   0.661565 0.995421 0.528518 -0.148289
C44   C     C_R   0.657671 0.009851 0.953099 -0.141822
C45   C     C_R   0.154713 0.475939 0.455878 -0.128743
C46   C     C_R   0.163690 0.496787 0.026958 -0.135343
C47   C     C_R   0.161565 0.495427 0.528515 -0.148298
C48   C     C_R   0.157673 0.509817 0.953109 -0.141830
C49   C     C_R   0.440532 0.003230 0.536260 -0.020945
C50   C     C_R   0.437513 0.006842 0.960050 -0.025368
C51   C     C_R   0.435501 0.991571 0.460734 -0.017784
C52   C     C_R   0.443425 0.997000 0.035840 -0.019196
C53   C     C_R   0.940532 0.503228 0.536258 -0.020940
C54   C     C_R   0.937516 0.506835 0.960053 -0.025366
C55   C     C_R   0.935501 0.491568 0.460732 -0.017783
C56   C     C_R   0.943418 0.496992 0.035843 -0.019195
C57   C     C_R   0.220899 0.018987 0.540474 -0.024255
C58   C     C_R   0.216740 0.003985 0.968543 -0.021458
C59   C     C_R   0.214212 0.997152 0.467731 -0.026334
C60   C     C_R   0.225936 0.980583 0.040211 -0.030753
C61   C     C_R   0.720899 0.518983 0.540471 -0.024257
C62   C     C_R   0.716740 0.503996 0.968539 -0.021461
C63   C     C_R   0.714211 0.497148 0.467729 -0.026333
C64   C     C_R   0.725924 0.480595 0.040208 -0.030747
C65   C     C_R   0.114428 0.044772 0.576463 0.182215
C66   C     C_R   0.099999 0.024061 0.943324 0.178364
C67   C     C_R   0.097463 0.983027 0.439319 0.170797
C68   C     C_R   0.121185 0.956988 0.076865 0.178439
C69   C     C_R   0.614429 0.544771 0.576460 0.182217
C70   C     C_R   0.600005 0.524076 0.943312 0.178366
C71   C     C_R   0.597462 0.483027 0.439315 0.170799
C72   C     C_R   0.621162 0.457006 0.076856 0.178439
C73   C     C_R   0.001785 0.037511 0.544560 -0.137614
C74   C     C_R   0.997454 0.012158 0.986561 -0.145615
C75   C     C_R   0.993483 0.004790 0.477606 -0.156766
C76   C     C_R   0.007625 0.975823 0.051362 -0.137616
C77   C     C_R   0.501786 0.537512 0.544556 -0.137613
C78   C     C_R   0.497452 0.512175 0.986542 -0.145619
C79   C     C_R   0.493483 0.504793 0.477602 -0.156759
C80   C     C_R   0.507610 0.475845 0.051347 -0.137629
C81   C     C_R   0.180274 0.769980 0.635677 0.548813
C82   C     C_R   0.173946 0.768993 0.864660 0.543628
C83   C     C_R   0.133858 0.242717 0.356129 0.538818
C84   C     C_R   0.133088 0.242756 0.144315 0.535770
C85   C     C_R   0.680269 0.269979 0.635677 0.548817
C86   C     C_R   0.673958 0.268996 0.864661 0.543626
C87   C     C_R   0.633858 0.742717 0.356129 0.538817
C88   C     C_R   0.633085 0.742757 0.144317 0.535775
C89   C     C_R   0.543675 0.768886 0.645232 0.587529
C90   C     C_R   0.540227 0.769843 0.855865 0.585144
C91   C     C_R   0.537363 0.228969 0.357087 0.594807
C92   C     C_R   0.500567 0.213447 0.136574 0.566426
C93   C     C_R   0.043678 0.268885 0.645233 0.587527
C94   C     C_R   0.040229 0.269842 0.855864 0.585135
C95   C     C_R   0.037334 0.728957 0.357097 0.594805
C96   C     C_R   0.000565 0.713446 0.136575 0.566439
C97   C     C_3   0.040071 0.810002 0.476909 -0.091927
C98   C     C_3   0.019200 0.800589 0.024509 -0.088758
C99   C     C_3   0.987357 0.217294 0.518116 -0.112044
C100  C     C_3   0.981427 0.216185 0.984215 -0.108489
C101  C     C_3   0.540092 0.310008 0.476903 -0.091932
C102  C     C_3   0.519207 0.300594 0.024510 -0.088754
C103  C     C_3   0.487368 0.717281 0.518116 -0.112022
C104  C     C_3   0.481412 0.716198 0.984217 -0.108514
C105  C     C_3   0.174357 0.809423 0.500846 -0.119433
C106  C     C_3   0.155529 0.799454 0.002525 -0.116613
C107  C     C_3   0.101488 0.184697 0.480937 -0.105658
C108  C     C_3   0.097940 0.185551 0.018540 -0.097703
C109  C     C_3   0.674372 0.309420 0.500850 -0.119444
C110  C     C_3   0.655539 0.299463 0.002530 -0.116614
C111  C     C_3   0.601513 0.684700 0.480938 -0.105653
C112  C     C_3   0.597915 0.685554 0.018543 -0.097712
C113  C     C_3   0.138823 0.760637 0.562684 0.053852
C114  C     C_3   0.122948 0.757306 0.935651 0.049741
C115  C     C_3   0.105036 0.248788 0.431654 0.059524
C116  C     C_3   0.098619 0.249183 0.069564 0.057021
C117  C     C_3   0.638817 0.260636 0.562684 0.053856
C118  C     C_3   0.622966 0.257313 0.935655 0.049736
C119  C     C_3   0.605035 0.748790 0.431654 0.059522
C120  C     C_3   0.598609 0.749186 0.069566 0.057023
C121  C     C_3   0.005811 0.761318 0.540137 -0.131029
C122  C     C_3   0.987806 0.758710 0.955868 -0.130910
C123  C     C_3   0.992699 0.281422 0.467257 -0.159721
C124  C     C_3   0.983057 0.279609 0.036927 -0.161483
C125  C     C_3   0.505811 0.261326 0.540128 -0.131042
C126  C     C_3   0.487821 0.258714 0.955867 -0.130904
C127  C     C_3   0.492685 0.781408 0.467254 -0.159728
C128  C     C_3   0.483057 0.779622 0.036927 -0.161476
C129  C     C_3   0.032999 0.696085 0.492456 -0.121192
C130  C     C_3   0.006754 0.688757 0.996779 -0.139490
C131  C     C_3   0.076624 0.318670 0.520156 -0.121516
C132  C     C_3   0.063664 0.319906 0.982958 -0.121867
C133  C     C_3   0.532995 0.196094 0.492446 -0.121173
C134  C     C_3   0.506770 0.188761 0.996778 -0.139480
C135  C     C_3   0.576589 0.818670 0.520153 -0.121524
C136  C     C_3   0.563675 0.819910 0.982959 -0.121864
C137  C     C_3   0.166160 0.694879 0.516527 -0.109885
C138  C     C_3   0.142727 0.687522 0.975294 -0.108744
C139  C     C_3   0.190435 0.286370 0.483681 -0.112306
C140  C     C_3   0.179899 0.289424 0.016332 -0.114789
C141  C     C_3   0.666149 0.194878 0.516527 -0.109892
C142  C     C_3   0.642746 0.187529 0.975298 -0.108733
C143  C     C_3   0.690414 0.786386 0.483680 -0.112292
C144  C     C_3   0.679899 0.789419 0.016334 -0.114797
Cr1   Cr    Cr6+3 0.488160 0.884660 0.750000 1.004341
Cr2   Cr    Cr6+3 0.488160 0.115340 0.250000 1.016583
Cr3   Cr    Cr6+3 0.988160 0.384660 0.750000 1.004337
Cr4   Cr    Cr6+3 0.988160 0.615340 0.250000 1.016591
Cr5   Cr    Cr6+3 0.173480 0.883120 0.750000 1.081487
Cr6   Cr    Cr6+3 0.173480 0.116880 0.250000 1.069651
Cr7   Cr    Cr6+3 0.673480 0.383120 0.750000 1.081482
Cr8   Cr    Cr6+3 0.673480 0.616880 0.250000 1.069659
Cr9   Cr    Cr6+3 0.333410 0.727260 0.750000 1.070602
Cr10  Cr    Cr6+3 0.333410 0.272740 0.250000 1.070510
Cr11  Cr    Cr6+3 0.833410 0.227260 0.750000 1.070603
Cr12  Cr    Cr6+3 0.833410 0.772740 0.250000 1.070503
H1    H     H_    0.234106 0.855381 0.506919 0.118149
H2    H     H_    0.220107 0.843418 0.000787 0.118675
H3    H     H_    0.113655 0.131402 0.458179 0.151126
H4    H     H_    0.113334 0.131271 0.037896 0.148793
H5    H     H_    0.734128 0.355374 0.506928 0.118142
H6    H     H_    0.720114 0.343428 0.000797 0.118679
H7    H     H_    0.613709 0.631407 0.458184 0.151119
H8    H     H_    0.613288 0.631274 0.037902 0.148801
H9    H     H_    0.920961 0.057929 0.571692 0.131561
H10   H     H_    0.910523 0.032251 0.970249 0.124802
H11   H     H_    0.906234 0.998497 0.453926 0.129330
H12   H     H_    0.928715 0.963086 0.083482 0.128183
H13   H     H_    0.420963 0.557933 0.571688 0.131554
H14   H     H_    0.410524 0.532267 0.970222 0.124814
H15   H     H_    0.406234 0.498504 0.453920 0.129332
H16   H     H_    0.428695 0.463118 0.083465 0.128178
H17   H     H_    0.979594 0.854666 0.463209 0.151278
H18   H     H_    0.962386 0.843644 0.047261 0.139939
H19   H     H_    0.907953 0.186885 0.535819 0.125792
H20   H     H_    0.902377 0.184621 0.968324 0.131698
H21   H     H_    0.479620 0.354674 0.463205 0.151286
H22   H     H_    0.462389 0.343649 0.047258 0.139949
H23   H     H_    0.407972 0.686863 0.535815 0.125782
H24   H     H_    0.402359 0.684640 0.968322 0.131697
H25   H     H_    0.928509 0.769826 0.578473 0.129602
H26   H     H_    0.916193 0.773298 0.916839 0.131471
H27   H     H_    0.921373 0.310229 0.437234 0.114397
H28   H     H_    0.906488 0.303105 0.068847 0.126551
H29   H     H_    0.428500 0.269836 0.578456 0.129595
H30   H     H_    0.416209 0.273303 0.916835 0.131468
H31   H     H_    0.421356 0.810211 0.437229 0.114396
H32   H     H_    0.406489 0.803120 0.068845 0.126567
H33   H     H_    0.973291 0.649970 0.486854 0.127622
H34   H     H_    0.942520 0.644611 0.997215 0.118873
H35   H     H_    0.062067 0.372546 0.540019 0.164820
H36   H     H_    0.049071 0.374787 0.965726 0.159608
H37   H     H_    0.473278 0.149983 0.486838 0.127625
H38   H     H_    0.442536 0.144614 0.997210 0.118875
H39   H     H_    0.562001 0.872544 0.540013 0.164810
H40   H     H_    0.549105 0.874793 0.965726 0.159605
H41   H     H_    0.214971 0.646660 0.534268 0.126215
H42   H     H_    0.197978 0.643117 0.953559 0.138526
H43   H     H_    0.272108 0.316385 0.467986 0.129946
H44   H     H_    0.258968 0.321671 0.030563 0.124651
H45   H     H_    0.714942 0.146653 0.534270 0.126225
H46   H     H_    0.698011 0.143129 0.953564 0.138518
H47   H     H_    0.772075 0.816413 0.467987 0.129940
H48   H     H_    0.758969 0.821662 0.030565 0.124656
H49   H     H_    0.276437 0.733095 0.413914 0.128693
H50   H     H_    0.249803 0.716606 0.080459 0.142641
H51   H     H_    0.261714 0.196643 0.563275 0.134080
H52   H     H_    0.253891 0.201245 0.932451 0.131006
H53   H     H_    0.776459 0.233092 0.413925 0.128679
H54   H     H_    0.749805 0.216610 0.080468 0.142635
H55   H     H_    0.761723 0.696667 0.563279 0.134073
H56   H     H_    0.753870 0.701232 0.932455 0.131021
H57   H     H_    0.734251 0.959516 0.425277 0.124592
H58   H     H_    0.749768 0.991817 0.052728 0.105356
H59   H     H_    0.748222 0.996098 0.554971 0.112129
H60   H     H_    0.738733 0.014855 0.920233 0.123987
H61   H     H_    0.234253 0.459521 0.425274 0.124599
H62   H     H_    0.249743 0.491744 0.052733 0.105367
H63   H     H_    0.248222 0.496107 0.554967 0.112128
H64   H     H_    0.238737 0.514808 0.920246 0.123976
H65   H     H_    0.540943 0.958084 0.366000 0.136095
H66   H     H_    0.566823 0.977737 0.124959 0.141813
H67   H     H_    0.563484 0.023992 0.624951 0.146231
H68   H     H_    0.544930 0.033198 0.864180 0.146682
H69   H     H_    0.040944 0.458083 0.365999 0.136093
H70   H     H_    0.066796 0.477705 0.124963 0.141806
H71   H     H_    0.063482 0.523994 0.624949 0.146232
H72   H     H_    0.044951 0.533184 0.864189 0.146682
O1    O     O_R   0.575450 0.828820 0.667950 -0.527219
O2    O     O_R   0.575450 0.828820 0.832050 -0.524923
O3    O     O_R   0.575450 0.171180 0.332050 -0.517453
O4    O     O_R   0.575450 0.171180 0.167950 -0.511059
O5    O     O_R   0.075450 0.328820 0.667950 -0.527226
O6    O     O_R   0.075450 0.328820 0.832050 -0.524925
O7    O     O_R   0.075450 0.671180 0.332050 -0.517449
O8    O     O_R   0.075450 0.671180 0.167950 -0.511043
O9    O     O_R   0.416860 0.942890 0.674680 -0.521975
O10   O     O_R   0.416860 0.942890 0.825320 -0.522416
O11   O     O_R   0.416860 0.057110 0.325320 -0.518062
O12   O     O_R   0.416860 0.057110 0.174680 -0.534949
O13   O     O_R   0.916860 0.442890 0.674680 -0.521970
O14   O     O_R   0.916860 0.442890 0.825320 -0.522416
O15   O     O_R   0.916860 0.557110 0.325320 -0.518071
O16   O     O_R   0.916860 0.557110 0.174680 -0.534944
O17   O     O_R   0.213790 0.953680 0.668330 -0.466595
O18   O     O_R   0.213790 0.953680 0.831670 -0.457531
O19   O     O_R   0.213790 0.046320 0.331670 -0.454662
O20   O     O_R   0.213790 0.046320 0.168330 -0.463872
O21   O     O_R   0.713790 0.453680 0.668330 -0.466594
O22   O     O_R   0.713790 0.453680 0.831670 -0.457538
O23   O     O_R   0.713790 0.546320 0.331670 -0.454660
O24   O     O_R   0.713790 0.546320 0.168330 -0.463864
O25   O     O_R   0.121360 0.817890 0.672660 -0.494747
O26   O     O_R   0.121360 0.817890 0.827340 -0.493436
O27   O     O_R   0.121360 0.182110 0.327340 -0.508104
O28   O     O_R   0.121360 0.182110 0.172660 -0.512010
O29   O     O_R   0.621360 0.317890 0.672660 -0.494745
O30   O     O_R   0.621360 0.317890 0.827340 -0.493438
O31   O     O_R   0.621360 0.682110 0.327340 -0.508098
O32   O     O_R   0.621360 0.682110 0.172660 -0.512007
O33   O     O_R   0.206850 0.711370 0.665820 -0.519319
O34   O     O_R   0.206850 0.711370 0.834180 -0.517877
O35   O     O_R   0.206850 0.288630 0.334180 -0.527107
O36   O     O_R   0.206850 0.288630 0.165820 -0.536040
O37   O     O_R   0.706850 0.211370 0.665820 -0.519323
O38   O     O_R   0.706850 0.211370 0.834180 -0.517871
O39   O     O_R   0.706850 0.788630 0.334180 -0.527116
O40   O     O_R   0.706850 0.788630 0.165820 -0.536042
O41   O     O_R   0.457710 0.733190 0.672630 -0.482686
O42   O     O_R   0.457710 0.733190 0.827370 -0.473007
O43   O     O_R   0.457710 0.266810 0.327370 -0.463426
O44   O     O_R   0.457710 0.266810 0.172630 -0.457865
O45   O     O_R   0.957710 0.233190 0.672630 -0.482684
O46   O     O_R   0.957710 0.233190 0.827370 -0.473013
O47   O     O_R   0.957710 0.766810 0.327370 -0.463418
O48   O     O_R   0.957710 0.766810 0.172630 -0.457868
O49   O     O_3   0.331690 0.831680 0.750000 -0.314059
O50   O     O_3   0.331690 0.168320 0.250000 -0.300349
O51   O     O_3   0.831690 0.331680 0.750000 -0.314059
O52   O     O_3   0.831690 0.668320 0.250000 -0.300362
Br1   Br    Br    0.071858 0.929162 0.351938 -0.472267
Br2   Br    Br    0.131242 0.900106 0.162628 -0.454214
Br3   Br    Br    0.119603 0.096296 0.666057 -0.465121
Br4   Br    Br    0.075934 0.080555 0.858785 -0.476244
Br5   Br    Br    0.571853 0.429167 0.351932 -0.472272
Br6   Br    Br    0.631195 0.400125 0.162621 -0.454217
Br7   Br    Br    0.619608 0.596298 0.666051 -0.465120
Br8   Br    Br    0.575961 0.580567 0.858770 -0.476228

loop_
_geom_bond_atom_site_label_1
_geom_bond_atom_site_label_2
_ccdc_geom_bond_type
C6    C32   S    
Cr1   O2    S    
C7    C29   S    
C119  C143  S    
C120  C144  S    
C110  C118  S    
C24   C104  S    
C11   H51   S    
C121  H25   S    
C16   C144  S    
C21   C91   S    
C57   C59   A    
C92   O4    A    
C58   C60   A    
C62   C70   A    
C61   C63   A    
C62   C64   A    
Cr10  O35   S    
C144  H48   S    
C23   C103  S    
C49   C51   A    
C34   C42   A    
C84   O28   A    
Cr4   O15   S    
C50   C52   A    
C23   C89   S    
C36   H68   S    
C38   H70   S    
C97   C105  S    
C73   C75   A    
C87   C119  S    
C90   O42   A    
C42   C44   A    
C20   C132  S    
Cr10  O44   S    
C21   C133  S    
C45   C47   A    
C112  H8    S    
C46   C48   A    
C115  C123  S    
C6    O22   A    
C27   C57   A    
C87   O31   A    
C112  C120  S    
C19   C99   S    
C88   O40   A    
C29   C55   A    
C30   C56   A    
C100  C124  S    
C13   H53   S    
C41   H57   S    
C104  C128  S    
C16   H56   S    
C12   C20   S    
C13   C21   S    
C85   C117  S    
Cr11  O37   S    
C137  H41   S    
C113  C137  S    
C36   C44   A    
C33   C51   A    
C80   H16   S    
C37   C45   A    
C130  C138  S    
C36   C50   A    
C39   C47   A    
C40   C48   A    
C20   C94   S    
C44   H60   S    
C133  C141  S    
Cr1   O49   S    
C24   C90   S    
C136  H40   S    
C28   C58   A    
C98   C106  S    
C61   C69   A    
C140  H44   S    
C121  C129  S    
C33   C41   A    
C111  H7    S    
C1    O17   A    
C10   C18   S    
C76   H12   S    
Cr12  O48   S    
C2    C28   S    
C32   C62   A    
C134  H38   S    
C129  C137  S    
C126  C134  S    
C7    O23   A    
C8    O16   A    
C84   O36   A    
C10   C138  S    
C81   O25   A    
C130  H34   S    
C143  H47   S    
C14   C142  S    
C81   O33   A    
Cr5   O18   S    
C83   O35   A    
C67   Br1   S    
C71   C79   A    
C110  H6    S    
C95   O47   A    
Cr6   O20   S    
C74   C76   A    
C105  C113  S    
C124  H28   S    
C35   H67   S    
C78   C80   A    
Cr3   O13   S    
Cr5   O25   S    
C66   C74   A    
C78   H14   S    
C124  C132  S    
C125  H29   S    
C97   C121  S    
C59   C67   A    
C129  H33   S    
C35   C49   A    
C101  C125  S    
Cr5   O49   S    
C35   C43   A    
C132  H36   S    
C24   C136  S    
C135  C143  S    
C84   C116  S    
C9    C137  S    
Cr11  O46   S    
Cr7   O22   S    
C68   Br2   S    
Cr2   O3    S    
C100  C108  S    
C83   C115  S    
C103  C127  S    
C73   H9    S    
C104  C112  S    
C1    O9    A    
C91   O3    A    
C40   H72   S    
C93   O45   A    
C127  H31   S    
Cr12  O40   S    
Cr1   O10   S    
C15   C143  S    
C40   C54   A    
C96   O48   A    
C10   C106  S    
C67   C75   A    
C138  H42   S    
Cr8   O24   S    
Cr7   O29   S    
C14   C110  S    
Cr1   O1    S    
C8    O24   A    
C102  C126  S    
C103  C111  S    
C68   C76   A    
C38   C56   A    
Cr4   O7    S    
C85   O29   A    
C14   C22   S    
C10   H50   S    
C72   C80   A    
Cr8   O31   S    
Cr6   O27   S    
C102  H22   S    
C37   H69   S    
C114  C138  S    
C38   C46   A    
C97   H17   S    
Cr10  O36   S    
C37   C55   A    
Cr3   O6    S    
C99   H19   S    
C133  H37   S    
Cr4   O16   S    
C22   C92   S    
C90   O2    A    
C25   C59   A    
C85   O37   A    
Cr2   O50   S    
C17   C97   S    
C27   C49   A    
C87   O39   A    
C119  C127  S    
C29   C63   A    
C46   H62   S    
C30   C64   A    
C41   C43   A    
C31   C61   A    
Cr9   O42   S    
C109  C117  S    
C11   C19   S    
C142  H46   S    
C127  C135  S    
Cr12  O52   S    
C128  C136  S    
C92   O44   A    
C101  C109  S    
C45   H61   S    
Cr9   O49   S    
C79   H15   S    
C11   C139  S    
C86   O30   A    
C69   C77   A    
C105  H1    S    
C82   O34   A    
C12   C140  S    
C17   C95   S    
C13   C141  S    
C88   C120  S    
C39   H71   S    
C19   C93   S    
C77   C79   A    
C3    O19   A    
C32   C54   A    
C123  H27   S    
C5    O21   A    
C126  H30   S    
C72   Br6   S    
C93   O5    A    
Cr4   O52   S    
C83   O27   A    
C117  C141  S    
C134  C142  S    
C107  H3    S    
C20   C100  S    
C3    C25   S    
C4    O12   A    
C86   C118  S    
C63   C71   A    
C69   Br7   S    
C22   C134  S    
C70   Br8   S    
C102  C110  S    
Cr10  O43   S    
C74   H10   S    
C16   C112  S    
C12   C108  S    
C48   H64   S    
Cr5   O17   S    
C116  C124  S    
C123  C131  S    
C128  H32   S    
C94   O6    A    
C57   C65   A    
C94   O46   A    
C4    C26   S    
C120  C128  S    
C100  H20   S    
C132  C140  S    
C99   C107  S    
Cr2   O12   S    
C34   C52   A    
C23   C135  S    
C8    C30   S    
C108  C116  S    
C2    O18   A    
C136  C144  S    
C39   C53   A    
C103  H23   S    
Cr11  O38   S    
C101  H21   S    
C88   O32   A    
C135  H39   S    
Cr2   O11   S    
C60   C68   A    
C81   C113  S    
C82   O26   A    
C9    H49   S    
C9    C105  S    
C3    O11   A    
C70   C78   A    
C18   C96   S    
Cr11  O45   S    
C43   H59   S    
Cr7   O21   S    
Cr2   O4    S    
C106  C114  S    
C89   O41   A    
C12   H52   S    
C111  C119  S    
C141  H45   S    
C91   O43   A    
C98   H18   S    
C139  H43   S    
C5    C31   S    
C65   C73   A    
Cr7   O51   S    
C4    O20   A    
Cr12  O47   S    
C15   H55   S    
Cr8   O52   S    
C28   C50   A    
C58   C66   A    
Cr1   O9    S    
Cr11  O51   S    
C21   C101  S    
C15   C23   S    
C13   C109  S    
C16   C24   S    
C95   O7    A    
C53   C55   A    
C19   C131  S    
Cr6   O19   S    
C54   C56   A    
C14   H54   S    
C17   C129  S    
C15   C111  S    
Cr10  O50   S    
C131  C139  S    
C82   C114  S    
C2    O10   A    
Cr3   O14   S    
Cr5   O26   S    
C106  H2    S    
C47   H63   S    
Cr4   O8    S    
Cr6   O50   S    
C42   H58   S    
C26   C52   A    
Cr8   O32   S    
Cr6   O28   S    
C96   O8    A    
C113  C121  S    
C65   Br3   S    
C31   C53   A    
C66   Br4   S    
Cr9   O34   S    
C107  C115  S    
C98   C122  S    
Cr3   O5    S    
C9    C17   S    
C11   C107  S    
C71   Br5   S    
Cr9   O33   S    
C99   C123  S    
C125  C133  S    
Cr9   O41   S    
C115  C139  S    
C118  C142  S    
Cr3   O51   S    
C108  H4    S    
C131  H35   S    
C118  C126  S    
C25   C51   A    
C22   C102  S    
C5    O13   A    
C109  H5    S    
C104  H24   S    
Cr12  O39   S    
C26   C60   A    
C64   C72   A    
C18   C130  S    
C114  C122  S    
C122  H26   S    
C77   H13   S    
C7    O15   A    
C1    C27   S    
C86   O38   A    
C6    O14   A    
C75   H11   S    
C18   C98   S    
C89   O1    A    
C117  C125  S    
C122  C130  S    
Cr8   O23   S    
C34   H66   S    
Cr7   O30   S    
C33   H65   S    
C116  C140  S    
