data_mof_unit_53364.cif
_audit_creation_date              2012-12-10T16:50:11-0500
_audit_creation_method            fapswitch 2.2
_symmetry_space_group_name_H-M    P1
_symmetry_Int_Tables_number       1
_space_group_crystal_system       triclinic
_cell_length_a                    7.8667
_cell_length_b                    8.557717
_cell_length_c                    10.57577
_cell_angle_alpha                 90.848915
_cell_angle_beta                  86.607362
_cell_angle_gamma                 93.369347
_cell_volume                      709.449090028

loop_
_atom_site_label
_atom_site_type_symbol
_atom_type_description
_atom_site_fract_x
_atom_site_fract_y
_atom_site_fract_z
_atom_type_partial_charge
C1    C     C_R   0.545208 0.794168 0.497087 0.933933
C2    C     C_R   0.454805 0.205841 0.503451 0.972367
C3    C     C_R   0.499147 0.515951 0.261552 0.920039
C4    C     C_R   0.202190 0.401147 0.902668 0.496903
C5    C     C_R   0.074020 0.510071 0.913573 -0.313832
C6    C     C_R   0.094124 0.638572 0.996752 0.440533
C7    C     C_R   0.211672 0.629873 0.092441 0.334444
C8    C     C_R   0.344050 0.526563 0.070924 -0.125468
C9    C     C_3   0.037259 0.197836 0.816773 -0.253007
C10   C     C_R   0.357543 0.453212 0.953271 -0.102595
C11   C     C_R   0.505594 0.501385 0.876116 -0.304754
C12   C     C_R   0.637023 0.598374 0.929035 0.378746
C13   C     C_R   0.638117 0.612389 0.060269 0.442384
C14   C     C_R   0.494608 0.552428 0.130819 -0.225538
C15   C     C_2   0.568811 0.957829 0.495538 -0.372726
C16   C     C_2   0.431202 0.042178 0.505832 -0.328590
C17   C     C_R   0.501311 0.493483 0.740434 0.940813
H1    H     H_    0.988060 0.617228 0.595320 0.206711
H2    H     H_    0.082555 0.864761 0.013501 0.337278
H3    H     H_    0.103019 0.777904 0.206546 0.347370
H4    H     H_    0.723833 0.738737 0.200251 0.328308
H5    H     H_    0.975263 0.506043 0.846926 0.213340
H6    H     H_    0.699004 0.008343 0.485658 0.180536
H7    H     H_    0.301007 0.991671 0.515857 0.185058
H8    H     H_    0.011964 0.382674 0.404795 0.195602
H9    H     H_    0.688805 0.734756 0.785246 0.321235
H10   H     H_    0.952066 0.260497 0.757328 0.166595
H11   H     H_    0.978243 0.180638 0.914361 0.161599
H12   H     H_    0.051414 0.079978 0.773673 0.208980
N1    N     N_2   0.950330 0.457950 0.466250 -0.173948
N2    N     N_2   0.049670 0.542050 0.533750 -0.167762
O1    O     O_R   0.389250 0.738570 0.508280 -0.597599
O2    O     O_3   0.200111 0.276478 0.816665 -0.589179
O3    O     O_3   0.023654 0.776771 0.968656 -0.656910
O4    O     O_3   0.217738 0.736739 0.191489 -0.752996
O5    O     O_3   0.765393 0.702305 0.115204 -0.710341
O6    O     O_R   0.678390 0.711630 0.486650 -0.641467
O7    O     O_R   0.355400 0.513470 0.694050 -0.580770
O8    O     O_R   0.644540 0.486530 0.672420 -0.632205
O9    O     O_R   0.321610 0.288370 0.513350 -0.611552
O10   O     O_R   0.610750 0.261430 0.491720 -0.621525
O11   O     O_R   0.355460 0.513470 0.327580 -0.573433
O12   O     O_R   0.644600 0.486530 0.305950 -0.625121
O13   O     O_3   0.749243 0.694730 0.856520 -0.691273
Zn1   Zn    Zn3+2 0.306930 0.517990 0.514440 0.993897
Zn2   Zn    Zn3+2 0.693070 0.482010 0.485560 0.945919

loop_
_geom_bond_atom_site_label_1
_geom_bond_atom_site_label_2
_ccdc_geom_bond_type
C11   C12   A    
C3    O11   A    
C6    C7    A    
C1    C15   S    
C1    O6    A    
C2    C16   S    
O1    Zn1   S    
C9    H12   S    
O10   Zn2   S    
O9    Zn1   S    
C15   H6    S    
H9    O13   S    
C7    C8    A    
C12   O13   S    
H4    O5    S    
C13   C14   A    
C9    O2    S    
C3    O12   A    
C5    C6    A    
C3    C14   S    
O8    Zn2   S    
C8    C10   A    
C17   O7    A    
N2    Zn1   S    
N1    N2    D    
O12   Zn2   S    
C10   C11   A    
O11   Zn1   S    
C2    O10   A    
C4    C10   A    
C15   C16   D    
C2    O9    A    
C12   C13   A    
C9    H10   S    
C13   O5    S    
C16   H7    S    
C17   O8    A    
H8    N1    S    
C4    O2    S    
C11   C17   S    
O7    Zn1   S    
C8    C14   A    
H1    N2    S    
O6    Zn2   S    
H3    O4    S    
C7    O4    S    
N1    Zn2   S    
C1    O1    A    
C5    H5    S    
C6    O3    S    
C9    H11   S    
C4    C5    A    
H2    O3    S    
