data_mof_unit_40142.cif
_audit_creation_date              2012-12-10T20:37:27-0500
_audit_creation_method            fapswitch 2.2
_symmetry_space_group_name_H-M    P1
_symmetry_Int_Tables_number       1
_space_group_crystal_system       triclinic
_cell_length_a                    15.719179
_cell_length_b                    10.703895
_cell_length_c                    9.893803
_cell_angle_alpha                 89.16499
_cell_angle_beta                  89.305645
_cell_angle_gamma                 90.541788
_cell_volume                      1664.31983231

loop_
_atom_site_label
_atom_site_type_symbol
_atom_type_description
_atom_site_fract_x
_atom_site_fract_y
_atom_site_fract_z
_atom_type_partial_charge
C1    C     C_R   0.502142 0.259850 0.500565 0.930449
C2    C     C_3   0.082847 0.499136 0.501304 0.124350
C3    C     C_3   0.971860 0.596499 0.573154 -0.214677
C4    C     C_3   0.917165 0.499353 0.500476 0.156381
C5    C     C_3   0.029810 0.607692 0.445391 -0.243559
C6    C     C_3   0.974258 0.509757 0.375899 0.499028
C7    C     C_1   0.173700 0.499140 0.502293 -0.031163
C8    C     C_1   0.826300 0.499734 0.498438 0.011622
C9    C     C_R   0.517202 0.061055 0.621952 0.042483
C10   C     C_R   0.515028 0.128220 0.500484 -0.065366
C11   C     C_R   0.529910 0.066669 0.377939 -0.219357
C12   C     C_R   0.337970 0.499741 0.500707 0.922988
C13   C     C_R   0.531020 0.937362 0.376908 -0.207235
C14   C     C_R   0.517785 0.871053 0.498552 -0.142412
C15   C     C_R   0.519683 0.933461 0.620860 0.130883
C16   C     C_3   0.462538 0.919302 0.741861 0.175464
C17   C     C_3   0.458715 0.060935 0.742602 0.136126
C18   C     C_R   0.428286 0.468498 0.073076 0.148301
C19   C     C_R   0.566342 0.551143 0.068497 -0.031726
C20   C     C_R   0.566990 0.546827 0.924679 -0.073296
C21   C     C_R   0.427718 0.470663 0.931060 0.246482
C22   C     C_3   0.377841 0.351977 0.928409 0.195463
C23   C     C_R   0.503444 0.739807 0.499136 0.867294
C24   C     C_3   0.379214 0.349208 0.082394 -0.564264
C25   C     C_R   0.662037 0.500154 0.499308 0.885929
C26   C     C_3   0.970582 0.391320 0.556231 -0.218179
C27   C     C_3   0.028540 0.401482 0.428380 -0.239842
C28   C     C_1   0.249020 0.499360 0.502161 -0.147137
C29   C     C_1   0.750986 0.499998 0.497996 -0.142476
C30   C     C_3   0.026879 0.488450 0.629169 -0.111315
H1    H     H_    0.053335 0.323087 0.367622 0.153168
H2    H     H_    0.487526 0.104924 0.832537 0.120970
H3    H     H_    0.620483 0.584528 0.866995 0.203455
H4    H     H_    0.412894 0.276066 0.879007 0.134032
H5    H     H_    0.315729 0.361658 0.130836 0.231496
H6    H     H_    0.417260 0.271175 0.124746 0.181834
H7    H     H_    0.944394 0.303566 0.601999 0.160943
H8    H     H_    0.055615 0.695106 0.398303 0.153558
H9    H     H_    0.946707 0.675462 0.632669 0.165393
H10   H     H_    0.050986 0.479627 0.733860 0.161354
H11   H     H_    0.534864 0.117126 0.282414 0.173039
H12   H     H_    0.536102 0.890325 0.280969 0.169905
H13   H     H_    0.401376 0.869931 0.721331 0.126241
N1    N     N_R   0.499430 0.499140 0.142800 -0.156072
N2    N     N_R   0.499430 0.499180 0.857150 -0.166864
O1    O     O_R   0.500010 0.316790 0.614690 -0.605488
O2    O     O_R   0.500000 0.316760 0.385350 -0.632906
O3    O     O_R   0.376780 0.500010 0.614650 -0.569954
O4    O     O_R   0.376770 0.499970 0.385310 -0.617654
O5    O     O_R   0.500000 0.683240 0.614650 -0.591562
O6    O     O_R   0.499990 0.683210 0.385310 -0.652924
O7    O     O_R   0.623230 0.500030 0.614690 -0.623730
O8    O     O_R   0.623220 0.499990 0.385350 -0.632150
Zn1   Zn    Zn3+2 0.500010 0.500020 0.653130 0.994935
Zn2   Zn    Zn3+2 0.499990 0.499980 0.346870 0.943074
O9    O     O_3   0.506785 0.870663 0.852524 -0.758667
H14   H     H_    0.464683 0.864591 0.927899 0.322189
O10   O     O_3   0.377697 0.104746 0.709511 -0.770143
H15   H     H_    0.341349 0.088194 0.790594 0.320272
C31   C     C_2   0.635665 0.620154 0.134271 0.480661
H16   H     H_    0.623829 0.669829 0.226750 0.102599
O11   O     O_2   0.706649 0.626301 0.082888 -0.560119
O12   O     O_3   0.296283 0.371989 0.877452 -0.719230
H17   H     H_    0.267192 0.289365 0.881037 0.340417
O13   O     O_3   0.943525 0.520843 0.244312 -0.731318
H18   H     H_    0.994828 0.525547 0.185149 0.328003

loop_
_geom_bond_atom_site_label_1
_geom_bond_atom_site_label_2
_ccdc_geom_bond_type
C14   C23   S    
C3    C30   S    
C4    C26   S    
C16   O9    S    
C26   H7    S    
C26   C30   S    
C2    C27   S    
C18   N1    A    
C19   C31   S    
C18   C21   A    
C9    C10   A    
O6    Zn2   S    
C2    C7    S    
C16   H13   S    
C12   O3    A    
C17   O10   S    
C2    C30   S    
O4    Zn2   S    
O1    Zn1   S    
C19   C20   A    
C31   H16   S    
C12   O4    A    
C3    C4    S    
C25   O7    A    
C30   H10   S    
C24   H6    S    
C21   C22   S    
O9    H14   S    
C31   O11   D    
O3    Zn1   S    
C11   C13   A    
N1    Zn2   S    
C26   C27   S    
O5    Zn1   S    
C12   C28   S    
C18   C24   S    
C8    C29   T    
C4    C6    S    
C13   H12   S    
C6    O13   S    
O7    Zn1   S    
N2    Zn1   S    
C11   H11   S    
C21   N2    A    
O8    Zn2   S    
C25   C29   S    
C5    C6    S    
C22   H4    S    
C22   C24   S    
C1    O1    A    
C24   H5    S    
C10   C11   A    
C20   H3    S    
C27   H1    S    
O12   H17   S    
C2    C5    S    
C19   N1    A    
O2    Zn2   S    
O13   H18   S    
C1    C10   S    
C20   N2    A    
C9    C17   S    
C4    C8    S    
C3    H9    S    
C17   H2    S    
C14   C15   A    
C1    O2    A    
C23   O5    A    
C22   O12   S    
C13   C14   A    
O10   H15   S    
C5    H8    S    
C23   O6    A    
C15   C16   S    
C7    C28   T    
C6    C27   S    
C9    C15   A    
C25   O8    A    
C16   C17   S    
C3    C5    S    
