data_mof_unit_12995.cif
_audit_creation_date              2012-12-11T15:50:24-0500
_audit_creation_method            fapswitch 2.2
_symmetry_space_group_name_H-M    P1
_symmetry_Int_Tables_number       1
_space_group_crystal_system       triclinic
_cell_length_a                    18.960989
_cell_length_b                    11.072602
_cell_length_c                    18.825573
_cell_angle_alpha                 89.812342
_cell_angle_beta                  90.984207
_cell_angle_gamma                 89.892581
_cell_volume                      3951.77002967

loop_
_atom_site_label
_atom_site_type_symbol
_atom_type_description
_atom_site_fract_x
_atom_site_fract_y
_atom_site_fract_z
_atom_type_partial_charge
C1    C     C_R   0.273255 0.040541 0.854468 0.582675
C2    C     C_R   0.726337 0.039519 0.145355 0.561119
C3    C     C_R   0.773255 0.540541 0.854468 0.582669
C4    C     C_R   0.226337 0.539520 0.145355 0.561111
C5    C     C_3   0.512974 0.715200 0.976684 0.321883
C6    C     C_3   0.459014 0.748016 0.033469 0.320070
C7    C     C_3   0.012971 0.215198 0.976686 0.321875
C8    C     C_3   0.959010 0.248023 0.033471 0.320063
C9    C     C_R   0.241465 0.576680 0.073062 -0.021788
C10   C     C_R   0.757717 0.579338 0.926889 -0.013036
C11   C     C_R   0.741463 0.076677 0.073062 -0.021781
C12   C     C_R   0.257717 0.079337 0.926889 -0.013041
C13   C     C_R   0.302659 0.543304 0.038010 0.097478
C14   C     C_R   0.696279 0.546283 0.961890 0.068907
C15   C     C_R   0.802658 0.043305 0.038010 0.097473
C16   C     C_R   0.196279 0.046283 0.961890 0.068902
C17   C     C_R   0.308084 0.556068 0.964868 0.016420
C18   C     C_R   0.692061 0.553708 0.035721 0.073511
C19   C     C_R   0.808085 0.056071 0.964868 0.016408
C20   C     C_R   0.192062 0.053708 0.035721 0.073517
C21   C     C_R   0.188990 0.632301 0.959490 0.411266
C22   C     C_R   0.812067 0.623806 0.041728 0.395429
C23   C     C_R   0.688989 0.132299 0.959489 0.411266
C24   C     C_R   0.312067 0.123806 0.041728 0.395429
C25   C     C_R   0.185696 0.626177 0.032522 -0.091325
C26   C     C_R   0.814252 0.624641 0.968218 -0.049963
C27   C     C_R   0.685695 0.126172 0.032521 -0.091321
C28   C     C_R   0.314252 0.124641 0.968218 -0.049971
C29   C     C_3   0.340435 0.426039 0.038842 -0.171554
C30   C     C_3   0.660533 0.427664 0.960281 -0.173357
C31   C     C_3   0.840442 0.926048 0.038843 -0.171556
C32   C     C_3   0.160531 0.927665 0.960281 -0.173359
C33   C     C_3   0.346987 0.439351 0.959106 -0.250611
C34   C     C_3   0.654397 0.436185 0.040101 -0.249152
C35   C     C_3   0.846995 0.939363 0.959107 -0.250605
C36   C     C_3   0.154395 0.936187 0.040101 -0.249149
C37   C     C_R   0.250189 0.595197 0.924021 0.037664
C38   C     C_R   0.750314 0.590217 0.076888 0.041713
C39   C     C_R   0.750189 0.095196 0.924021 0.037658
C40   C     C_R   0.250314 0.090216 0.076888 0.041714
C41   C     C_R   0.494022 0.825964 0.420554 0.024026
C42   C     C_R   0.475979 0.829831 0.568176 0.009265
C43   C     C_R   0.994057 0.325959 0.420574 0.024016
C44   C     C_R   0.976063 0.329852 0.568207 0.009319
C45   C     C_R   0.467360 0.820104 0.856524 0.638953
C46   C     C_R   0.531717 0.822050 0.143951 0.619542
C47   C     C_R   0.967360 0.320104 0.856524 0.638935
C48   C     C_R   0.031717 0.322050 0.143951 0.619546
C49   C     C_R   0.495682 0.719706 0.461087 -0.030791
C50   C     C_R   0.485343 0.721324 0.532981 -0.045606
C51   C     C_R   0.995775 0.219720 0.461121 -0.030728
C52   C     C_R   0.985463 0.221350 0.533019 -0.045443
C53   C     C_R   0.463430 0.935226 0.527427 -0.140321
C54   C     C_R   0.471218 0.932826 0.453173 -0.091712
C55   C     C_R   0.963464 0.435221 0.527447 -0.140315
C56   C     C_R   0.971229 0.432806 0.453190 -0.091735
C57   C     C_3   0.554081 0.629411 0.470002 0.747333
C58   C     C_3   0.539392 0.626461 0.548268 0.760715
C59   C     C_3   0.054215 0.129499 0.470023 0.747275
C60   C     C_3   0.039563 0.126570 0.548297 0.760658
C61   C     C_R   0.250491 0.602389 0.419084 0.003404
C62   C     C_R   0.763106 0.558017 0.568702 0.071584
C63   C     C_R   0.750489 0.102389 0.419083 0.003415
C64   C     C_R   0.263112 0.058004 0.568698 0.071647
C65   C     C_R   0.200110 0.669256 0.455890 0.050887
C66   C     C_R   0.816095 0.618902 0.533848 0.031767
C67   C     C_R   0.700103 0.169244 0.455891 0.050918
C68   C     C_R   0.316097 0.118899 0.533846 0.031751
C69   C     C_R   0.205290 0.680809 0.527837 -0.124771
C70   C     C_R   0.814968 0.629230 0.461838 -0.108514
C71   C     C_R   0.705289 0.180813 0.527836 -0.124771
C72   C     C_R   0.314971 0.129231 0.461836 -0.108495
C73   C     C_R   0.317906 0.579767 0.528293 -0.091646
C74   C     C_R   0.714734 0.495242 0.454268 -0.087948
C75   C     C_R   0.817915 0.079805 0.528287 -0.091642
C76   C     C_R   0.214746 0.995223 0.454263 -0.087987
C77   C     C_R   0.313356 0.568851 0.454384 -0.172470
C78   C     C_R   0.715548 0.487035 0.528457 -0.086915
C79   C     C_R   0.813360 0.068874 0.454380 -0.172465
C80   C     C_R   0.215560 0.987014 0.528452 -0.086971
C81   C     C_3   0.121542 0.653678 0.461136 0.721103
C82   C     C_3   0.843274 0.743279 0.545713 0.727780
C83   C     C_3   0.621540 0.153625 0.461145 0.721085
C84   C     C_3   0.343266 0.243282 0.545714 0.727821
C85   C     C_3   0.128014 0.672113 0.539962 -0.130608
C86   C     C_3   0.841710 0.757223 0.466084 -0.142719
C87   C     C_3   0.628015 0.172085 0.539968 -0.130618
C88   C     C_3   0.341698 0.257233 0.466086 -0.142689
C89   C     C_R   0.260572 0.636849 0.851628 0.588555
C90   C     C_R   0.739614 0.635870 0.148668 0.572417
C91   C     C_R   0.760572 0.136849 0.851627 0.588552
C92   C     C_R   0.239614 0.135870 0.148668 0.572409
C93   C     C_R   0.259838 0.625373 0.565608 0.045775
C94   C     C_R   0.759750 0.578036 0.421608 0.034200
C95   C     C_R   0.759844 0.125394 0.565605 0.045772
C96   C     C_R   0.259756 0.078027 0.421604 0.034246
C97   C     C_R   0.273439 0.039607 0.643600 0.595138
C98   C     C_R   0.729063 0.047517 0.352903 0.577566
C99   C     C_R   0.773437 0.539612 0.643602 0.595088
C100  C     C_R   0.229064 0.547518 0.352903 0.577573
C101  C     C_R   0.462931 0.823083 0.643707 0.576715
C102  C     C_R   0.528688 0.822972 0.351912 0.599394
C103  C     C_R   0.962998 0.323094 0.643735 0.576739
C104  C     C_R   0.028691 0.322971 0.351916 0.599368
C105  C     C_R   0.262403 0.645234 0.640832 0.576864
C106  C     C_R   0.741673 0.634317 0.354638 0.588489
C107  C     C_R   0.762406 0.145245 0.640829 0.576877
C108  C     C_R   0.241676 0.134312 0.354635 0.588548
C109  C     C_3   0.487261 0.939204 0.023780 0.342803
C110  C     C_3   0.540703 0.905343 0.966504 0.338453
C111  C     C_3   0.987265 0.439208 0.023778 0.342808
C112  C     C_3   0.040706 0.405340 0.966503 0.338453
C113  C     C_3   0.432240 0.855444 0.988523 0.285787
C114  C     C_3   0.567324 0.799090 0.011920 0.293355
C115  C     C_3   0.932241 0.355452 0.988523 0.285794
C116  C     C_3   0.067323 0.299084 0.011920 0.293358
C117  C     C_3   0.486521 0.822716 0.931495 -0.075455
C118  C     C_3   0.513037 0.831461 0.068982 -0.072477
C119  C     C_3   0.986522 0.322716 0.931495 -0.075454
C120  C     C_3   0.013036 0.331463 0.068982 -0.072480
Cr1   Cr    Cr6+3 0.229640 0.835880 0.747370 1.116169
Cr2   Cr    Cr6+3 0.770360 0.835880 0.252630 1.092867
Cr3   Cr    Cr6+3 0.729640 0.335880 0.747370 1.116167
Cr4   Cr    Cr6+3 0.270360 0.335880 0.252630 1.092892
Cr5   Cr    Cr6+3 0.387390 0.989720 0.750850 1.140648
Cr6   Cr    Cr6+3 0.612610 0.989720 0.249150 1.153561
Cr7   Cr    Cr6+3 0.887390 0.489720 0.750850 1.140643
Cr8   Cr    Cr6+3 0.112610 0.489720 0.249150 1.153577
Cr9   Cr    Cr6+3 0.385770 0.677220 0.749340 1.138720
Cr10  Cr    Cr6+3 0.614230 0.677220 0.250660 1.135659
Cr11  Cr    Cr6+3 0.885770 0.177220 0.749340 1.138690
Cr12  Cr    Cr6+3 0.114230 0.177220 0.250660 1.135654
H1    H     H_    0.364678 0.547182 0.556065 0.222317
H2    H     H_    0.673946 0.449244 0.423951 0.216794
H3    H     H_    0.864694 0.047242 0.556057 0.222175
H4    H     H_    0.173963 0.949216 0.423945 0.216853
H5    H     H_    0.355214 0.523362 0.426540 0.159933
H6    H     H_    0.677480 0.429985 0.554164 0.175006
H7    H     H_    0.855220 0.023392 0.426534 0.159876
H8    H     H_    0.177494 0.929960 0.554158 0.175020
H9    H     H_    0.113409 0.591316 0.571754 0.169420
H10   H     H_    0.894887 0.767315 0.442799 0.173892
H11   H     H_    0.613424 0.091290 0.571769 0.169427
H12   H     H_    0.394873 0.267346 0.442799 0.173924
H13   H     H_    0.136559 0.653405 0.056318 0.206367
H14   H     H_    0.863594 0.650968 0.944547 0.201937
H15   H     H_    0.636557 0.153399 0.056317 0.206367
H16   H     H_    0.363594 0.150969 0.944546 0.201936
H17   H     H_    0.804228 0.853305 0.054855 0.187484
H18   H     H_    0.198543 0.858501 0.943164 0.191079
H19   H     H_    0.304216 0.353303 0.054856 0.187483
H20   H     H_    0.698545 0.358500 0.943165 0.191078
H21   H     H_    0.391743 0.430044 0.068153 0.233220
H22   H     H_    0.609261 0.429632 0.930973 0.249411
H23   H     H_    0.891749 0.930062 0.068155 0.233214
H24   H     H_    0.109259 0.929636 0.930973 0.249409
H25   H     H_    0.316767 0.370799 0.928243 0.137955
H26   H     H_    0.685585 0.366986 0.069817 0.128414
H27   H     H_    0.816780 0.870806 0.928242 0.137949
H28   H     H_    0.185583 0.866986 0.069817 0.128411
O1    O     O_R   0.214300 0.709080 0.827500 -0.437543
O2    O     O_R   0.785700 0.709080 0.172500 -0.453261
O3    O     O_R   0.714300 0.209080 0.827500 -0.437542
O4    O     O_R   0.285700 0.209080 0.172500 -0.453264
O5    O     O_R   0.445900 0.919370 0.676500 -0.510820
O6    O     O_R   0.554100 0.919370 0.323500 -0.449737
O7    O     O_R   0.945900 0.419370 0.676500 -0.510851
O8    O     O_R   0.054100 0.419370 0.323500 -0.449703
O9    O     O_R   0.456660 0.717710 0.669820 -0.457914
O10   O     O_R   0.543340 0.717710 0.330180 -0.463497
O11   O     O_R   0.956660 0.217710 0.669820 -0.458025
O12   O     O_R   0.043340 0.217710 0.330180 -0.463535
O13   O     O_R   0.320590 0.625770 0.672930 -0.491957
O14   O     O_R   0.679410 0.625770 0.327070 -0.444381
O15   O     O_R   0.820590 0.125770 0.672930 -0.491934
O16   O     O_R   0.179410 0.125770 0.327070 -0.444333
O17   O     O_3   0.334270 0.834280 0.749190 -0.328353
O18   O     O_3   0.665730 0.834280 0.250810 -0.293904
O19   O     O_3   0.834270 0.334280 0.749190 -0.328305
O20   O     O_3   0.165730 0.334280 0.250810 -0.293896
O21   O     O_R   0.236190 0.958390 0.823150 -0.491029
O22   O     O_R   0.763810 0.958390 0.176850 -0.495552
O23   O     O_R   0.736190 0.458390 0.823150 -0.491033
O24   O     O_R   0.263810 0.458390 0.176850 -0.495553
O25   O     O_R   0.332090 0.075280 0.831290 -0.503368
O26   O     O_R   0.667910 0.075280 0.168710 -0.521930
O27   O     O_R   0.832090 0.575280 0.831290 -0.503371
O28   O     O_R   0.167910 0.575280 0.168710 -0.521932
O29   O     O_R   0.446280 0.918040 0.826620 -0.453082
O30   O     O_R   0.553720 0.918040 0.173380 -0.475138
O31   O     O_R   0.946280 0.418040 0.826620 -0.453093
O32   O     O_R   0.053720 0.418040 0.173380 -0.475138
O33   O     O_R   0.457080 0.716270 0.831760 -0.462065
O34   O     O_R   0.542920 0.716270 0.168240 -0.471125
O35   O     O_R   0.957080 0.216270 0.831760 -0.462077
O36   O     O_R   0.042920 0.216270 0.168240 -0.471128
O37   O     O_R   0.320980 0.624440 0.823040 -0.503409
O38   O     O_R   0.679020 0.624440 0.176960 -0.509073
O39   O     O_R   0.820980 0.124440 0.823040 -0.503412
O40   O     O_R   0.179020 0.124440 0.176960 -0.509078
O41   O     O_R   0.213880 0.710510 0.665560 -0.523925
O42   O     O_R   0.786120 0.710510 0.334440 -0.535369
O43   O     O_R   0.713880 0.210510 0.665560 -0.523929
O44   O     O_R   0.286120 0.210510 0.334440 -0.535371
O45   O     O_R   0.235800 0.959720 0.673040 -0.506723
O46   O     O_R   0.764200 0.959720 0.326960 -0.518109
O47   O     O_R   0.735800 0.459720 0.673040 -0.506737
O48   O     O_R   0.264200 0.459720 0.326960 -0.518099
O49   O     O_R   0.331670 0.076720 0.669350 -0.467762
O50   O     O_R   0.668330 0.076720 0.330650 -0.436994
O51   O     O_R   0.831670 0.576720 0.669350 -0.467742
O52   O     O_R   0.168330 0.576720 0.330650 -0.436978
F1    F     F_    0.361708 0.878397 0.975114 -0.644760
F2    F     F_    0.638162 0.780756 0.025427 -0.639133
F3    F     F_    0.861710 0.378412 0.975114 -0.644757
F4    F     F_    0.138161 0.280747 0.025428 -0.639134
H29   H     H_    0.450446 0.019442 0.552956 0.190038
H30   H     H_    0.466212 0.015916 0.422977 0.188738
H31   H     H_    0.950449 0.519427 0.552971 0.190048
H32   H     H_    0.966181 0.515879 0.422986 0.188677
F5    F     F_    0.118771 0.180515 0.455232 -0.594607
F6    F     F_    0.010373 0.019144 0.571347 -0.566132
F7    F     F_    0.618665 0.680359 0.455252 -0.594583
F8    F     F_    0.510141 0.519063 0.571284 -0.566132
F9    F     F_    0.540717 0.521666 0.435230 -0.572916
F10   F     F_    0.594997 0.666114 0.590817 -0.569152
F11   F     F_    0.040871 0.021721 0.435273 -0.572931
F12   F     F_    0.095167 0.166326 0.590813 -0.569191
F13   F     F_    0.100111 0.538081 0.444936 -0.603010
F14   F     F_    0.910650 0.745433 0.575136 -0.574391
F15   F     F_    0.600131 0.038011 0.444959 -0.603036
F16   F     F_    0.410642 0.245449 0.575135 -0.574326
F17   F     F_    0.083277 0.743068 0.426188 -0.574265
F18   F     F_    0.795953 0.817380 0.580104 -0.579449
F19   F     F_    0.583255 0.242980 0.426192 -0.574275
F20   F     F_    0.295938 0.317367 0.580109 -0.579383
H33   H     H_    0.104714 0.758525 0.558143 0.183992
H34   H     H_    0.801724 0.824125 0.447652 0.171089
H35   H     H_    0.604703 0.258493 0.558143 0.183963
H36   H     H_    0.301702 0.324120 0.447657 0.171116
F21   F     F_    0.479483 0.055056 0.048709 -0.519236
F22   F     F_    0.581568 0.977468 0.924911 -0.537167
F23   F     F_    0.979490 0.555063 0.048706 -0.519235
F24   F     F_    0.081577 0.477457 0.924910 -0.537170
F25   F     F_    0.525361 0.600238 0.951707 -0.617370
F26   F     F_    0.419299 0.669401 0.072805 -0.612955
F27   F     F_    0.025355 0.100234 0.951711 -0.617380
F28   F     F_    0.919292 0.169414 0.072809 -0.612961
F29   F     F_    0.131895 0.678603 0.924066 -0.555426
F30   F     F_    0.869841 0.662560 0.078388 -0.559696
F31   F     F_    0.631895 0.178603 0.924065 -0.555425
F32   F     F_    0.369840 0.162566 0.078388 -0.559695
H37   H     H_    0.402247 0.452785 0.942015 0.223678
H38   H     H_    0.599156 0.447562 0.057805 0.209995
H39   H     H_    0.902254 0.952809 0.942017 0.223693
H40   H     H_    0.099155 0.947565 0.057805 0.209995

loop_
_geom_bond_atom_site_label_1
_geom_bond_atom_site_label_2
_ccdc_geom_bond_type
C102  O10   A    
C79   H7    S    
C55   C56   A    
C67   C83   S    
C89   O1    A    
C29   C33   S    
C5    C114  S    
C73   H1    S    
Cr6   O6    S    
C14   C18   A    
Cr5   O5    S    
C111  C112  S    
C44   C55   A    
C113  F1    S    
C116  F4    S    
C24   F32   S    
Cr9   O13   S    
C1    O21   A    
C100  O48   A    
C75   C95   A    
C7    C8    S    
C48   C120  S    
C63   C79   A    
C53   C54   A    
Cr10  O14   S    
C15   C19   A    
C98   O50   A    
Cr11  O11   S    
C36   H40   S    
C97   O49   A    
C23   C39   A    
Cr4   O44   S    
C3    O27   A    
C32   C36   S    
C13   C29   S    
C84   F20   S    
Cr9   O37   S    
C46   O30   A    
C22   F30   S    
C63   C98   S    
C69   C93   A    
C42   C53   A    
C21   F29   S    
C5    C6    S    
C31   H17   S    
C72   C96   A    
C75   H3    S    
Cr7   O19   S    
C68   C72   A    
C112  C116  S    
C106  O42   A    
C88   H36   S    
C7    F27   S    
C30   H20   S    
Cr12  O40   S    
C9    C13   A    
C41   C102  S    
C46   C118  S    
C26   H14   S    
Cr12  O16   S    
C39   C91   S    
Cr6   O30   S    
C114  F2    S    
C43   C104  S    
C40   C92   S    
C23   F31   S    
C52   C60   S    
C8    C115  S    
C93   C105  S    
C32   H24   S    
Cr2   O22   S    
C11   C15   A    
C95   C107  S    
C12   C16   A    
C61   C77   A    
Cr7   O27   S    
C76   C80   A    
C101  O9    A    
Cr8   O20   S    
C73   C93   A    
C59   F11   S    
C110  C114  S    
C85   H33   S    
C58   F10   S    
C109  C113  S    
C104  O12   A    
C57   F9    S    
C97   O45   A    
C10   C26   A    
C82   C86   S    
C47   C119  S    
C109  F21   S    
C82   F14   S    
C59   C60   S    
C102  O6    A    
C81   F13   S    
C48   O36   A    
C35   H39   S    
C86   H34   S    
C64   C80   A    
C91   O3    A    
C1    C12   S    
C17   C33   S    
C14   C30   S    
C71   C95   A    
C2    C11   S    
C78   H6    S    
C110  C117  S    
C41   C49   A    
C72   C88   S    
C44   C103  S    
C33   H25   S    
C109  C118  S    
C54   H30   S    
C77   H5    S    
C53   H29   S    
C62   C78   A    
C46   O34   A    
C27   H15   S    
C63   C67   A    
C28   H16   S    
C2    O22   A    
C30   C34   S    
C9    C25   A    
C51   C52   A    
C68   C84   S    
C86   H10   S    
C7    C119  S    
Cr6   O26   S    
C81   F17   S    
C87   H35   S    
C92   O40   A    
Cr5   O29   S    
Cr3   O19   S    
Cr6   O50   S    
C85   H9    S    
C29   H19   S    
C62   C66   A    
C99   O51   A    
C115  F3    S    
Cr10  O18   S    
C111  F23   S    
C80   H8    S    
Cr9   O17   S    
C15   C31   S    
C100  O52   A    
Cr7   O31   S    
C116  C120  S    
Cr5   O25   S    
C99   O47   A    
C111  C120  S    
Cr8   O32   S    
C45   O33   A    
C50   C58   S    
C7    C116  S    
Cr1   O17   S    
Cr11  O39   S    
C2    O26   A    
C6    C113  S    
C107  O43   A    
C76   H4    S    
C66   C82   S    
Cr3   O3    S    
C110  F22   S    
C44   C52   A    
C105  O41   A    
C20   C40   A    
C11   C27   A    
C16   C20   A    
Cr1   O1    S    
C45   O29   A    
C106  O14   A    
Cr3   O47   S    
C107  O15   A    
Cr2   O46   S    
Cr7   O7    S    
C17   C37   A    
C103  O7    A    
C4    O24   A    
C101  O5    A    
C18   C34   S    
C8    F28   S    
C114  C118  S    
C22   C26   A    
C19   C39   A    
C42   C50   A    
C71   C87   S    
C34   H26   S    
Cr7   O51   S    
C64   C97   S    
Cr12  O20   S    
Cr5   O49   S    
C49   C57   S    
C23   C27   A    
C25   H13   S    
C82   F18   S    
C10   C14   A    
C31   C35   S    
C31   H23   S    
C90   O2    A    
C61   C100  S    
C51   C59   S    
Cr9   O9    S    
C70   C86   S    
C42   C101  S    
C64   C68   A    
C56   H32   S    
C69   C85   S    
C8    C120  S    
Cr1   O21   S    
C43   C56   A    
C57   F7    S    
C113  C117  S    
C45   C117  S    
Cr2   O18   S    
C21   C25   A    
C94   C106  S    
C58   F8    S    
C70   C94   A    
Cr8   O28   S    
Cr8   O52   S    
C6    F26   S    
Cr12  O36   S    
Cr11  O35   S    
C24   C28   A    
C48   O32   A    
C83   F19   S    
C98   O46   A    
Cr10  O34   S    
C32   H18   S    
C60   F6    S    
C83   C87   S    
C74   H2    S    
C112  C119  S    
C55   H31   S    
C104  O8    A    
Cr4   O24   S    
C90   O38   A    
Cr3   O43   S    
C16   C32   S    
C89   O37   A    
C38   C90   S    
C5    F25   S    
C115  C119  S    
Cr2   O2    S    
C13   C17   A    
C34   H38   S    
C87   H11   S    
C1    O25   A    
C4    O28   A    
C33   H37   S    
C92   O4    A    
C18   C38   A    
C29   H21   S    
C91   O39   A    
C108  O44   A    
C3    C10   S    
C19   C35   S    
C109  C110  S    
C76   C96   A    
Cr5   O17   S    
C103  O11   A    
C43   C51   A    
C57   C58   S    
C47   O35   A    
C84   C88   S    
C75   C79   A    
Cr10  O10   S    
C65   C69   A    
Cr11  O19   S    
C108  O16   A    
Cr11  O15   S    
C24   C40   A    
C37   C89   S    
C59   F5    S    
Cr6   O18   S    
C112  F24   S    
C67   C71   A    
Cr2   O42   S    
C47   O31   A    
C84   F16   S    
C81   C85   S    
C41   C54   A    
Cr4   O20   S    
C35   H27   S    
C36   H28   S    
Cr1   O41   S    
C62   C99   S    
C20   C36   S    
C61   C65   A    
Cr1   O45   S    
C30   H22   S    
C21   C37   A    
C66   C70   A    
C12   C28   A    
C73   C77   A    
C111  C115  S    
C49   C50   A    
C74   C78   A    
Cr3   O23   S    
C5    C117  S    
C74   C94   A    
Cr8   O8    S    
Cr9   O33   S    
C65   C81   S    
C96   C108  S    
C105  O13   A    
C83   F15   S    
Cr12  O12   S    
C60   F12   S    
C4    C9    S    
Cr10  O38   S    
C3    O23   A    
C88   H12   S    
Cr4   O48   S    
C6    C118  S    
Cr4   O4    S    
C22   C38   A    
