data_mof_unit_28860.cif
_audit_creation_date              2013-03-05T15:44:38-0500
_audit_creation_method            fapswitch 2.2
_symmetry_space_group_name_H-M    P1
_symmetry_Int_Tables_number       1
_space_group_crystal_system       triclinic
_cell_length_a                    18.879222
_cell_length_b                    10.918048
_cell_length_c                    18.801039
_cell_angle_alpha                 90.123149
_cell_angle_beta                  90.190923
_cell_angle_gamma                 89.944024
_cell_volume                      3875.31781124

loop_
_atom_site_label
_atom_site_type_symbol
_atom_site_description
_atom_site_fract_x
_atom_site_fract_y
_atom_site_fract_z
_atom_type_partial_charge
O1    O     O_R   0.787540 0.042690 0.170470 -0.530479
O2    O     O_R   0.212460 0.042690 0.829530 -0.514316
O3    O     O_R   0.287540 0.542690 0.170470 -0.506163
O4    O     O_R   0.712460 0.542690 0.829530 -0.519104
O5    O     O_R   0.765660 0.292160 0.175050 -0.509133
O6    O     O_R   0.234340 0.292160 0.824950 -0.505332
O7    O     O_R   0.265660 0.792160 0.175050 -0.525783
O8    O     O_R   0.734340 0.792160 0.824950 -0.508417
C1    C     C_R   0.711668 0.330164 0.138306 0.554964
C2    C     C_R   0.269213 0.379192 0.853618 0.547377
C3    C     C_R   0.228162 0.872786 0.143956 0.540035
C4    C     C_R   0.769395 0.877699 0.853759 0.544661
O9    O     O_R   0.670190 0.408980 0.168550 -0.512750
O10   O     O_R   0.329810 0.408980 0.831450 -0.521523
O11   O     O_R   0.170190 0.908980 0.168550 -0.520594
O12   O     O_R   0.829810 0.908980 0.831450 -0.522661
O13   O     O_R   0.556580 0.251450 0.175160 -0.525587
O14   O     O_R   0.443420 0.251450 0.824840 -0.506700
O15   O     O_R   0.056580 0.751450 0.175160 -0.511870
O16   O     O_R   0.943420 0.751450 0.824840 -0.506623
C5    C     C_R   0.531465 0.154609 0.146597 0.529509
C6    C     C_R   0.469066 0.156531 0.853102 0.543304
C7    C     C_R   0.031153 0.654992 0.146724 0.529834
C8    C     C_R   0.969258 0.656219 0.853024 0.543083
O17   O     O_R   0.545920 0.049510 0.170320 -0.522131
O18   O     O_R   0.454080 0.049510 0.829680 -0.522638
O19   O     O_R   0.045920 0.549510 0.170320 -0.529247
O20   O     O_R   0.954080 0.549510 0.829680 -0.522234
O21   O     O_R   0.681390 0.957840 0.176710 -0.503914
O22   O     O_R   0.318610 0.957840 0.823290 -0.502367
O23   O     O_R   0.181390 0.457840 0.176710 -0.494440
O24   O     O_R   0.818610 0.457840 0.823290 -0.503838
C9    C     C_R   0.740420 0.973288 0.145787 0.543352
C10   C     C_R   0.258725 0.968186 0.852137 0.560114
C11   C     C_R   0.226948 0.520467 0.140207 0.563528
C12   C     C_R   0.757901 0.466872 0.851842 0.550706
O25   O     O_R   0.787500 0.044280 0.330990 -0.495463
O26   O     O_R   0.212500 0.044280 0.669010 -0.472558
O27   O     O_R   0.287500 0.544280 0.330990 -0.466189
O28   O     O_R   0.712500 0.544280 0.669010 -0.497492
O29   O     O_R   0.765610 0.293630 0.323860 -0.506987
O30   O     O_R   0.234390 0.293630 0.676140 -0.528658
O31   O     O_R   0.265610 0.793630 0.323860 -0.526031
O32   O     O_R   0.734390 0.793630 0.676140 -0.513030
C13   C     C_R   0.730868 0.380678 0.351575 0.553247
C14   C     C_R   0.268986 0.382009 0.648505 0.534105
C15   C     C_R   0.231034 0.882185 0.351463 0.540824
C16   C     C_R   0.769185 0.880427 0.648359 0.541145
O33   O     O_R   0.670140 0.410570 0.329080 -0.486778
O34   O     O_R   0.329860 0.410570 0.670920 -0.488995
O35   O     O_R   0.170140 0.910570 0.329080 -0.483095
O36   O     O_R   0.829860 0.910570 0.670920 -0.493179
O37   O     O_R   0.556540 0.252920 0.323970 -0.443161
O38   O     O_R   0.443460 0.252920 0.676030 -0.445251
O39   O     O_R   0.056540 0.752920 0.323970 -0.443095
O40   O     O_R   0.943460 0.752920 0.676030 -0.444875
C17   C     C_R   0.531767 0.157427 0.353678 0.575488
C18   C     C_R   0.468839 0.157477 0.646777 0.560616
C19   C     C_R   0.030896 0.657750 0.353041 0.562083
C20   C     C_R   0.967854 0.657157 0.646083 0.573368
O41   O     O_R   0.545870 0.051100 0.330840 -0.529657
O42   O     O_R   0.454130 0.051100 0.669160 -0.541792
O43   O     O_R   0.045870 0.551100 0.330840 -0.539201
O44   O     O_R   0.954130 0.551100 0.669160 -0.532584
O45   O     O_R   0.681340 0.959300 0.325510 -0.504657
O46   O     O_R   0.318660 0.959300 0.674490 -0.504231
O47   O     O_R   0.181340 0.459300 0.325510 -0.494911
O48   O     O_R   0.818660 0.459300 0.674490 -0.509546
C21   C     C_R   0.740535 0.975477 0.356250 0.561411
C22   C     C_R   0.272978 0.023119 0.638497 0.562743
C23   C     C_R   0.227080 0.523033 0.361569 0.565255
C24   C     C_R   0.759482 0.475328 0.643724 0.557372
Cr1   Cr    Cr6+3 0.772000 0.169640 0.250110 1.034669
Cr2   Cr    Cr6+3 0.228000 0.169640 0.749890 1.038789
Cr3   Cr    Cr6+3 0.272000 0.669640 0.250110 1.032561
Cr4   Cr    Cr6+3 0.728000 0.669640 0.749890 1.038288
Cr5   Cr    Cr6+3 0.614960 0.323350 0.249260 1.074773
Cr6   Cr    Cr6+3 0.385040 0.323350 0.750740 1.070020
Cr7   Cr    Cr6+3 0.114960 0.823350 0.249260 1.068261
Cr8   Cr    Cr6+3 0.885040 0.823350 0.750740 1.076076
Cr9   Cr    Cr6+3 0.616670 0.010620 0.250840 1.021460
Cr10  Cr    Cr6+3 0.383330 0.010620 0.749160 1.019039
Cr11  Cr    Cr6+3 0.116670 0.510620 0.250840 1.022010
Cr12  Cr    Cr6+3 0.883330 0.510620 0.749160 1.023107
O49   O     O_3   0.667880 0.167870 0.250070 -0.280426
O50   O     O_3   0.332120 0.167870 0.749930 -0.277480
O51   O     O_3   0.167880 0.667870 0.250070 -0.302230
O52   O     O_3   0.832120 0.667870 0.749930 -0.256871
H1    H     H_    0.534870 0.968619 0.054878 0.143917
H2    H     H_    0.524697 0.976269 0.929400 0.135091
H3    H     H_    0.021392 0.465773 0.057729 0.138277
H4    H     H_    0.014524 0.471087 0.932362 0.136372
C25   C     C_R   0.498890 0.169515 0.924727 0.001917
C26   C     C_R   0.505870 0.159637 0.073305 0.003222
C27   C     C_R   0.998824 0.667605 0.924886 0.002131
C28   C     C_R   0.004421 0.661429 0.073731 0.004645
C29   C     C_R   0.490465 0.279430 0.965345 0.024983
C30   C     C_R   0.486914 0.271064 0.040389 0.008859
C31   C     C_R   0.995373 0.779513 0.964096 0.026695
C32   C     C_R   0.991561 0.774484 0.039279 0.017792
C33   C     C_R   0.519402 0.055364 0.031610 -0.149214
C34   C     C_R   0.516331 0.060449 0.958903 -0.158492
C35   C     C_R   0.011659 0.554042 0.033354 -0.150416
C36   C     C_R   0.010182 0.557419 0.960609 -0.153864
C37   C     C_R   0.485737 0.397282 0.934192 -0.088732
C38   C     C_R   0.465951 0.374798 0.080270 -0.086208
C39   C     C_R   0.995495 0.896074 0.931153 -0.090280
C40   C     C_R   0.975577 0.882603 0.077589 -0.088589
C41   C     C_R   0.984108 0.002527 0.970587 -0.143637
C42   C     C_R   0.972301 0.995449 0.043339 -0.134776
C43   C     C_R   0.469174 0.500044 0.975085 -0.139229
C44   C     C_R   0.457065 0.488108 0.047580 -0.119681
H5    H     H_    0.497936 0.413160 0.878931 0.141633
H6    H     H_    0.455917 0.369094 0.136770 0.151258
H7    H     H_    0.007540 0.907460 0.875457 0.141394
H8    H     H_    0.964601 0.880893 0.133979 0.146599
H9    H     H_    0.983954 0.090785 0.944459 0.105417
H10   H     H_    0.961526 0.077880 0.073532 0.111567
H11   H     H_    0.465233 0.589189 0.950275 0.102729
H12   H     H_    0.442276 0.567395 0.078869 0.119934
C45   C     C_R   0.699021 0.862731 0.037884 -0.139090
C46   C     C_R   0.310886 0.891219 0.964046 -0.138925
C47   C     C_R   0.184998 0.405962 0.032696 -0.129778
C48   C     C_R   0.800779 0.361043 0.960387 -0.141429
H13   H     H_    0.661715 0.809542 0.068684 0.126741
H14   H     H_    0.362975 0.884965 0.940292 0.135810
H15   H     H_    0.146262 0.356689 0.063856 0.131958
H16   H     H_    0.853751 0.354778 0.938692 0.127410
C49   C     C_R   0.701120 0.848747 0.964429 -0.136571
C50   C     C_R   0.305083 0.879943 0.037356 -0.153213
C51   C     C_R   0.193450 0.374726 0.961411 -0.138835
C52   C     C_R   0.790458 0.333323 0.031765 -0.137275
H17   H     H_    0.667877 0.779771 0.939766 0.133910
H18   H     H_    0.351695 0.859519 0.068971 0.118435
H19   H     H_    0.162340 0.300243 0.939519 0.129244
H20   H     H_    0.835510 0.304360 0.063316 0.124248
C53   C     C_R   0.749576 0.917594 0.924300 0.029607
C54   C     C_R   0.239023 0.896297 0.069174 0.031986
C55   C     C_R   0.245833 0.432624 0.920908 0.029111
C56   C     C_R   0.723445 0.349943 0.062544 0.028455
C57   C     C_R   0.791868 0.005854 0.957151 -0.120532
C58   C     C_R   0.178594 0.918134 0.027149 -0.125184
C59   C     C_R   0.284753 0.529759 0.950513 -0.115753
C60   C     C_R   0.666235 0.386652 0.020266 -0.133582
H21   H     H_    0.828899 0.061191 0.927232 0.133659
H22   H     H_    0.126339 0.926651 0.050103 0.156985
H23   H     H_    0.324469 0.577776 0.919891 0.131728
H24   H     H_    0.614238 0.398867 0.043057 0.144784
C61   C     C_R   0.791600 0.016299 0.029801 -0.120023
C62   C     C_R   0.184262 0.928281 0.954666 -0.136387
C63   C     C_R   0.277189 0.559178 0.021765 -0.127169
C64   C     C_R   0.676399 0.414116 0.949193 -0.130146
H25   H     H_    0.826741 0.083095 0.053516 0.130943
H26   H     H_    0.137517 0.950278 0.923796 0.132584
H27   H     H_    0.310711 0.629324 0.044611 0.124660
H28   H     H_    0.632061 0.448676 0.918596 0.131306
C65   C     C_R   0.746117 0.943882 0.070945 0.032964
C66   C     C_R   0.250510 0.919385 0.922948 0.027944
C67   C     C_R   0.229519 0.494208 0.064024 0.026959
C68   C     C_R   0.744265 0.406370 0.919533 0.027327
C69   C     C_R   0.504677 0.055555 0.464779 -0.182694
C70   C     C_R   0.502852 0.056141 0.537358 -0.188964
C71   C     C_R   0.993192 0.556918 0.461121 -0.188239
C72   C     C_R   0.991095 0.555427 0.533706 -0.183168
H29   H     H_    0.508529 0.967017 0.438908 0.165488
H30   H     H_    0.502016 0.968078 0.563836 0.161557
H31   H     H_    0.992403 0.469291 0.433916 0.162108
H32   H     H_    0.985318 0.466826 0.558892 0.165367
C73   C     C_R   0.497124 0.166380 0.574788 -0.019532
C74   C     C_R   0.505775 0.165517 0.426608 -0.017959
C75   C     C_R   0.992613 0.664832 0.572734 -0.018054
C76   C     C_R   0.001507 0.667239 0.424589 -0.019630
C77   C     C_R   0.499595 0.279335 0.537947 0.195628
C78   C     C_R   0.500648 0.278750 0.462984 0.193751
C79   C     C_R   0.999300 0.778266 0.537119 0.194373
C80   C     C_R   0.000453 0.779799 0.462174 0.194789
C81   C     C_R   0.794306 0.015388 0.472176 -0.089099
C82   C     C_R   0.219038 0.058275 0.520606 -0.096868
C83   C     C_R   0.281371 0.557382 0.479492 -0.098181
C84   C     C_R   0.705845 0.515759 0.527906 -0.087086
H33   H     H_    0.831648 0.078002 0.448283 0.166731
H34   H     H_    0.182275 0.122172 0.544361 0.147322
H35   H     H_    0.318291 0.620849 0.455853 0.147257
H36   H     H_    0.668396 0.578280 0.551969 0.167318
C85   C     C_R   0.793678 0.007241 0.545024 -0.107001
C86   C     C_R   0.211999 0.030252 0.449068 -0.084945
C87   C     C_R   0.288401 0.529322 0.550960 -0.086390
C88   C     C_R   0.706568 0.507915 0.455045 -0.106779
H37   H     H_    0.831623 0.060963 0.575071 0.170843
H38   H     H_    0.169911 0.074055 0.419257 0.179610
H39   H     H_    0.330659 0.572684 0.580774 0.179079
H40   H     H_    0.668650 0.561797 0.425115 0.171451
C89   C     C_R   0.749257 0.922762 0.578108 0.020957
C90   C     C_R   0.254585 0.939179 0.418147 0.021009
C91   C     C_R   0.245544 0.438876 0.581812 0.021156
C92   C     C_R   0.750948 0.423285 0.421775 0.019474
C93   C     C_R   0.698505 0.858394 0.538107 -0.138611
C94   C     C_R   0.311454 0.890573 0.456997 -0.146752
C95   C     C_R   0.188492 0.390952 0.542919 -0.146155
C96   C     C_R   0.801764 0.358774 0.461578 -0.139834
H41   H     H_    0.662590 0.794629 0.563148 0.135820
H42   H     H_    0.347018 0.824466 0.433270 0.132166
H43   H     H_    0.152709 0.325440 0.566587 0.132179
H44   H     H_    0.837680 0.294888 0.436370 0.136178
C97   C     C_R   0.696998 0.870543 0.464555 -0.142872
C98   C     C_R   0.319575 0.920832 0.528661 -0.132291
C99   C     C_R   0.180372 0.421290 0.471307 -0.131620
C100  C     C_R   0.803243 0.370739 0.535150 -0.144158
H45   H     H_    0.657790 0.820513 0.433971 0.133920
H46   H     H_    0.361999 0.878226 0.558622 0.143944
H47   H     H_    0.137716 0.379330 0.441334 0.145269
H48   H     H_    0.842455 0.320562 0.565600 0.132552
C101  C     C_R   0.746613 0.946304 0.431161 0.034267
C102  C     C_R   0.270543 0.999494 0.561793 0.024613
C103  C     C_R   0.229621 0.499283 0.438242 0.022629
C104  C     C_R   0.753533 0.446419 0.568731 0.035797
N1    N     N_R   0.501022 0.393313 0.576225 0.112049
O53   O     O_R   0.547681 0.410744 0.626333 -0.342783
O54   O     O_R   0.456477 0.480307 0.560869 -0.314641
N2    N     N_R   0.496096 0.391764 0.424233 0.113183
O55   O     O_R   0.448782 0.404749 0.374311 -0.321096
O56   O     O_R   0.538382 0.482326 0.439013 -0.319160
N3    N     N_R   0.005166 0.890605 0.576604 0.114017
O57   O     O_R   0.053125 0.901703 0.626080 -0.324878
O58   O     O_R   0.962916 0.981979 0.563402 -0.318678
N4    N     N_R   0.000469 0.894294 0.424654 0.111532
O59   O     O_R   0.954428 0.913781 0.374249 -0.340104
O60   O     O_R   0.045114 0.980298 0.441553 -0.314250

loop_
_geom_bond_atom_site_label_1
_geom_bond_atom_site_label_2
_geom_bond_distance
_ccdc_geom_bond_type
C18   O42   1.267537 A    
C99   H47   1.082852 S    
O4    C12   1.262882 A    
O47   Cr11  1.940640 S    
C33   C34   1.369256 A    
O39   C19   1.271989 A    
C16   C89   1.448681 S    
O20   Cr12  2.059378 S    
C58   H22   1.081964 S    
C15   C90   1.466350 S    
C93   C97   1.389676 A    
N3    O57   1.301488 A    
C23   C103  1.465820 S    
C58   C62   1.372036 A    
C92   C96   1.404505 A    
C42   H10   1.082496 S    
O29   Cr1   1.939708 S    
N2    O56   1.300402 A    
C29   C30   1.415872 A    
C41   H9    1.082531 S    
C14   C91   1.467216 S    
C38   C44   1.392318 A    
C77   C78   1.409593 A    
C59   H23   1.083271 S    
C76   C80   1.416443 A    
O5    C1    1.297743 A    
C60   H24   1.080445 S    
C47   C67   1.406235 A    
C28   C32   1.415585 A    
C38   H6    1.081564 S    
C69   H29   1.083694 S    
O24   C12   1.270897 A    
C37   H5    1.079355 S    
C3    C54   1.445095 S    
C4    C53   1.445392 S    
O25   C21   1.257636 A    
O40   Cr8   1.945442 S    
O26   Cr2   2.064003 S    
C1    C56   1.458939 S    
C27   C31   1.427184 A    
C64   C68   1.401466 A    
C83   C87   1.384727 A    
C5    C26   1.459838 S    
C26   C30   1.411385 A    
C81   C85   1.372782 A    
O21   C9    1.270251 A    
O8    Cr4   1.945839 S    
O23   Cr11  1.942679 S    
C7    C28   1.462426 S    
C48   C52   1.390711 A    
C43   H11   1.082577 S    
O30   C14   1.278002 A    
O32   Cr4   1.944026 S    
C61   H25   1.080906 S    
O44   Cr12  2.064372 S    
O7    C3    1.271232 A    
C1    O9    1.294828 A    
C84   C88   1.372477 A    
C70   H30   1.083802 S    
C71   C72   1.365515 A    
C3    O11   1.252825 A    
O11   Cr7   2.069405 S    
C4    O12   1.264153 A    
C26   C33   1.404563 A    
C40   C42   1.392639 A    
C94   H42   1.081852 S    
C62   H26   1.081707 S    
C93   H41   1.081907 S    
O32   C16   1.268079 A    
O27   Cr3   2.067955 S    
C96   H44   1.081992 S    
O3    Cr3   2.059699 S    
Cr4   O52   1.965778 S    
C83   H35   1.080661 S    
C80   N4    1.436684 S    
O2    Cr2   2.064409 S    
O8    C4    1.264997 A    
C48   H16   1.083351 S    
N4    O60   1.300608 A    
C29   C37   1.417506 A    
C98   C102  1.408013 A    
C13   C92   1.447914 S    
C59   C63   1.384725 A    
C37   C43   1.394579 A    
C60   C64   1.384135 A    
C97   C101  1.401222 A    
C100  C104  1.400832 A    
C45   C65   1.399076 A    
C95   H43   1.081811 S    
C39   C41   1.394138 A    
C89   C93   1.404217 A    
C97   H45   1.083289 S    
C50   H18   1.083582 S    
C55   C59   1.403805 A    
O34   Cr6   2.058630 S    
Cr7   O51   1.968946 S    
N2    O55   1.301422 A    
C9    C65   1.446923 S    
O6    Cr2   1.945839 S    
C91   C95   1.400998 A    
O31   Cr3   1.939708 S    
O24   Cr12  1.945163 S    
O9    Cr5   2.069405 S    
C32   C40   1.414351 A    
O30   Cr2   1.944026 S    
O22   C10   1.260442 A    
C57   C61   1.370429 A    
C22   C102  1.465040 S    
C64   H28   1.082175 S    
C84   C104  1.403352 A    
C18   C73   1.460116 S    
C21   C101  1.448794 S    
C95   C99   1.395131 A    
C54   C58   1.406032 A    
C8    C27   1.465205 S    
H3    C35   1.083299 S    
C44   H12   1.082494 S    
O16   Cr8   1.940275 S    
C82   C102  1.397469 A    
O7    Cr3   1.949843 S    
N1    O53   1.301439 A    
Cr10  O50   1.969591 S    
C75   C79   1.415118 A    
O13   C5    1.275919 A    
O40   C20   1.272995 A    
O43   Cr11  2.062429 S    
O48   C24   1.268527 A    
O12   Cr8   2.065531 S    
O48   Cr12  1.939584 S    
C46   H14   1.083443 S    
O15   C7    1.273661 A    
C45   H13   1.083325 S    
C81   C101  1.403024 A    
C94   C98   1.394587 A    
O46   Cr10  1.939584 S    
O39   Cr7   1.948676 S    
O3    C11   1.298762 A    
C98   H46   1.082845 S    
H4    C36   1.084060 S    
C47   H15   1.082787 S    
C31   C32   1.416771 A    
C13   O33   1.263521 A    
C71   H31   1.083976 S    
C100  H48   1.083333 S    
Cr1   O49   1.965816 S    
C47   C51   1.391883 A    
C99   C103  1.408451 A    
Cr12  O52   1.969591 S    
C46   C66   1.409024 A    
Cr2   O50   1.965778 S    
O15   Cr7   1.938724 S    
C71   C76   1.397082 A    
C39   H7    1.079762 S    
C82   H34   1.080574 S    
C96   C100  1.389296 A    
C85   H37   1.083088 S    
C49   H17   1.083287 S    
C69   C74   1.400230 A    
C10   C66   1.443930 S    
C72   H32   1.083705 S    
Cr3   O51   1.965816 S    
O26   C22   1.299767 A    
C24   C104  1.448197 S    
O21   Cr9   1.942679 S    
N4    O59   1.301486 A    
C7    O19   1.265538 A    
C53   C57   1.393992 A    
C2    O10   1.262048 A    
O37   Cr5   1.948676 S    
C6    C25   1.464522 S    
O23   C11   1.298237 A    
C19   O43   1.268089 A    
C78   N2    1.436639 S    
C2    C55   1.461411 S    
C19   C76   1.460269 S    
C50   C54   1.396153 A    
C25   C29   1.430072 A    
C77   N1    1.436425 S    
C27   C36   1.395111 A    
O14   Cr6   1.940275 S    
C17   C74   1.460324 S    
O38   C18   1.271316 A    
O25   Cr1   2.067955 S    
C52   H20   1.082691 S    
O45   C21   1.268776 A    
C5    O17   1.261300 A    
O1    C9    1.256159 A    
C45   C49   1.389795 A    
O29   C13   1.266443 A    
O22   Cr10  1.945163 S    
O28   C24   1.256762 A    
C43   C44   1.389212 A    
H1    C33   1.083519 S    
O14   C6    1.261121 A    
C20   C75   1.460181 S    
C87   H39   1.082320 S    
C86   C90   1.404342 A    
O5    Cr1   1.949843 S    
C8    O20   1.276602 A    
C85   C89   1.395837 A    
O31   C15   1.276363 A    
O17   Cr9   2.060180 S    
O37   C17   1.273942 A    
Cr11  O51   1.971291 S    
O6    C2    1.274183 A    
C15   O35   1.261520 A    
N3    O58   1.300495 A    
C17   O41   1.265276 A    
C74   C78   1.414937 A    
C57   H21   1.084027 S    
C52   C56   1.404414 A    
C46   C50   1.388750 A    
C31   C39   1.416535 A    
C14   O34   1.261953 A    
C51   H19   1.083306 S    
C63   H27   1.081324 S    
C30   C38   1.413858 A    
C20   O44   1.264789 A    
C88   H40   1.083092 S    
O1    Cr1   2.059699 S    
C40   H8    1.081145 S    
C56   C60   1.397789 A    
Cr8   O52   1.970572 S    
C79   C80   1.409416 A    
H2    C34   1.084176 S    
C41   C42   1.388919 A    
O13   Cr5   1.938724 S    
C73   C77   1.416636 A    
O2    C10   1.266045 A    
C90   C94   1.401122 A    
C70   C73   1.397206 A    
C69   C70   1.365116 A    
C81   H33   1.081901 S    
C48   C68   1.402989 A    
O19   Cr11  2.060180 S    
O33   Cr5   2.056585 S    
O47   C23   1.297981 A    
O10   Cr6   2.065531 S    
O42   Cr10  2.064372 S    
N1    O54   1.300270 A    
O35   Cr7   2.056585 S    
O4    Cr4   2.064409 S    
C11   C67   1.461065 S    
C51   C55   1.402080 A    
C12   C68   1.458907 S    
Cr5   O49   1.968946 S    
C82   C86   1.384697 A    
O28   Cr4   2.064003 S    
C16   O36   1.263830 A    
C49   C53   1.406950 A    
O46   C22   1.297765 A    
C88   C92   1.395187 A    
C25   C34   1.392971 A    
O18   Cr10  2.059378 S    
Cr6   O50   1.970572 S    
C6    O18   1.279396 A    
C28   C35   1.402202 A    
C83   C103  1.397290 A    
C35   C36   1.368450 A    
C79   N3    1.436497 S    
O45   Cr9   1.940640 S    
C87   C91   1.404778 A    
C72   C75   1.400776 A    
O41   Cr9   2.062429 S    
C86   H38   1.082428 S    
O36   Cr8   2.058630 S    
C61   C65   1.403300 A    
O16   C8    1.264687 A    
C62   C66   1.390611 A    
Cr9   O49   1.971291 S    
C84   H36   1.081818 S    
C63   C67   1.397439 A    
O38   Cr6   1.945442 S    
O27   C23   1.300376 A    
