data_mof_unit_40123.cif
_audit_creation_date              2012-12-10T18:11:50-0500
_audit_creation_method            fapswitch 2.2
_symmetry_space_group_name_H-M    P1
_symmetry_Int_Tables_number       1
_space_group_crystal_system       triclinic
_cell_length_a                    15.843886
_cell_length_b                    10.715818
_cell_length_c                    9.483061
_cell_angle_alpha                 89.926975
_cell_angle_beta                  89.523575
_cell_angle_gamma                 89.498183
_cell_volume                      1609.91740916

loop_
_atom_site_label
_atom_site_type_symbol
_atom_type_description
_atom_site_fract_x
_atom_site_fract_y
_atom_site_fract_z
_atom_type_partial_charge
C1    C     C_R   0.503320 0.260065 0.499890 0.805205
C2    C     C_3   0.083027 0.501679 0.499677 0.125488
C3    C     C_3   0.969622 0.615989 0.481036 -0.136380
C4    C     C_3   0.917089 0.496601 0.498336 0.097920
C5    C     C_3   0.028311 0.545429 0.375269 -0.259085
C6    C     C_3   0.974011 0.426135 0.391415 -0.234255
C7    C     C_1   0.174751 0.501825 0.500927 -0.009525
C8    C     C_1   0.825399 0.496508 0.497884 -0.053982
C9    C     C_3   0.562716 0.069983 0.619760 0.335490
C10   C     C_3   0.556035 0.925821 0.623109 -0.534204
C11   C     C_3   0.413911 0.074080 0.522056 -0.519257
C12   C     C_R   0.340004 0.500256 0.500485 0.830807
C13   C     C_3   0.538888 0.071108 0.355732 -0.346241
C14   C     C_3   0.505220 0.121792 0.499604 0.060741
C15   C     C_3   0.503008 0.878064 0.497739 0.062816
C16   C     C_3   0.411344 0.930201 0.509548 0.332963
C17   C     C_3   0.544597 0.927915 0.359600 -0.353822
C18   C     C_3   0.447590 0.601709 0.085453 -0.269469
C19   C     C_3   0.457719 0.615769 0.919492 0.465835
C20   C     C_3   0.587644 0.520284 0.083309 -0.228799
C21   C     C_3   0.469563 0.382014 0.085955 -0.206326
C22   C     C_3   0.589503 0.505063 0.916749 0.045492
C23   C     C_R   0.501598 0.739919 0.499512 0.795311
C24   C     C_3   0.461231 0.386628 0.920020 0.139235
C25   C     C_R   0.660035 0.499259 0.499477 0.838047
C26   C     C_3   0.971374 0.452724 0.623950 -0.264177
C27   C     C_3   0.029163 0.384841 0.516464 0.475501
C28   C     C_1   0.250317 0.501131 0.501359 -0.186111
C29   C     C_1   0.749783 0.497628 0.498285 -0.197438
C30   C     C_3   0.025295 0.570988 0.604196 0.186371
Cu1   Cu    Cu3+1 0.500040 0.499860 0.642410 0.941974
Cu2   Cu    Cu3+1 0.499960 0.500140 0.357590 0.905048
H1    H     H_    0.526588 0.897429 0.725003 0.125091
H2    H     H_    0.390291 0.102684 0.628217 0.120634
H3    H     H_    0.382762 0.892576 0.608310 0.046855
H4    H     H_    0.495624 0.099833 0.269379 0.167447
H5    H     H_    0.602084 0.110297 0.330678 0.186833
H6    H     H_    0.611948 0.897694 0.354072 0.157198
H7    H     H_    0.513055 0.890272 0.264497 0.190827
H8    H     H_    0.370898 0.117656 0.443412 0.203109
H9    H     H_    0.463869 0.692184 0.134338 0.135912
H10   H     H_    0.947029 0.415085 0.725401 0.131904
H11   H     H_    0.380430 0.584103 0.113964 0.172650
H12   H     H_    0.498727 0.698409 0.898856 0.006255
H13   H     H_    0.609811 0.615348 0.111443 0.117723
H14   H     H_    0.623424 0.586647 0.871517 0.141530
H15   H     H_    0.512863 0.303977 0.114869 0.125255
H16   H     H_    0.408342 0.360379 0.138438 0.171102
H17   H     H_    0.495255 0.302832 0.880011 0.140442
H18   H     H_    0.633162 0.455235 0.133842 0.190625
H19   H     H_    0.951627 0.365681 0.304680 0.137269
H20   H     H_    0.052953 0.583963 0.274457 0.151978
H21   H     H_    0.943750 0.711834 0.467346 0.132839
H22   H     H_    0.538278 0.107501 0.722175 0.052860
H23   H     H_    0.619475 0.880912 0.617886 0.180853
N1    N     N_3   0.501840 0.500250 0.143650 -0.157449
N2    N     N_3   0.501160 0.503300 0.856280 -0.141865
O1    O     O_R   0.500050 0.317570 0.620260 -0.617055
O2    O     O_R   0.499980 0.317810 0.379740 -0.599255
O3    O     O_R   0.379110 0.499870 0.620240 -0.520717
O4    O     O_R   0.379040 0.500110 0.379720 -0.585113
O5    O     O_R   0.500020 0.682190 0.620260 -0.587348
O6    O     O_R   0.499950 0.682430 0.379740 -0.578326
O7    O     O_R   0.620960 0.499890 0.620280 -0.587190
O8    O     O_R   0.620890 0.500130 0.379760 -0.590627
O9    O     O_3   0.067249 0.266176 0.532674 -0.579397
C31   C     C_3   0.004425 0.175876 0.555490 0.069867
H24   H     H_    0.957475 0.176424 0.468733 0.136950
H25   H     H_    0.971628 0.192526 0.658014 0.144559
C32   C     C_3   0.045580 0.047065 0.560480 -0.807471
H26   H     H_    0.092227 0.042602 0.647182 0.246215
H27   H     H_    0.996714 0.975072 0.579179 0.198170
H28   H     H_    0.078282 0.026879 0.458870 0.248295
O10   O     O_3   0.365708 0.896279 0.387019 -0.576136
C33   C     C_3   0.283526 0.856787 0.422735 0.066312
H29   H     H_    0.248556 0.931051 0.481682 0.147951
H30   H     H_    0.286636 0.770244 0.487063 0.135180
C34   C     C_3   0.235582 0.827169 0.288839 -0.798890
H31   H     H_    0.267847 0.750154 0.230895 0.241719
H32   H     H_    0.170452 0.797617 0.316237 0.200346
H33   H     H_    0.232329 0.910985 0.220047 0.247202
O11   O     O_3   0.378329 0.637251 0.855899 -0.545844
C35   C     C_3   0.348197 0.759385 0.885354 0.027109
H34   H     H_    0.387976 0.829616 0.831272 0.128317
H35   H     H_    0.347849 0.780512 0.000060 0.132580
C36   C     C_3   0.257895 0.772091 0.834536 -0.811347
H36   H     H_    0.216179 0.711787 0.899391 0.246588
H37   H     H_    0.236174 0.870502 0.844657 0.199516
H38   H     H_    0.253676 0.743138 0.722751 0.243107
C37   C     C_3   0.369092 0.359781 0.878478 -0.770100
H39   H     H_    0.364447 0.329501 0.767627 0.252817
H40   H     H_    0.345995 0.278031 0.939392 0.162740
H41   H     H_    0.324967 0.437524 0.902241 0.272550
C38   C     C_3   0.644181 0.387888 0.880402 -0.844875
H42   H     H_    0.711758 0.414000 0.872526 0.220981
H43   H     H_    0.638709 0.314201 0.962306 0.183672
H44   H     H_    0.625520 0.342302 0.781580 0.285477
C39   C     C_3   0.054779 0.654297 0.723126 -0.901426
H45   H     H_    0.999265 0.692375 0.781354 0.235767
H46   H     H_    0.094530 0.599049 0.796472 0.241409
H47   H     H_    0.091975 0.732649 0.678919 0.235717
O12   O     O_3   0.647265 0.108016 0.594530 -0.578119
C40   C     C_3   0.697647 0.093540 0.716167 0.072321
H48   H     H_    0.713228 0.993655 0.734510 0.140368
H49   H     H_    0.666272 0.131161 0.812499 0.118889
C41   C     C_3   0.780143 0.162545 0.693545 -0.825195
H50   H     H_    0.767477 0.263069 0.673999 0.253694
H51   H     H_    0.820284 0.152972 0.788443 0.194658
H52   H     H_    0.814511 0.122852 0.601221 0.240336

loop_
_geom_bond_atom_site_label_1
_geom_bond_atom_site_label_2
_ccdc_geom_bond_type
C2    C7    S    
C4    C8    S    
C22   N2    S    
C19   N2    S    
C26   C27   S    
C12   C28   S    
C35   H34   S    
C16   O10   S    
C8    C29   T    
Cu1   O1    S    
Cu2   O4    S    
C10   C15   S    
C1    O2    A    
C16   H3    S    
C5    C6    S    
C11   C14   S    
C34   H32   S    
C41   H50   S    
C15   C16   S    
C18   C19   S    
C17   H7    S    
C20   H18   S    
C23   O5    A    
Cu1   Cu2   S    
C24   N2    S    
C5    H20   S    
C32   H26   S    
C6    H19   S    
C10   H1    S    
C19   O11   S    
C9    C10   S    
C13   H5    S    
C20   H13   S    
C18   N1    S    
C17   H6    S    
C21   H16   S    
C15   C23   S    
O9    C31   S    
C13   C14   S    
C22   C38   S    
Cu1   O5    S    
O12   C40   S    
C25   C29   S    
O10   C33   S    
C31   H24   S    
C25   O8    A    
C13   H4    S    
C4    C6    S    
C18   H9    S    
C9    C14   S    
C36   H36   S    
C9    O12   S    
C38   H44   S    
O11   C35   S    
C7    C28   T    
C31   H25   S    
C25   O7    A    
Cu1   O3    S    
C3    C30   S    
C33   H29   S    
C11   C16   S    
C37   H40   S    
C6    C27   S    
C32   H28   S    
C40   H49   S    
C38   H43   S    
C10   H23   S    
C33   H30   S    
C2    C27   S    
C22   H14   S    
C20   C22   S    
C26   C30   S    
C39   H46   S    
C2    C5    S    
C3    C4    S    
C19   H12   S    
C26   H10   S    
C37   H41   S    
C24   H17   S    
C15   C17   S    
C35   H35   S    
C34   H31   S    
Cu1   O7    S    
C11   H2    S    
Cu2   O6    S    
C3    C5    S    
C36   H38   S    
C24   C37   S    
C21   N1    S    
C4    C26   S    
C1    C14   S    
C39   H47   S    
C30   C39   S    
C13   C17   S    
C2    C30   S    
C31   C32   S    
Cu1   N2    S    
C27   O9    S    
C1    O1    A    
C12   O4    A    
C3    H21   S    
C34   H33   S    
C11   H8    S    
C37   H39   S    
C41   H51   S    
C23   O6    A    
C40   C41   S    
C36   H37   S    
C20   N1    S    
C38   H42   S    
C33   C34   S    
C12   O3    A    
C35   C36   S    
C39   H45   S    
C21   C24   S    
C40   H48   S    
C32   H27   S    
C9    H22   S    
Cu2   O2    S    
C18   H11   S    
Cu2   N1    S    
Cu2   O8    S    
C21   H15   S    
C41   H52   S    
