data_mof_unit_10036.cif
_audit_creation_date              2012-12-10T19:00:03-0500
_audit_creation_method            fapswitch 2.2
_symmetry_space_group_name_H-M    P1
_symmetry_Int_Tables_number       1
_space_group_crystal_system       triclinic
_cell_length_a                    10.716714
_cell_length_b                    10.691338
_cell_length_c                    9.890728
_cell_angle_alpha                 90.116457
_cell_angle_beta                  90.283311
_cell_angle_gamma                 89.46331
_cell_volume                      1133.1743621

loop_
_atom_site_label
_atom_site_type_symbol
_atom_type_description
_atom_site_fract_x
_atom_site_fract_y
_atom_site_fract_z
_atom_type_partial_charge
C1    C     C_R   0.502808 0.260000 0.499802 0.868793
C2    C     C_R   0.503934 0.739860 0.499990 0.846480
C3    C     C_R   0.873338 0.518387 0.503575 -0.306686
C4    C     C_R   0.128089 0.538186 0.502427 -0.341203
C5    C     C_R   0.941653 0.498665 0.624473 -0.108377
C6    C     C_R   0.061535 0.576753 0.387530 -0.099911
C7    C     C_R   0.499413 0.063578 0.376423 -0.192400
C8    C     C_R   0.534242 0.935742 0.620310 -0.172762
C9    C     C_R   0.501669 0.935679 0.376313 -0.220036
C10   C     C_R   0.532339 0.063947 0.620631 -0.189370
C11   C     C_R   0.513621 0.872153 0.499017 -0.020967
C12   C     C_R   0.511233 0.127415 0.499113 -0.008234
C13   C     C_R   0.525358 0.606444 0.072042 -0.079504
C14   C     C_R   0.476631 0.393082 0.927940 -0.087666
C15   C     C_R   0.525409 0.606366 0.928625 -0.073641
C16   C     C_R   0.477392 0.392986 0.071259 -0.114869
C17   C     C_R   0.260716 0.513903 0.500057 0.934353
C18   C     C_R   0.740546 0.501160 0.500748 0.943563
C19   C     C_R   0.235250 0.830594 0.209368 -0.180200
C20   C     C_R   0.853346 0.266464 0.892747 -0.222200
C21   C     C_R   0.171514 0.764440 0.307748 -0.285900
C22   C     C_R   0.890809 0.317729 0.770185 -0.266110
C23   C     C_R   0.125006 0.645009 0.279170 0.121983
C24   C     C_R   0.889802 0.447680 0.751467 0.147151
C25   C     C_R   0.145681 0.589283 0.152653 0.590373
C26   C     C_R   0.850208 0.528252 0.856209 0.625258
C27   C     C_R   0.218023 0.653503 0.057388 -0.308202
C28   C     C_R   0.810935 0.474388 0.979645 -0.218958
C29   C     C_R   0.259725 0.775111 0.084453 0.021436
C30   C     C_R   0.814353 0.344573 0.997965 0.044841
C31   C     C_R   0.931978 0.573124 0.390524 0.529189
C32   C     C_R   0.065979 0.528729 0.625561 0.499458
H1    H     H_    0.546536 0.691596 0.875297 0.152696
H2    H     H_    0.458928 0.306972 0.124386 0.127440
H3    H     H_    0.265715 0.924896 0.230883 0.149362
H4    H     H_    0.855975 0.165881 0.905899 0.144877
H5    H     H_    0.156031 0.807171 0.405746 0.142550
H6    H     H_    0.922781 0.256164 0.690146 0.153979
H7    H     H_    0.239297 0.610388 0.961582 0.205081
H8    H     H_    0.777089 0.531909 0.061632 0.192756
H9    H     H_    0.485921 0.111807 0.281167 0.152628
H10   H     H_    0.550355 0.886748 0.714518 0.171423
H11   H     H_    0.490924 0.887113 0.280844 0.158894
H12   H     H_    0.545918 0.112811 0.715588 0.157002
H13   H     H_    0.545960 0.691926 0.125825 0.129872
H14   H     H_    0.457133 0.307283 0.874221 0.136418
N1    N     N_R   0.499970 0.499970 0.857200 -0.079818
N2    N     N_R   0.500030 0.500030 0.142800 -0.076103
O1    O     O_R   0.499990 0.316750 0.614620 -0.637576
O2    O     O_R   0.500010 0.683250 0.385380 -0.631590
O3    O     O_R   0.499990 0.316780 0.385290 -0.631157
O4    O     O_R   0.500010 0.683220 0.614710 -0.635429
O5    O     O_R   0.316760 0.500000 0.614660 -0.573155
O6    O     O_R   0.683240 0.500000 0.385340 -0.558396
O7    O     O_R   0.316760 0.500020 0.385330 -0.629096
O8    O     O_R   0.683240 0.499980 0.614670 -0.616859
Zn1   Zn    Zn3+2 0.500000 0.499980 0.653120 0.965723
Zn2   Zn    Zn3+2 0.500000 0.500020 0.346880 0.960210
C33   C     C_1   0.323452 0.845699 0.982802 0.091162
N3    N     N_1   0.374109 0.903505 0.901444 -0.255008
C34   C     C_1   0.778709 0.291299 0.125498 0.200911
N4    N     N_1   0.750358 0.248265 0.227977 -0.208835
O9    O     O_3   0.081699 0.481276 0.119328 -0.603941
C35   C     C_3   0.165689 0.384107 0.086553 -0.304194
H15   H     H_    0.235953 0.369501 0.168164 0.171833
H16   H     H_    0.210652 0.400630 0.987425 0.186605
H17   H     H_    0.112307 0.296122 0.076987 0.190455
O10   O     O_3   0.844647 0.656119 0.828140 -0.623073
C36   C     C_3   0.855047 0.731849 0.944448 -0.347909
H18   H     H_    0.931153 0.699306 0.013089 0.213894
H19   H     H_    0.764366 0.737655 0.997740 0.159782
H20   H     H_    0.878564 0.828042 0.912174 0.180877
O11   O     O_3   0.863886 0.622965 0.283832 -0.599531
C37   C     C_3   0.826769 0.746077 0.318134 -0.327466
H21   H     H_    0.776964 0.750563 0.416550 0.160963
H22   H     H_    0.760982 0.781142 0.239827 0.176093
H23   H     H_    0.908229 0.809562 0.320366 0.163196
O12   O     O_3   0.119518 0.570246 0.744701 -0.593132
C38   C     C_3   0.132963 0.702202 0.736341 -0.250233
H24   H     H_    0.070078 0.749375 0.661315 0.140897
H25   H     H_    0.231290 0.725076 0.712673 0.180317
H26   H     H_    0.108793 0.744796 0.834794 0.188919

loop_
_geom_bond_atom_site_label_1
_geom_bond_atom_site_label_2
_ccdc_geom_bond_type
C27   C29   A    
O11   C37   S    
C15   N1    A    
C16   N2    A    
C14   H14   S    
C20   C30   A    
C37   H22   S    
C19   C21   A    
C8    H10   S    
C31   O11   S    
N1    Zn1   S    
C28   H8    S    
C22   H6    S    
O1    Zn1   S    
O8    Zn1   S    
C3    C18   S    
C25   O9    S    
C36   H19   S    
C2    O2    A    
C16   H2    S    
C29   C33   S    
C27   H7    S    
O10   C36   S    
C37   H23   S    
C17   O7    A    
C18   O8    A    
C5    C32   A    
C7    H9    S    
C6    C31   A    
C33   N3    T    
C36   H18   S    
C1    C12   S    
C2    C11   S    
C10   C12   A    
C7    C12   A    
C9    H11   S    
C37   H21   S    
C10   H12   S    
O2    Zn2   S    
C35   H17   S    
C4    C6    A    
C38   H25   S    
O5    Zn1   S    
O12   C38   S    
C38   H24   S    
C35   H16   S    
C36   H20   S    
C13   N2    A    
C9    C11   A    
O3    Zn2   S    
C3    C31   A    
C1    O3    A    
C4    C32   A    
C2    O4    A    
C4    C17   S    
C20   C22   A    
C13   C15   A    
C22   C24   A    
C30   C34   S    
C19   C29   A    
C17   O5    A    
O6    Zn2   S    
C7    C9    A    
C24   C26   A    
C3    C5    A    
C38   H26   S    
N2    Zn2   S    
C14   N1    A    
C25   C27   A    
C26   C28   A    
C26   O10   S    
C35   H15   S    
C21   C23   A    
C19   H3    S    
C13   H13   S    
C5    C24   S    
C8    C11   A    
C6    C23   S    
C28   C30   A    
C14   C16   A    
C23   C25   A    
C34   N4    T    
O4    Zn1   S    
C18   O6    A    
C32   O12   S    
O9    C35   S    
C20   H4    S    
C21   H5    S    
C8    C10   A    
O7    Zn2   S    
C1    O1    A    
C15   H1    S    
