data_mof_unit_42988.cif
_audit_creation_date              2012-12-11T15:26:39-0500
_audit_creation_method            fapswitch 2.2
_symmetry_space_group_name_H-M    P1
_symmetry_Int_Tables_number       1
_space_group_crystal_system       triclinic
_cell_length_a                    8.200752
_cell_length_b                    15.04417
_cell_length_c                    19.018611
_cell_angle_alpha                 96.22186
_cell_angle_beta                  94.938923
_cell_angle_gamma                 97.560181
_cell_volume                      2300.27483601

loop_
_atom_site_label
_atom_site_type_symbol
_atom_type_description
_atom_site_fract_x
_atom_site_fract_y
_atom_site_fract_z
_atom_type_partial_charge
Ba1   Ba    Ba6+2 0.161750 0.544670 0.467760 1.647007
Ba2   Ba    Ba6+2 0.648430 0.455320 0.532180 1.637041
C1    C     C_3   0.393828 0.716758 0.220268 -0.237436
C2    C     C_3   0.459147 0.794481 0.278568 0.414631
C3    C     C_3   0.560683 0.730399 0.638885 0.312969
C4    C     C_3   0.592997 0.832357 0.658651 -0.393679
C5    C     C_3   0.859986 0.204712 0.679566 0.350674
C6    C     C_3   0.816901 0.108345 0.696303 -0.357972
C7    C     C_3   0.383849 0.261091 0.719730 0.365205
C8    C     C_3   0.391359 0.234278 0.794581 -0.369266
C9    C     C_R   0.632153 0.833908 0.454052 -0.041355
C10   C     C_R   0.882923 0.794283 0.517305 0.060341
C11   C     C_R   0.081883 0.232254 0.514955 -0.275772
C12   C     C_3   0.902133 0.783850 0.274419 0.341375
C13   C     C_R   0.175615 0.170409 0.541602 0.016269
C14   C     C_R   0.109159 0.078584 0.536112 -0.154097
C15   C     C_R   0.948395 0.046362 0.500601 0.011886
C16   C     C_R   0.862770 0.110538 0.468514 -0.040050
C17   C     C_R   0.870946 0.953185 0.494635 0.011888
C18   C     C_R   0.703042 0.928085 0.461040 -0.043659
C19   C     C_R   0.618650 0.998308 0.435101 0.006990
C20   C     C_R   0.710356 0.081623 0.430080 -0.043318
C21   C     C_R   0.954183 0.885275 0.523530 -0.116725
C22   C     C_R   0.725365 0.770102 0.481141 -0.265714
C23   C     C_3   0.973866 0.878109 0.259227 -0.158461
C24   C     C_R   0.927706 0.204165 0.477411 0.010274
C25   C     C_R   0.612817 0.542915 0.300880 -0.264773
C26   C     C_R   0.459662 0.491668 0.276786 0.074501
C27   C     C_R   0.405734 0.479378 0.203855 -0.142866
C28   C     C_R   0.506883 0.515993 0.154698 -0.005970
C29   C     C_R   0.665838 0.561904 0.179659 -0.142322
C30   C     C_R   0.718793 0.574488 0.252372 -0.023159
C31   C     C_R   0.483207 0.577804 0.037448 -0.081420
C32   C     C_R   0.430157 0.568580 0.964880 -0.079658
C33   C     C_R   0.341473 0.486881 0.930389 0.061556
C34   C     C_3   0.753775 0.351229 0.317059 0.311050
C35   C     C_R   0.305200 0.414980 0.970639 -0.080237
C36   C     C_R   0.358255 0.424267 0.043386 -0.077563
C37   C     C_R   0.448501 0.505711 0.077588 0.065717
C38   C     C_R   0.130981 0.430982 0.824947 -0.137352
C39   C     C_R   0.081108 0.423965 0.751950 0.019198
C40   C     C_R   0.342585 0.508845 0.733202 0.033540
C41   C     C_R   0.393462 0.516154 0.805938 -0.120384
C42   C     C_R   0.288616 0.476834 0.852704 -0.010511
C43   C     C_R   0.189280 0.460268 0.706311 -0.276985
C44   C     C_3   0.678322 0.326333 0.240195 -0.436775
C45   C     C_3   0.044761 0.651931 0.684424 0.311429
C46   C     C_3   0.075402 0.674882 0.764781 -0.399320
C47   C     C_3   0.179404 0.268025 0.343895 0.353509
C48   C     C_3   0.099546 0.190454 0.287587 -0.187602
H1    H     H_    0.578977 0.780048 0.302970 -0.099066
H2    H     H_    0.544090 0.304913 0.238552 0.130265
H3    H     H_    0.701284 0.384595 0.209744 0.075138
H4    H     H_    0.730531 0.269181 0.213475 0.122987
H5    H     H_    0.153582 0.626124 0.664049 0.004171
H6    H     H_    0.935314 0.599220 0.671825 0.071690
H7    H     H_    0.191242 0.723067 0.779100 0.129665
H8    H     H_    0.970376 0.705841 0.785224 0.122943
H9    H     H_    0.087008 0.312169 0.357016 0.027740
H10   H     H_    0.218544 0.239795 0.392855 -0.046360
H11   H     H_    0.360166 0.654577 0.245082 0.129227
H12   H     H_    0.989414 0.155113 0.308393 0.053327
H13   H     H_    0.186150 0.140604 0.279448 0.094592
H14   H     H_    0.489346 0.705006 0.183970 0.034765
H15   H     H_    0.678913 0.706471 0.627296 0.013064
H16   H     H_    0.685392 0.849969 0.706008 0.124450
H17   H     H_    0.641479 0.865544 0.613879 0.059456
H18   H     H_    0.476274 0.858043 0.670687 0.128693
H19   H     H_    0.281943 0.730563 0.188870 0.116907
H20   H     H_    0.881602 0.924563 0.269686 0.051949
H21   H     H_    0.796082 0.209921 0.626653 0.090637
H22   H     H_    0.995459 0.218312 0.677401 -0.061485
H23   H     H_    0.681334 0.091960 0.697895 0.152858
H24   H     H_    0.856407 0.060513 0.654609 0.069897
H25   H     H_    0.881177 0.100281 0.748565 0.108599
H26   H     H_    0.259323 0.278969 0.705749 -0.065216
H27   H     H_    0.477782 0.321078 0.719229 0.101520
H28   H     H_    0.369825 0.291752 0.832665 0.071615
H29   H     H_    0.514947 0.215551 0.809914 0.145731
H30   H     H_    0.872444 0.788766 0.330649 -0.020204
H31   H     H_    0.294876 0.175884 0.797191 0.108628
H32   H     H_    0.075757 0.900991 0.551794 0.078696
H33   H     H_    0.132278 0.303126 0.521089 0.077568
H34   H     H_    0.185713 0.034951 0.560141 0.069584
H35   H     H_    0.656130 0.127664 0.399296 0.114977
H36   H     H_    0.513577 0.553374 0.825869 0.074153
H37   H     H_    0.457054 0.626005 0.935921 0.060050
H38   H     H_    0.550033 0.641935 0.062336 0.057422
H39   H     H_    0.788490 0.760263 0.237720 -0.052912
H40   H     H_    0.285049 0.441655 0.185746 0.076413
H41   H     H_    0.238555 0.350881 0.945608 0.060501
H42   H     H_    0.749771 0.585995 0.142678 0.067039
H43   H     H_    0.149843 0.455738 0.650093 0.064384
H44   H     H_    0.655310 0.551512 0.356976 0.064742
H45   H     H_    0.086815 0.903132 0.296328 0.120079
H46   H     H_    0.668069 0.386739 0.347718 0.033645
H47   H     H_    0.871765 0.396716 0.318056 0.052625
O1    O     O_2   0.164990 0.721870 0.541490 -0.450069
O2    O     O_3   0.320225 0.312268 0.319349 -0.642009
O3    O     O_3   0.017054 0.724120 0.263178 -0.564393
O4    O     O_2   0.645300 0.278070 0.458480 -0.449311
O5    O     O_3   0.917280 0.391520 0.460790 -0.498616
O6    O     O_3   0.421200 0.332510 0.586090 -0.479823
O7    O     O_3   0.782509 0.272084 0.345263 -0.652633
O8    O     O_3   0.383620 0.545480 0.584560 -0.476134
O9    O     O_3   0.845920 0.377940 0.622610 -0.485297
O10   O     O_2   0.743336 0.430792 0.747376 -0.491980
O11   O     O_3   0.808648 0.264810 0.732342 -0.597875
O12   O     O_3   0.893010 0.608480 0.539150 -0.499879
O13   O     O_3   0.426680 0.454510 0.415380 -0.466701
O14   O     O_2   0.638220 0.542340 0.670930 -0.461810
O15   O     O_3   0.497364 0.690117 0.695955 -0.642116
O16   O     O_2   0.522770 0.175798 0.547397 -0.493009
O17   O     O_3   0.416762 0.188787 0.672519 -0.600846
O18   O     O_3   0.389100 0.667490 0.413860 -0.456469
O19   O     O_2   0.288431 0.817104 0.459606 -0.480206
O20   O     O_3   0.018359 0.730381 0.654661 -0.638445
O21   O     O_3   0.339671 0.797731 0.327253 -0.575374
O22   O     O_2   0.172070 0.457600 0.329050 -0.482351
O23   O     O_3   0.964370 0.622050 0.377340 -0.459799
O24   O     O_2   0.048225 0.554960 0.252357 -0.482396
P1    P     P_3+3 0.990670 0.707470 0.561860 0.986878
P2    P     P_3+3 0.340140 0.430100 0.338890 0.983533
P3    P     P_3+3 0.934652 0.618776 0.285014 0.974994
P4    P     P_3+3 0.819620 0.292520 0.438080 0.960271
P5    P     P_3+3 0.870127 0.375417 0.714559 0.945161
P6    P     P_3+3 0.418488 0.783176 0.413417 0.951555
P7    P     P_3+3 0.463300 0.572702 0.673477 0.944303
P8    P     P_3+3 0.384414 0.215181 0.585472 0.950968
H48   H     H_    0.086717 0.613033 0.790420 0.066105
C49   C     C_3   0.045554 0.222770 0.216168 -0.154951
C50   C     C_3   0.178083 0.223379 0.164437 -0.399616
H49   H     H_    0.124836 0.237796 0.111901 0.107143
H50   H     H_    0.282956 0.276842 0.183587 0.138213
H51   H     H_    0.223694 0.157115 0.157265 0.127045
H52   H     H_    0.934835 0.176383 0.190418 0.094959
H53   H     H_    0.011835 0.291903 0.224947 0.112074
C51   C     C_3   0.486840 0.887539 0.250066 -0.210721
C52   C     C_3   0.540116 0.886607 0.174911 -0.478110
H54   H     H_    0.644027 0.847690 0.168754 0.130464
H55   H     H_    0.435274 0.856505 0.134930 0.132405
H56   H     H_    0.580011 0.956923 0.164312 0.137332
H57   H     H_    0.371729 0.918832 0.250587 0.123029
H58   H     H_    0.582580 0.932792 0.286941 0.076399
H59   H     H_    0.470857 0.715305 0.590539 0.063731
H60   H     H_    0.671731 0.699883 0.476679 0.065246
C53   C     C_3   0.430499 0.992939 0.421239 -0.191572
C54   C     C_3   0.358304 0.072464 0.392719 -0.453772
H61   H     H_    0.392913 0.135649 0.428925 0.180636
H62   H     H_    0.400052 0.082346 0.339705 0.118381
H63   H     H_    0.221141 0.057294 0.386431 0.105426
H64   H     H_    0.383769 0.940159 0.378925 0.145049
H65   H     H_    0.375359 0.980502 0.471110 0.139170
H66   H     H_    0.331590 0.367056 0.072535 0.054357
H67   H     H_    0.045354 0.403527 0.860004 0.073948
C55   C     C_3   0.015955 0.878002 0.182028 -0.178482
C56   C     C_3   0.064481 0.973610 0.164416 -0.455230
H68   H     H_    0.093817 0.971364 0.108396 0.129580
H69   H     H_    0.960961 0.013441 0.171189 0.141472
H70   H     H_    0.175523 0.006899 0.199560 0.128393
H71   H     H_    0.120272 0.839592 0.173616 0.138923
H72   H     H_    0.909047 0.844791 0.144361 0.103047

loop_
_geom_bond_atom_site_label_1
_geom_bond_atom_site_label_2
_ccdc_geom_bond_type
C29   H42   S    
Ba2   O12   S    
C56   H68   S    
C21   H32   S    
C10   C22   A    
C30   P3    S    
C9    P6    S    
C53   C54   S    
C16   C24   A    
C54   H63   S    
C41   C42   A    
O5    P4    S    
C43   H43   S    
C8    H28   S    
C26   P2    S    
C46   H7    S    
C1    H14   S    
C10   C21   A    
C26   C27   A    
C31   C37   A    
C47   H10   S    
O16   P8    D    
C7    O17   S    
C19   C53   S    
O2    P2    S    
C55   C56   S    
C33   C35   A    
C31   H38   S    
C54   H62   S    
C32   C33   A    
C51   H57   S    
C5    H21   S    
C3    C4    S    
Ba1   O13   S    
C52   H56   S    
O12   P1    S    
Ba2   O5    S    
C13   C14   A    
C44   H2    S    
C9    C22   A    
C14   H34   S    
O18   P6    S    
Ba1   Ba2   S    
Ba1   O22   S    
C20   H35   S    
Ba1   P1    S    
O24   P3    D    
Ba1   O12   S    
C24   P4    S    
O7    P4    S    
C17   C18   A    
C50   H49   S    
O19   P6    D    
O4    P4    D    
C38   H67   S    
C34   C44   S    
C34   H47   S    
C7    H26   S    
C12   H30   S    
C7    C8    S    
C38   C42   A    
C40   P7    S    
C4    H18   S    
C55   H72   S    
C56   H69   S    
C19   C20   A    
C23   C55   S    
C48   H13   S    
C2    O21   S    
C27   H40   S    
C46   H48   S    
C31   C32   A    
C1    H11   S    
Ba2   O14   S    
C9    C18   A    
C3    H59   S    
C35   H41   S    
C2    H1    S    
C22   H60   S    
C5    C6    S    
C54   H61   S    
C3    H15   S    
C49   H52   S    
C51   C52   S    
C5    H22   S    
C14   C15   A    
Ba2   O4    S    
Ba2   O9    S    
C6    H25   S    
O3    P3    S    
C40   C43   A    
C35   C36   A    
C17   C21   A    
O20   P1    S    
Ba1   P2    S    
C12   H39   S    
C27   C28   A    
C49   H53   S    
O13   P2    S    
C47   O2    S    
C34   H46   S    
C45   C46   S    
C13   P8    S    
C4    H16   S    
C28   C29   A    
C8    H29   S    
C44   H4    S    
C6    H24   S    
C15   C16   A    
C7    H27   S    
C12   O3    S    
C33   C42   S    
O6    P8    S    
C38   C39   A    
C55   H71   S    
C23   H45   S    
C56   H70   S    
C11   C13   A    
C48   H12   S    
O17   P8    S    
C11   C24   A    
C40   C41   A    
C36   H66   S    
C1    C2    S    
O14   P7    D    
C45   H5    S    
O1    P1    D    
C11   H33   S    
Ba2   O13   S    
C8    H31   S    
O8    P7    S    
C1    H19   S    
C25   C30   A    
C16   C20   A    
C41   H36   S    
C39   P5    S    
C29   C30   A    
O10   P5    D    
Ba1   O1    S    
C52   H54   S    
C46   H8    S    
C3    O15   S    
O22   P2    D    
O9    P5    S    
Ba2   O8    S    
C47   H9    S    
C34   O7    S    
C53   H64   S    
C4    H17   S    
C52   H55   S    
C36   C37   A    
Ba2   O6    S    
C50   H51   S    
C44   H3    S    
C6    H23   S    
C15   C17   A    
C28   C37   S    
C32   H37   S    
C12   C23   S    
C53   H65   S    
O15   P7    S    
C48   C49   S    
C2    C51   S    
Ba2   P4    S    
O23   P3    S    
C45   O20   S    
C10   P1    S    
C18   C19   A    
C50   H50   S    
C47   C48   S    
O21   P6    S    
C25   C26   A    
C39   C43   A    
C5    O11   S    
C25   H44   S    
C51   H58   S    
C23   H20   S    
Ba1   O18   S    
O11   P5    S    
Ba1   O5    S    
Ba1   O23   S    
C49   C50   S    
Ba1   O8    S    
C45   H6    S    
