data_mof_unit_26935.cif
_audit_creation_date              2013-03-05T15:40:52-0500
_audit_creation_method            fapswitch 2.2
_symmetry_space_group_name_H-M    P1
_symmetry_Int_Tables_number       1
_space_group_crystal_system       triclinic
_cell_length_a                    27.983565
_cell_length_b                    18.699392
_cell_length_c                    16.832537
_cell_angle_alpha                 90.090465
_cell_angle_beta                  62.840818
_cell_angle_gamma                 89.992712
_cell_volume                      7836.88284767

loop_
_atom_site_label
_atom_site_type_symbol
_atom_site_description
_atom_site_fract_x
_atom_site_fract_y
_atom_site_fract_z
_atom_type_partial_charge
O1    O     O_R   0.255040 0.869590 0.478480 -0.581895
O2    O     O_R   0.744960 0.130410 0.521520 -0.572954
O3    O     O_R   0.744960 0.869590 0.521520 -0.577030
O4    O     O_R   0.255040 0.130410 0.478480 -0.574496
O5    O     O_R   0.755040 0.369590 0.478480 -0.585101
O6    O     O_R   0.244960 0.630410 0.521520 -0.575976
O7    O     O_R   0.244960 0.369590 0.521520 -0.581946
O8    O     O_R   0.755040 0.630410 0.478480 -0.574426
O9    O     O_R   0.182050 0.796550 0.624440 -0.568769
O10   O     O_R   0.817950 0.203450 0.375560 -0.584526
O11   O     O_R   0.817950 0.796550 0.375560 -0.584213
O12   O     O_R   0.182050 0.203450 0.624440 -0.583494
O13   O     O_R   0.682050 0.296550 0.624440 -0.588037
O14   O     O_R   0.317950 0.703450 0.375560 -0.586900
O15   O     O_R   0.317950 0.296550 0.375560 -0.572520
O16   O     O_R   0.682050 0.703450 0.624440 -0.584240
Cu1   Cu    Cu3+1 0.209920 0.785290 0.495070 0.980227
Cu2   Cu    Cu3+1 0.790080 0.214710 0.504930 0.967209
Cu3   Cu    Cu3+1 0.790080 0.785290 0.504930 0.958605
Cu4   Cu    Cu3+1 0.209920 0.214710 0.495070 0.965557
Cu5   Cu    Cu3+1 0.709920 0.285290 0.495070 0.980953
Cu6   Cu    Cu3+1 0.290080 0.714710 0.504930 0.958069
Cu7   Cu    Cu3+1 0.290080 0.285290 0.504930 0.972735
Cu8   Cu    Cu3+1 0.709920 0.714710 0.495070 0.958697
C1    C     C_R   0.295703 0.730475 0.328691 0.790143
C2    C     C_R   0.708306 0.278244 0.668136 0.807025
C3    C     C_R   0.709044 0.721465 0.667976 0.816419
C4    C     C_R   0.292822 0.275574 0.330376 0.825619
C5    C     C_R   0.796130 0.231208 0.328325 0.807594
C6    C     C_R   0.207151 0.775542 0.669641 0.828481
C7    C     C_R   0.204312 0.230437 0.671330 0.791405
C8    C     C_R   0.792718 0.775953 0.330457 0.812485
O17   O     O_R   0.250530 0.763330 0.367210 -0.602884
O18   O     O_R   0.749470 0.236670 0.632790 -0.581198
O19   O     O_R   0.749470 0.763330 0.632790 -0.599554
O20   O     O_R   0.250530 0.236670 0.367210 -0.590937
O21   O     O_R   0.750530 0.263330 0.367210 -0.584688
O22   O     O_R   0.249470 0.736670 0.632790 -0.591779
O23   O     O_R   0.249470 0.263330 0.632790 -0.602930
O24   O     O_R   0.750530 0.736670 0.367210 -0.589483
O25   O     O_R   0.177260 0.690030 0.513710 -0.587823
O26   O     O_R   0.822740 0.309970 0.486290 -0.614020
O27   O     O_R   0.822740 0.690030 0.486290 -0.602921
O28   O     O_R   0.177260 0.309970 0.513710 -0.605094
O29   O     O_R   0.677260 0.190030 0.513710 -0.584081
O30   O     O_R   0.322740 0.809970 0.486290 -0.606428
O31   O     O_R   0.322740 0.190030 0.486290 -0.592113
O32   O     O_R   0.677260 0.809970 0.513710 -0.607274
C9    C     C_R   0.200437 0.631083 0.514477 0.831263
C10   C     C_R   0.803091 0.368289 0.473505 0.789028
C11   C     C_R   0.803669 0.631748 0.471427 0.806700
C12   C     C_R   0.196919 0.368518 0.526082 0.793144
C13   C     C_R   0.696299 0.131812 0.528749 0.819932
C14   C     C_R   0.303018 0.868523 0.474324 0.792957
C15   C     C_R   0.299580 0.131087 0.485603 0.828495
C16   C     C_R   0.696785 0.868276 0.527054 0.813214
H1    H     H_    0.541526 0.755747 0.508647 0.147840
H2    H     H_    0.427508 0.237885 0.588754 0.179840
H3    H     H_    0.470838 0.758524 0.461018 0.148097
H4    H     H_    0.511269 0.239498 0.601665 0.173239
H5    H     H_    0.026711 0.259573 0.547932 0.164978
H6    H     H_    0.988930 0.738621 0.398260 0.172341
H7    H     H_    0.955793 0.256359 0.500882 0.156795
H8    H     H_    0.072826 0.736968 0.410730 0.180289
C17   C     C_R   0.066955 0.625209 0.447496 0.072031
C18   C     C_R   0.956424 0.370799 0.479917 0.078178
C19   C     C_R   0.970741 0.626883 0.432479 0.070258
C20   C     C_R   0.040406 0.373589 0.526895 0.083193
C21   C     C_R   0.528838 0.127251 0.569562 0.071286
C22   C     C_R   0.458012 0.872917 0.479398 0.091636
C23   C     C_R   0.432749 0.125605 0.554011 0.067003
C24   C     C_R   0.541766 0.870489 0.527055 0.088032
C25   C     C_R   0.049645 0.688176 0.423145 -0.076537
C26   C     C_R   0.974222 0.307115 0.501811 -0.183444
C27   C     C_R   0.001706 0.689186 0.416279 -0.124964
C28   C     C_R   0.014454 0.308972 0.528921 -0.163419
C29   C     C_R   0.498219 0.189828 0.584563 -0.115411
C30   C     C_R   0.483343 0.808144 0.479221 -0.188360
C31   C     C_R   0.450359 0.188847 0.577403 -0.080430
C32   C     C_R   0.523438 0.806534 0.506689 -0.189017
C33   C     C_R   0.988448 0.563550 0.455553 0.039397
C34   C     C_R   0.024353 0.436720 0.500639 0.032825
C35   C     C_R   0.035796 0.563218 0.465803 0.036631
C36   C     C_R   0.979961 0.435941 0.482648 0.036297
C37   C     C_R   0.463467 0.063264 0.537240 0.033285
C38   C     C_R   0.518487 0.935625 0.523256 0.034665
C39   C     C_R   0.510741 0.063619 0.547769 0.036094
C40   C     C_R   0.474198 0.936286 0.504940 0.032814
C41   C     C_R   0.446149 0.000060 0.512577 -0.036964
C42   C     C_R   0.538531 0.999695 0.540324 -0.037243
C43   C     C_R   0.960344 0.499771 0.464127 -0.035316
C44   C     C_R   0.052884 0.500267 0.491318 -0.033128
C45   C     C_R   0.383136 0.936093 0.473173 0.050768
C46   C     C_R   0.609639 0.065171 0.556415 0.051455
C47   C     C_R   0.611763 0.933844 0.547961 0.046557
C48   C     C_R   0.369955 0.063687 0.512135 0.043241
C49   C     C_R   0.887434 0.433752 0.455728 0.047074
C50   C     C_R   0.129804 0.563532 0.489212 0.044951
C51   C     C_R   0.116317 0.436411 0.529702 0.049885
C52   C     C_R   0.889922 0.564953 0.445692 0.050878
C53   C     C_R   0.333274 0.935396 0.468654 -0.108168
C54   C     C_R   0.663372 0.065376 0.546026 -0.114965
C55   C     C_R   0.664143 0.934309 0.542975 -0.108605
C56   C     C_R   0.326369 0.064407 0.490002 -0.111494
C57   C     C_R   0.835554 0.434229 0.458654 -0.104831
C58   C     C_R   0.173648 0.564355 0.510543 -0.110580
C59   C     C_R   0.166618 0.435514 0.532559 -0.108492
C60   C     C_R   0.836460 0.565213 0.454903 -0.110304
C61   C     C_R   0.307902 0.000191 0.471598 -0.266973
C62   C     C_R   0.688779 0.999878 0.541604 -0.264568
C63   C     C_R   0.811152 0.499758 0.458953 -0.265578
C64   C     C_R   0.192273 0.500227 0.528739 -0.264521
H9    H     H_    0.272131 0.000354 0.462079 0.194336
H10   H     H_    0.729550 0.999966 0.533120 0.193924
H11   H     H_    0.770649 0.499876 0.466190 0.194861
H12   H     H_    0.228358 0.500379 0.537339 0.194283
C65   C     C_R   0.399922 0.000099 0.498480 0.071794
C66   C     C_R   0.586814 0.999641 0.548262 0.072539
C67   C     C_R   0.912344 0.499571 0.455321 0.071747
C68   C     C_R   0.099462 0.500243 0.504300 0.074501
C69   C     C_R   0.583299 0.870199 0.550587 -0.235792
C70   C     C_R   0.384612 0.123800 0.548154 -0.208737
C71   C     C_R   0.416047 0.874744 0.456411 -0.233552
C72   C     C_R   0.577342 0.127518 0.575204 -0.210378
C73   C     C_R   0.083052 0.375390 0.548213 -0.226077
C74   C     C_R   0.922370 0.627091 0.426446 -0.219643
C75   C     C_R   0.915485 0.370139 0.455084 -0.237202
C76   C     C_R   0.115279 0.623275 0.452647 -0.204189
H13   H     H_    0.591087 0.819374 0.572004 0.182763
H14   H     H_    0.358572 0.169221 0.576016 0.183298
H15   H     H_    0.410704 0.827753 0.424192 0.175516
H16   H     H_    0.587983 0.176326 0.597469 0.172664
H17   H     H_    0.088901 0.328609 0.580124 0.178252
H18   H     H_    0.912054 0.675577 0.403168 0.175694
H19   H     H_    0.908289 0.319010 0.433522 0.184390
H20   H     H_    0.141626 0.668188 0.423727 0.180797
C77   C     C_R   0.213369 0.755984 0.961239 -0.019131
C78   C     C_R   0.790894 0.253825 0.035561 -0.015661
C79   C     C_R   0.794803 0.740197 0.034866 -0.016523
C80   C     C_R   0.231307 0.215699 0.942190 -0.017914
C81   C     C_R   0.730250 0.287117 0.944487 -0.013744
C82   C     C_R   0.268614 0.715636 0.057840 -0.018192
C83   C     C_R   0.286542 0.256107 0.038821 -0.019491
C84   C     C_R   0.743757 0.690818 0.934177 -0.014369
C85   C     C_R   0.261002 0.715421 0.920645 0.102856
C86   C     C_R   0.740599 0.288455 0.080213 0.082532
C87   C     C_R   0.744255 0.705949 0.076732 0.098575
C88   C     C_R   0.274932 0.263734 0.904967 0.093531
C89   C     C_R   0.784754 0.265737 0.895881 0.082462
C90   C     C_R   0.224918 0.763685 0.095206 0.093431
C91   C     C_R   0.238959 0.215577 0.079325 0.102558
C92   C     C_R   0.794191 0.725750 0.891141 0.090150
C93   C     C_R   0.282067 0.684114 0.974256 -0.069847
C94   C     C_R   0.706851 0.294706 0.038250 -0.066615
C95   C     C_R   0.723502 0.671322 0.024389 -0.064463
C96   C     C_R   0.308233 0.273014 0.947390 -0.067822
C97   C     C_R   0.812975 0.239966 0.942673 -0.068238
C98   C     C_R   0.191631 0.772966 0.052740 -0.067936
C99   C     C_R   0.217920 0.184224 0.025646 -0.069885
C100  C     C_R   0.823026 0.742928 0.940493 -0.061007
C101  C     C_R   0.138014 0.815469 0.952376 -0.006007
C102  C     C_R   0.866028 0.191783 0.043932 0.002605
C103  C     C_R   0.867179 0.806437 0.046701 -0.002421
C104  C     C_R   0.160113 0.147204 0.930931 -0.005885
C105  C     C_R   0.645793 0.326163 0.945943 -0.004795
C106  C     C_R   0.339879 0.647150 0.068958 -0.005867
C107  C     C_R   0.361864 0.315586 0.047730 -0.006301
C108  C     C_R   0.664876 0.635705 0.930090 -0.002513
C109  C     C_R   0.115496 0.846201 0.899471 -0.090013
C110  C     C_R   0.887305 0.158744 0.097903 -0.096911
C111  C     C_R   0.886048 0.844186 0.100532 -0.093787
C112  C     C_R   0.125862 0.136771 0.890020 -0.093245
C113  C     C_R   0.618024 0.349542 0.897475 -0.094651
C114  C     C_R   0.374103 0.636743 0.109946 -0.097026
C115  C     C_R   0.384382 0.346400 0.100629 -0.090964
C116  C     C_R   0.630103 0.629202 0.888711 -0.093866
C117  C     C_R   0.138880 0.831137 0.808127 -0.254191
C118  C     C_R   0.864636 0.175761 0.188951 -0.263110
C119  C     C_R   0.860901 0.832635 0.192702 -0.259910
C120  C     C_R   0.139132 0.169072 0.807721 -0.263681
C121  C     C_R   0.638864 0.331485 0.807374 -0.261493
C122  C     C_R   0.360851 0.669155 0.192230 -0.265951
C123  C     C_R   0.361012 0.331397 0.191996 -0.259941
C124  C     C_R   0.645801 0.659709 0.804883 -0.272629
H21   H     H_    0.120053 0.851172 0.768853 0.198601
H22   H     H_    0.880080 0.149972 0.230097 0.190553
H23   H     H_    0.877715 0.856262 0.233214 0.194156
H24   H     H_    0.116004 0.156328 0.772604 0.193796
H25   H     H_    0.615689 0.342915 0.771988 0.193468
H26   H     H_    0.383995 0.656471 0.227311 0.190470
H27   H     H_    0.379827 0.351485 0.231310 0.196122
H28   H     H_    0.619250 0.655636 0.774211 0.187785
C125  C     C_R   0.187098 0.793242 0.765568 -0.125575
C126  C     C_R   0.820995 0.222631 0.229213 -0.118138
C127  C     C_R   0.813479 0.793210 0.234213 -0.122689
C128  C     C_R   0.183058 0.215166 0.768029 -0.116617
C129  C     C_R   0.690094 0.301858 0.761246 -0.117333
C130  C     C_R   0.316914 0.715251 0.231996 -0.115759
C131  C     C_R   0.312846 0.293408 0.234500 -0.124824
C132  C     C_R   0.695276 0.694008 0.758682 -0.113742
C133  C     C_R   0.214604 0.772779 0.815815 0.078038
C134  C     C_R   0.798567 0.253449 0.175735 0.070509
C135  C     C_R   0.787846 0.770077 0.182211 0.076837
C136  C     C_R   0.210456 0.236984 0.817749 0.070138
C137  C     C_R   0.723156 0.296554 0.804816 0.070262
C138  C     C_R   0.289439 0.737012 0.182387 0.070353
C139  C     C_R   0.285345 0.272981 0.184229 0.077804
C140  C     C_R   0.730493 0.700439 0.799550 0.072352
C141  C     C_R   0.188330 0.780885 0.909780 0.073058
C142  C     C_R   0.818547 0.232740 0.085129 0.074731
C143  C     C_R   0.816860 0.771790 0.087891 0.073305
C144  C     C_R   0.200452 0.200097 0.896983 0.072329
C145  C     C_R   0.699563 0.302786 0.898582 0.071105
C146  C     C_R   0.299482 0.700069 0.103031 0.072784
C147  C     C_R   0.311581 0.281044 0.090294 0.073156
C148  C     C_R   0.712704 0.676347 0.888077 0.072452
C149  C     C_R   0.111657 0.816764 0.046630 -0.221766
C150  C     C_R   0.889894 0.184782 0.950294 -0.233284
C151  C     C_R   0.898100 0.798900 0.953848 -0.223049
C152  C     C_R   0.157260 0.104659 0.002226 -0.235280
C153  C     C_R   0.621355 0.323593 0.039672 -0.217395
C154  C     C_R   0.342818 0.604576 0.997466 -0.235871
C155  C     C_R   0.388202 0.316743 0.953485 -0.223756
C156  C     C_R   0.656071 0.599418 0.009241 -0.240550
C157  C     C_R   0.138110 0.798056 0.096927 0.336011
C158  C     C_R   0.862764 0.202751 0.900998 0.314576
C159  C     C_R   0.877766 0.765051 0.901068 0.313382
C160  C     C_R   0.184050 0.123653 0.051691 0.302304
C161  C     C_R   0.650587 0.307188 0.086164 0.318992
C162  C     C_R   0.316027 0.623538 0.948021 0.302790
C163  C     C_R   0.361732 0.298004 0.903202 0.335990
C164  C     C_R   0.683359 0.618045 0.058073 0.296017
C165  C     C_R   0.267925 0.746159 0.776529 -0.182766
C166  C     C_R   0.757579 0.305759 0.207806 -0.172417
C167  C     C_R   0.733946 0.747023 0.220318 -0.180231
C168  C     C_R   0.247634 0.294095 0.791524 -0.185985
C169  C     C_R   0.779306 0.289079 0.757933 -0.179637
C170  C     C_R   0.252158 0.794106 0.208821 -0.186841
C171  C     C_R   0.232050 0.246422 0.223492 -0.183581
C172  C     C_R   0.783322 0.728655 0.755859 -0.195847
C173  C     C_R   0.289286 0.714380 0.827636 -0.124522
C174  C     C_R   0.727773 0.320591 0.162710 -0.088853
C175  C     C_R   0.713161 0.713976 0.169084 -0.125515
C176  C     C_R   0.280674 0.305344 0.832000 -0.105206
C177  C     C_R   0.809498 0.274993 0.802667 -0.114494
C178  C     C_R   0.219102 0.805311 0.168367 -0.105560
C179  C     C_R   0.210693 0.214612 0.172328 -0.124438
C180  C     C_R   0.812694 0.744569 0.801468 -0.132775
H29   H     H_    0.069300 0.828417 0.082981 0.201707
H30   H     H_    0.930024 0.164524 0.912531 0.208649
H31   H     H_    0.940004 0.813992 0.922347 0.196432
H32   H     H_    0.137001 0.053760 0.017634 0.209974
H33   H     H_    0.578305 0.328822 0.077985 0.201893
H34   H     H_    0.363157 0.553681 0.981860 0.209307
H35   H     H_    0.430555 0.328287 0.917125 0.201505
H36   H     H_    0.630929 0.552858 0.032104 0.216178
H37   H     H_    0.295701 0.751721 0.707009 0.179334
H38   H     H_    0.748068 0.337480 0.266532 0.182501
H39   H     H_    0.705715 0.757083 0.288934 0.175961
H40   H     H_    0.250821 0.332535 0.741636 0.181753
H41   H     H_    0.801052 0.297034 0.686615 0.170892
H42   H     H_    0.248897 0.832578 0.258869 0.181613
H43   H     H_    0.204301 0.252068 0.293044 0.179421
H44   H     H_    0.805079 0.738018 0.685442 0.193194
H45   H     H_    0.329769 0.693300 0.793962 0.165267
H46   H     H_    0.695561 0.359274 0.191742 0.194290
H47   H     H_    0.671437 0.697800 0.201986 0.166878
H48   H     H_    0.308852 0.349352 0.808688 0.192545
H49   H     H_    0.852574 0.273766 0.763083 0.181718
H50   H     H_    0.190866 0.849324 0.191843 0.192586
H51   H     H_    0.170233 0.193561 0.205960 0.165570
H52   H     H_    0.849420 0.774032 0.764977 0.189348
O33   O     O_R   0.051640 0.926880 0.885090 -0.580452
O34   O     O_R   0.948360 0.073120 0.114910 -0.577142
O35   O     O_R   0.948360 0.926880 0.114910 -0.580190
O36   O     O_R   0.051640 0.073120 0.885090 -0.582960
O37   O     O_R   0.551640 0.426880 0.885090 -0.580891
O38   O     O_R   0.448360 0.573120 0.114910 -0.578092
O39   O     O_R   0.448360 0.426880 0.114910 -0.580469
O40   O     O_R   0.551640 0.573120 0.885090 -0.575699
Cu9   Cu    Cu3+1 0.495240 0.500000 0.924150 1.017883
Cu10  Cu    Cu3+1 0.504760 0.500000 0.075850 1.014695
Cu11  Cu    Cu3+1 0.995240 0.000000 0.924150 1.022491
Cu12  Cu    Cu3+1 0.004760 1.000000 0.075850 1.016848
C181  C     C_R   0.928416 0.899990 0.064653 0.788769
C182  C     C_R   0.076880 0.091935 0.930779 0.793498
C183  C     C_R   0.072108 0.900615 0.935031 0.772223
C184  C     C_R   0.928328 0.100261 0.064491 0.801875
C185  C     C_R   0.427824 0.400701 0.064993 0.775368
C186  C     C_R   0.577753 0.590509 0.930506 0.806150
C187  C     C_R   0.572536 0.400983 0.934751 0.774518
C188  C     C_R   0.423100 0.591896 0.069244 0.806915
O41   O     O_R   0.940620 0.926560 0.986760 -0.575406
O42   O     O_R   0.059380 0.073440 0.013240 -0.586018
O43   O     O_R   0.059380 0.926560 0.013240 -0.589280
O44   O     O_R   0.940620 0.073440 0.986760 -0.581085
O45   O     O_R   0.440620 0.426560 0.986760 -0.588938
O46   O     O_R   0.559380 0.573440 0.013240 -0.587195
O47   O     O_R   0.559380 0.426560 0.013240 -0.590528
O48   O     O_R   0.440620 0.573440 0.986760 -0.582129
N1    N     N_R   0.107636 0.794980 0.192379 0.104938
O49   O     O_R   0.112664 0.740064 0.235281 -0.393760
O50   O     O_R   0.069280 0.840790 0.234778 -0.363356
N2    N     N_R   0.883363 0.173445 0.812585 0.104159
O51   O     O_R   0.853095 0.132072 0.792376 -0.339409
O52   O     O_R   0.934431 0.177434 0.757951 -0.384389
N3    N     N_R   0.915289 0.744872 0.811625 0.104743
O53   O     O_R   0.913789 0.680731 0.782676 -0.346417
O54   O     O_R   0.955628 0.786284 0.763855 -0.359409
N4    N     N_R   0.181389 0.076105 0.120778 0.109863
O55   O     O_R   0.224505 0.061584 0.128702 -0.348358
O56   O     O_R   0.137871 0.039678 0.167626 -0.352594
N5    N     N_R   0.621148 0.295049 0.180721 0.110603
O57   O     O_R   0.630144 0.237735 0.215632 -0.344166
O58   O     O_R   0.579943 0.334939 0.229517 -0.338984
N6    N     N_R   0.318783 0.575946 0.878738 0.109642
O59   O     O_R   0.275700 0.561380 0.870729 -0.347874
O60   O     O_R   0.362364 0.539524 0.831769 -0.352987
N7    N     N_R   0.392169 0.294753 0.807741 0.104616
O61   O     O_R   0.387050 0.239830 0.764769 -0.393422
O62   O     O_R   0.430559 0.340392 0.765384 -0.363593
N8    N     N_R   0.674512 0.576144 0.135280 0.109089
O63   O     O_R   0.714868 0.557512 0.149241 -0.350104
O64   O     O_R   0.627447 0.548754 0.185181 -0.355295

loop_
_geom_bond_atom_site_label_1
_geom_bond_atom_site_label_2
_geom_bond_distance
_ccdc_geom_bond_type
N8    O64   1.301564 A    
C101  C149  1.411831 A    
C130  C138  1.428689 A    
Cu2   Cu5   2.672270 S    
C59   C64   1.393624 A    
C23   C70   1.395218 A    
C135  C143  1.415704 A    
C105  C153  1.405120 A    
C119  C127  1.395752 A    
N1    O49   1.300335 A    
C117  C125  1.397024 A    
C77   C98   1.409309 A    
C110  C118  1.401178 A    
C83   C147  1.418510 A    
C175  H47   1.082483 S    
C80   C99   1.407972 A    
C38   C40   1.407153 A    
C81   C94   1.412669 A    
C127  C135  1.428271 A    
Cu6   O22   1.963751 S    
C125  C133  1.431598 A    
C6    O22   1.281896 A    
C166  H38   1.075991 S    
C133  C141  1.415205 A    
C2    C129  1.476370 S    
C33   C35   1.412109 A    
O39   C185  1.309745 A    
O3    Cu3   1.957884 S    
C36   C43   1.407272 A    
C128  C136  1.428085 A    
C87   C95   1.413569 A    
C120  C128  1.397369 A    
C49   C57   1.430000 A    
C138  C146  1.412364 A    
C83   C91   1.409003 A    
C132  C140  1.441396 A    
C150  H30   1.075208 S    
C136  C144  1.412462 A    
O25   C9    1.281914 A    
C29   C31   1.398541 A    
N4    O56   1.301566 A    
C106  C114  1.426427 A    
C157  N1    1.435790 S    
C38   C42   1.406685 A    
C45   C53   1.431709 A    
C102  C142  1.410590 A    
Cu12  O43   1.963952 S    
C3    O19   1.278048 A    
N6    O59   1.301630 A    
C134  C166  1.412999 A    
C112  C182  1.481920 S    
C86   C94   1.419017 A    
C87   C175  1.400196 A    
C13   C54   1.494576 S    
O12   Cu4   1.961037 S    
O13   Cu5   1.960277 S    
C138  C170  1.414442 A    
C167  C175  1.385737 A    
H2    C31   1.083512 S    
C34   C36   1.406613 A    
C152  H32   1.077597 S    
O33   C183  1.310257 A    
C173  H45   1.083051 S    
H6    C27   1.083570 S    
O34   C184  1.314410 A    
C149  H29   1.078983 S    
C156  H36   1.074773 S    
C115  C123  1.398161 A    
C116  C124  1.395042 A    
C45   C71   1.416098 A    
C16   C55   1.485288 S    
C178  H50   1.082402 S    
O2    C13   1.310897 A    
C100  C159  1.425113 A    
C50   C68   1.410821 A    
C9    C58   1.472618 S    
H7    C26   1.083728 S    
C50   C58   1.427091 A    
C60   C63   1.400253 A    
C185  O45   1.291413 A    
C136  C168  1.414290 A    
Cu3   O19   1.965232 S    
C82   C90   1.412037 A    
C104  C144  1.411450 A    
C183  O43   1.290413 A    
C184  O44   1.291816 A    
C118  H22   1.083184 S    
C163  N7    1.435734 S    
C40   C41   1.400684 A    
C74   H18   1.078530 S    
C122  H26   1.083495 S    
N3    O54   1.301550 A    
C150  C158  1.397752 A    
C103  C151  1.405716 A    
N7    O62   1.301419 A    
C14   C53   1.488809 S    
C21   C29   1.403017 A    
C107  C147  1.411303 A    
O27   C11   1.286984 A    
C114  C122  1.396998 A    
C23   C31   1.404347 A    
O15   C4    1.309253 A    
C34   C44   1.400200 A    
C134  C142  1.417109 A    
C26   C28   1.394949 A    
C55   C62   1.401757 A    
C52   C74   1.418616 A    
N6    O60   1.301566 A    
O10   Cu2   1.960277 S    
O7    C12   1.311241 A    
Cu2   O26   1.961418 S    
C30   C32   1.395402 A    
N5    O58   1.301473 A    
C6    C125  1.484162 S    
C18   C26   1.403863 A    
C182  O42   1.291141 A    
C82   C93   1.407988 A    
C124  C132  1.397073 A    
C10   C57   1.483936 S    
H8    C25   1.083472 S    
C62   H10   1.083213 S    
C101  C109  1.426231 A    
O28   C12   1.284005 A    
O16   C3    1.313683 A    
N2    O52   1.301523 A    
O29   C13   1.287218 A    
H1    C32   1.083702 S    
C171  H43   1.074429 S    
C45   C65   1.419797 A    
C172  H44   1.071506 S    
H3    C30   1.083666 S    
C109  C117  1.397036 A    
Cu4   O28   1.960306 S    
C47   C55   1.429452 A    
Cu10  O47   1.963952 S    
Cu5   O29   1.961418 S    
H5    C28   1.083701 S    
C153  H33   1.080396 S    
C52   C60   1.431971 A    
C4    C131  1.485205 S    
Cu7   O31   1.960307 S    
C169  H41   1.080375 S    
Cu8   O32   1.960306 S    
C48   C65   1.411677 A    
O40   Cu9   1.961834 S    
C84   C148  1.430229 A    
C15   C56   1.474068 S    
C78   C142  1.428552 A    
C91   C99   1.410961 A    
C49   C67   1.413031 A    
Cu4   Cu7   2.672293 S    
Cu12  O42   1.966548 S    
C86   C174  1.400205 A    
O5    Cu5   1.958854 S    
C52   C67   1.417034 A    
C99   C160  1.412765 A    
C46   C54   1.432299 A    
O9    C6    1.309738 A    
O26   C10   1.283160 A    
C105  C145  1.412208 A    
C41   C65   1.417703 A    
O11   C8    1.308345 A    
C19   C33   1.405666 A    
O12   C7    1.308978 A    
C43   C67   1.417032 A    
O13   C2    1.300789 A    
C104  C112  1.425872 A    
C19   C27   1.402881 A    
C153  C161  1.400290 A    
C64   H12   1.083541 S    
C107  C115  1.425710 A    
C165  C173  1.386162 A    
C108  C116  1.437121 A    
O37   C187  1.312485 A    
C20   C28   1.402257 A    
O38   C188  1.307903 A    
O1    Cu1   1.958854 S    
C20   C34   1.404812 A    
C108  C148  1.416635 A    
C44   C68   1.416570 A    
C24   C32   1.403634 A    
C166  C174  1.388304 A    
C46   C66   1.417044 A    
C47   C69   1.421636 A    
Cu11  O41   1.966548 S    
O7    Cu7   1.957884 S    
C50   C76   1.422146 A    
O8    Cu8   1.957886 S    
C174  H46   1.082201 S    
C113  C121  1.394693 A    
O36   Cu11  1.961834 S    
C154  C162  1.396790 A    
Cu11  Cu12  2.685582 S    
C88   C176  1.400935 A    
C164  N8    1.440028 S    
C20   C73   1.394609 A    
C162  N6    1.439653 S    
C149  C157  1.400053 A    
C102  C150  1.409197 A    
C159  N3    1.437536 S    
C24   C69   1.388538 A    
C158  N2    1.435812 S    
C129  C137  1.422446 A    
C186  O46   1.285850 A    
C106  C154  1.412549 A    
O36   C182  1.307362 A    
C118  C126  1.400383 A    
O11   Cu3   1.961037 S    
C42   C66   1.417111 A    
C77   C85   1.409080 A    
C75   H19   1.073325 S    
C76   H20   1.076882 S    
C91   C179  1.395122 A    
C119  H23   1.083328 S    
C53   C61   1.393578 A    
O6    Cu6   1.958852 S    
C95   C164  1.412974 A    
C117  H21   1.083350 S    
C152  C160  1.396580 A    
C171  C179  1.386011 A    
C1    C130  1.482918 S    
C120  H24   1.083467 S    
C121  H25   1.083536 S    
C12   C59   1.488355 S    
Cu3   O27   1.960307 S    
C124  H28   1.083733 S    
C103  C111  1.425831 A    
C21   C39   1.405422 A    
C139  C171  1.417407 A    
C112  C120  1.398153 A    
C154  H34   1.077611 S    
N8    O63   1.301691 A    
C57   C63   1.401589 A    
C137  C145  1.410201 A    
C151  H31   1.081096 S    
C140  C172  1.419005 A    
Cu1   O17   1.963749 S    
C8    C127  1.486143 S    
C161  N5    1.437921 S    
C155  C163  1.399756 A    
N1    O50   1.301418 A    
N3    O53   1.301772 A    
C115  C185  1.485002 S    
C17   C76   1.394477 A    
C82   C146  1.417749 A    
C19   C74   1.402843 A    
Cu9   O45   1.966548 S    
C37   C41   1.409367 A    
C21   C72   1.403232 A    
C101  C141  1.411211 A    
O40   C186  1.316571 A    
C77   C141  1.418915 A    
C135  C167  1.410696 A    
C179  H51   1.083054 S    
C133  C165  1.417556 A    
C180  H52   1.077935 S    
C79   C87   1.413946 A    
O30   C14   1.282961 A    
C139  C147  1.415212 A    
C137  C169  1.406693 A    
C98   C157  1.413571 A    
C107  C155  1.411733 A    
Cu6   O30   1.961418 S    
C79   C100  1.415873 A    
O4    C15   1.305554 A    
O5    C10   1.308764 A    
C54   C62   1.400825 A    
C80   C144  1.417356 A    
O37   Cu9   1.960108 S    
N4    O55   1.301627 A    
C89   C177  1.407236 A    
C90   C98   1.420205 A    
C71   H15   1.077573 S    
C109  C183  1.483927 S    
C110  C184  1.496145 S    
C69   H13   1.073997 S    
C111  C181  1.485907 S    
C24   C38   1.396433 A    
C51   C59   1.430311 A    
Cu1   Cu6   2.672270 S    
C48   C70   1.422782 A    
C111  C119  1.397591 A    
Cu3   Cu8   2.672293 S    
O10   C5    1.311052 A    
O14   Cu6   1.960277 S    
N5    O57   1.301637 A    
C7    C128  1.484040 S    
C121  C129  1.395426 A    
O14   C1    1.309540 A    
C92   C180  1.399459 A    
N7    O61   1.300300 A    
Cu4   O20   1.965230 S    
Cu5   O21   1.963749 S    
C4    O20   1.282978 A    
C167  H39   1.076921 S    
C39   C42   1.399874 A    
C5    O21   1.285920 A    
C172  C180  1.388870 A    
C88   C96   1.419714 A    
C151  C159  1.404820 A    
C89   C97   1.430098 A    
C84   C92   1.418315 A    
C92   C100  1.433736 A    
C22   C30   1.402628 A    
C122  C130  1.396166 A    
C49   C75   1.422393 A    
C22   C40   1.403725 A    
C80   C88   1.411887 A    
C81   C89   1.419538 A    
C51   C73   1.415007 A    
C58   C64   1.396500 A    
C35   C44   1.409858 A    
C72   H16   1.078415 S    
C188  O48   1.290030 A    
C78   C86   1.413394 A    
C156  C164  1.397230 A    
C56   C61   1.396443 A    
C17   C35   1.398215 A    
C105  C113  1.428412 A    
C5    C126  1.494157 S    
C17   C25   1.404149 A    
C18   C75   1.387257 A    
O39   Cu10  1.961834 S    
C51   C68   1.419714 A    
C23   C37   1.398115 A    
C22   C71   1.394534 A    
C2    O18   1.287600 A    
C11   C60   1.494290 S    
C102  C110  1.434218 A    
C160  N4    1.439664 S    
C61   H9    1.083568 S    
C85   C93   1.411292 A    
C104  C152  1.412467 A    
O15   Cu7   1.961037 S    
C113  C187  1.485910 S    
C140  C148  1.412876 A    
C114  C188  1.480854 S    
C170  C178  1.392371 A    
C108  C156  1.413999 A    
C37   C39   1.412627 A    
C47   C66   1.413417 A    
H4    C29   1.083561 S    
C169  C177  1.389811 A    
O33   Cu11  1.960108 S    
O34   Cu12  1.960105 S    
C81   C145  1.423642 A    
C103  C143  1.411939 A    
C165  H37   1.074418 S    
C79   C143  1.424082 A    
Cu9   Cu10  2.685582 S    
C123  C131  1.398107 A    
C176  H48   1.082424 S    
C177  H49   1.078977 S    
O1    C14   1.312288 A    
O3    C16   1.308443 A    
Cu11  O44   1.963949 S    
C131  C139  1.431001 A    
C168  H40   1.078599 S    
C85   C173  1.395179 A    
C33   C43   1.399597 A    
O35   Cu12  1.961834 S    
Cu2   O18   1.963751 S    
O8    C11   1.311126 A    
C106  C146  1.411426 A    
C97   C158  1.422514 A    
O9    Cu1   1.960277 S    
N2    O51   1.301559 A    
O35   C181  1.307556 A    
C93   C162  1.412886 A    
C116  C186  1.491805 S    
C25   C27   1.398168 A    
C181  O41   1.294556 A    
C94   C161  1.422659 A    
C187  O47   1.289842 A    
Cu10  O46   1.966548 S    
O31   C15   1.281389 A    
C73   H17   1.078080 S    
O32   C16   1.284187 A    
Cu9   O48   1.963949 S    
C3    C132  1.486170 S    
O2    Cu2   1.958852 S    
C123  H27   1.083301 S    
O4    Cu4   1.957886 S    
C168  C176  1.392114 A    
C84   C95   1.405722 A    
C48   C56   1.428819 A    
C96   C163  1.413360 A    
C83   C96   1.409156 A    
C78   C97   1.417856 A    
C90   C178  1.401029 A    
Cu7   O23   1.965232 S    
Cu8   O24   1.965230 S    
C7    O23   1.284184 A    
C8    O24   1.284906 A    
O6    C9    1.304367 A    
Cu1   O25   1.961418 S    
C170  H42   1.078621 S    
C18   C36   1.395492 A    
C155  H35   1.078937 S    
C126  C134  1.433041 A    
O16   Cu8   1.961037 S    
O38   Cu10  1.960105 S    
C1    O17   1.283009 A    
C63   H11   1.083236 S    
C70   H14   1.076544 S    
C46   C72   1.419032 A    
