data_mof_unit_25486.cif
_audit_creation_date              2012-12-10T17:48:18-0500
_audit_creation_method            fapswitch 2.2
_symmetry_space_group_name_H-M    P1
_symmetry_Int_Tables_number       1
_space_group_crystal_system       triclinic
_cell_length_a                    13.858396
_cell_length_b                    14.680339
_cell_length_c                    14.787399
_cell_angle_alpha                 115.660444
_cell_angle_beta                  107.06699
_cell_angle_gamma                 73.212007
_cell_volume                      2546.2387004

loop_
_atom_site_label
_atom_site_type_symbol
_atom_type_description
_atom_site_fract_x
_atom_site_fract_y
_atom_site_fract_z
_atom_type_partial_charge
C1    C     C_R   0.516544 0.118887 0.688733 0.822537
C2    C     C_R   0.489254 0.881336 0.311773 0.793821
C3    C     C_R   0.561129 0.357811 0.923818 0.096976
C4    C     C_R   0.540197 0.639693 0.079601 0.094801
C5    C     C_R   0.591530 0.318858 0.002357 0.136551
C6    C     C_R   0.514303 0.678937 0.001776 0.128904
C7    C     C_R   0.554996 0.464376 0.949313 0.067925
C8    C     C_R   0.567945 0.531651 0.054003 0.075333
C9    C     C_R   0.606938 0.488612 0.129429 -0.211224
C10   C     C_R   0.535061 0.506412 0.874246 -0.186454
C11   C     C_R   0.618151 0.384015 0.103792 -0.202845
C12   C     C_R   0.516458 0.611966 0.900604 -0.159093
C13   C     C_R   0.284193 0.340730 0.433913 -0.110201
C14   C     C_R   0.688621 0.708877 0.671307 -0.116596
C15   C     C_R   0.330961 0.238058 0.411905 0.031344
C16   C     C_R   0.651417 0.790003 0.636304 0.033864
C17   C     C_R   0.497497 0.277153 0.463444 0.224615
C18   C     C_R   0.506912 0.715580 0.526312 0.240193
C19   C     C_R   0.455652 0.386262 0.495762 -0.026602
C20   C     C_R   0.536465 0.637094 0.568373 -0.034501
C21   C     C_R   0.346019 0.417165 0.473925 -0.021097
C22   C     C_R   0.636636 0.624286 0.626960 -0.015629
C23   C     C_R   0.686734 0.987196 0.503910 0.819860
C24   C     C_R   0.313227 0.012695 0.495856 0.823985
C25   C     C_R   0.517306 0.465458 0.544628 0.042859
C26   C     C_R   0.473116 0.565839 0.547209 0.054389
C27   C     C_R   0.366763 0.595216 0.535871 -0.267041
C28   C     C_R   0.619265 0.450801 0.597257 -0.291271
C29   C     C_R   0.302910 0.523094 0.492772 0.006118
C30   C     C_R   0.679321 0.527739 0.638139 0.015157
C31   C     C_1   0.207999 0.019770 0.493485 -0.144475
C32   C     C_1   0.791772 0.979716 0.505293 -0.145404
C33   C     C_2   0.013332 0.033934 0.489128 -0.155383
C34   C     C_2   0.986093 0.964944 0.507937 -0.133086
C35   C     C_1   0.880496 0.972593 0.506566 0.039562
C36   C     C_1   0.119084 0.026620 0.491300 0.036662
C37   C     C_R   0.534911 0.186009 0.798685 -0.132781
C38   C     C_R   0.498399 0.815202 0.203897 -0.134756
C39   C     C_R   0.592761 0.215554 0.979401 -0.218285
C40   C     C_R   0.485710 0.784920 0.025531 -0.207490
C41   C     C_R   0.561806 0.149084 0.878907 -0.009206
C42   C     C_R   0.479067 0.853820 0.125725 -0.001190
C43   C     C_R   0.532926 0.289919 0.822933 -0.242711
C44   C     C_R   0.530844 0.709266 0.179520 -0.262927
Cu1   Cu    Cu3+1 0.526370 0.916390 0.524860 0.969509
Cu2   Cu    Cu3+1 0.473630 0.083610 0.475140 0.963771
H1    H     H_    0.042845 0.902699 0.524696 0.184141
H2    H     H_    0.956597 0.096216 0.472409 0.160854
H3    H     H_    0.332388 0.676072 0.560454 0.168089
H4    H     H_    0.652308 0.380595 0.610425 0.168492
H5    H     H_    0.644950 0.354582 0.164276 0.144079
H6    H     H_    0.500078 0.641308 0.840740 0.162073
H7    H     H_    0.545174 0.681944 0.239610 0.170097
H8    H     H_    0.506811 0.317076 0.761404 0.165417
H9    H     H_    0.613918 0.187630 0.040917 0.167882
H10   H     H_    0.468892 0.814333 0.965584 0.162981
H11   H     H_    0.631095 0.533915 0.209074 0.144169
H12   H     H_    0.534730 0.459832 0.794383 0.151044
H13   H     H_    0.690145 0.854918 0.670250 0.171137
H14   H     H_    0.282600 0.181530 0.382000 0.170440
N1    N     N_R   0.433980 0.209250 0.437830 -0.201500
N2    N     N_R   0.566020 0.790750 0.562170 -0.198377
O1    O     O_R   0.534760 0.019630 0.662610 -0.558230
O2    O     O_R   0.465240 0.980370 0.337390 -0.552319
O3    O     O_R   0.490220 0.160840 0.620610 -0.580050
O4    O     O_R   0.509780 0.839160 0.379390 -0.602001
O5    O     O_R   0.663260 0.919400 0.523940 -0.572235
O6    O     O_R   0.336740 0.080600 0.476060 -0.591315
O7    O     O_R   0.618720 0.060610 0.481950 -0.596919
O8    O     O_R   0.381280 0.939390 0.518050 -0.580605
C45   C     C_2   0.172087 0.362852 0.430121 0.868503
O9    O     O_2   0.136817 0.423241 0.506082 -0.563023
O10   O     O_R   0.107737 0.309613 0.341428 -0.738042
H15   H     H_    0.033144 0.329794 0.348612 0.342691
C46   C     C_2   0.771382 0.723779 0.763860 0.883885
O11   O     O_2   0.841209 0.765315 0.774934 -0.546562
O12   O     O_R   0.766994 0.694551 0.840683 -0.759039
H16   H     H_    0.826993 0.709770 0.900473 0.350880
C47   C     C_2   0.453946 0.964407 0.143689 0.872529
O13   O     O_2   0.516000 0.019886 0.200140 -0.604481
O14   O     O_R   0.361694 0.003760 0.091068 -0.739281
H17   H     H_    0.353774 0.080002 0.108304 0.341837
C48   C     C_2   0.554252 0.044441 0.863376 0.856927
O15   O     O_2   0.476939 0.009382 0.811447 -0.571082
O16   O     O_R   0.633540 0.988108 0.912908 -0.752532
H18   H     H_    0.619112 0.918447 0.897629 0.337915
C49   C     C_2   0.194298 0.562015 0.454570 0.871614
O17   O     O_2   0.145084 0.637080 0.512019 -0.559702
O18   O     O_R   0.150116 0.516235 0.351406 -0.753771
H19   H     H_    0.076167 0.550433 0.334130 0.344347
C50   C     C_2   0.790265 0.496516 0.676226 0.876468
O19   O     O_2   0.817492 0.447213 0.731116 -0.571761
O20   O     O_R   0.863760 0.519318 0.645521 -0.739763
H20   H     H_    0.936690 0.492973 0.675558 0.358710
C51   C     C_3   0.420863 0.705777 0.431607 -0.361430
C52   C     C_3   0.444583 0.604839 0.340508 -0.403484
C53   C     C_3   0.364976 0.601786 0.243170 -0.789138
H21   H     H_    0.288037 0.603689 0.253379 0.272350
H22   H     H_    0.360976 0.668285 0.224166 0.251368
H23   H     H_    0.386511 0.529728 0.178405 0.255941
H24   H     H_    0.522032 0.596711 0.327804 0.215083
H25   H     H_    0.445054 0.537269 0.355944 0.234777
H26   H     H_    0.344589 0.714615 0.445986 0.170597
H27   H     H_    0.407108 0.768577 0.406829 0.253632
C54   C     C_3   0.599501 0.231226 0.427164 -0.356157
C55   C     C_3   0.614123 0.275547 0.355868 -0.404810
C56   C     C_3   0.711077 0.216198 0.311847 -0.784068
H28   H     H_    0.779597 0.219823 0.374583 0.253593
H29   H     H_    0.704697 0.134443 0.264821 0.278228
H30   H     H_    0.721769 0.250469 0.262599 0.235595
H31   H     H_    0.546633 0.270141 0.291770 0.238139
H32   H     H_    0.621450 0.357391 0.396841 0.232161
H33   H     H_    0.665998 0.233838 0.491174 0.181131
H34   H     H_    0.599774 0.148766 0.379030 0.273389

loop_
_geom_bond_atom_site_label_1
_geom_bond_atom_site_label_2
_ccdc_geom_bond_type
C7    C10   A    
C49   O17   D    
O20   H20   S    
C52   H25   S    
C27   C29   A    
O10   H15   S    
C23   O7    A    
C51   C52   S    
C4    C8    A    
C53   H21   S    
C24   O8    A    
C7    C8    A    
C39   C41   A    
C55   H32   S    
O12   H16   S    
C25   C28   A    
C38   C44   A    
C3    C43   A    
C26   C27   A    
C54   H33   S    
C10   H12   S    
C5    C11   A    
C3    C7    A    
C6    C12   A    
C55   C56   S    
C41   C48   S    
Cu1   N2    S    
C33   C36   S    
C34   C35   S    
C15   H14   S    
C23   O5    A    
Cu2   O7    S    
C17   N1    A    
C28   H4    S    
C44   H7    S    
C39   H9    S    
C51   H26   S    
C8    C9    A    
C40   H10   S    
C49   O18   S    
Cu1   O5    S    
C1    O3    A    
C56   H28   S    
C18   C20   A    
C1    C37   S    
C40   C42   A    
C42   C47   S    
C52   H24   S    
C18   C51   S    
C56   H29   S    
C16   N2    A    
C1    O1    A    
C53   H22   S    
C2    O2    A    
O14   H17   S    
C55   H31   S    
Cu2   N1    S    
C32   C35   T    
C54   H34   S    
C6    C40   A    
Cu2   O3    S    
C4    C6    A    
C50   O19   D    
C45   O10   S    
C18   N2    A    
C4    C44   A    
C3    C5    A    
C25   C26   A    
O16   H18   S    
C21   C29   A    
Cu1   O1    S    
Cu2   O2    S    
C16   H13   S    
C37   C43   A    
C46   O11   D    
Cu2   O6    S    
C17   C54   S    
C50   O20   S    
C46   O12   S    
C2    C38   S    
C43   H8    S    
C48   O15   D    
C52   C53   S    
C33   C34   D    
C15   N1    A    
C13   C21   A    
C9    C11   A    
C10   C12   A    
C48   O16   S    
C20   C22   A    
C13   C15   A    
C56   H30   S    
C14   C16   A    
C53   H23   S    
C51   H27   S    
C47   O14   S    
C22   C30   A    
C19   C21   A    
Cu1   O8    S    
C30   C50   S    
C2    O4    A    
C38   C42   A    
C13   C45   S    
C54   C55   S    
C12   H6    S    
C14   C46   S    
C14   C22   A    
C5    C39   A    
C24   C31   S    
C45   O9    D    
C23   C32   S    
C20   C26   A    
C28   C30   A    
C17   C19   A    
C9    H11   S    
C37   C41   A    
C19   C25   A    
C29   C49   S    
C11   H5    S    
C24   O6    A    
C47   O13   D    
Cu1   Cu2   S    
Cu1   O4    S    
C33   H2    S    
C31   C36   T    
C34   H1    S    
O18   H19   S    
C27   H3    S    
