data_mof_unit_10221.cif
_audit_creation_date              2012-12-10T17:35:39-0500
_audit_creation_method            fapswitch 2.2
_symmetry_space_group_name_H-M    P1
_symmetry_Int_Tables_number       1
_space_group_crystal_system       triclinic
_cell_length_a                    10.746114
_cell_length_b                    12.316645
_cell_length_c                    13.225486
_cell_angle_alpha                 116.583626
_cell_angle_beta                  77.707996
_cell_angle_gamma                 101.45111
_cell_volume                      1518.81225602

loop_
_atom_site_label
_atom_site_type_symbol
_atom_type_description
_atom_site_fract_x
_atom_site_fract_y
_atom_site_fract_z
_atom_type_partial_charge
Br1   Br    Br    0.158234 0.271768 0.609541 -0.600908
C1    C     C_R   0.512537 0.854691 0.286584 0.769722
C2    C     C_R   0.505506 0.565680 0.009564 0.085494
C3    C     C_R   0.466428 0.648884 0.123261 0.069525
C4    C     C_R   0.739578 0.000584 0.500918 0.774239
C5    C     C_R   0.462486 0.438933 0.975480 0.079876
C6    C     C_R   0.373388 0.398996 0.051646 0.152537
C7    C     C_R   0.325994 0.483913 0.158313 -0.193586
C8    C     C_R   0.370319 0.606802 0.192745 -0.181568
C9    C     C_R   0.505436 0.350235 0.867943 -0.227975
C10   C     C_R   0.370355 0.188951 0.910116 -0.186234
C11   C     C_R   0.523147 0.772477 0.163825 -0.102066
C12   C     C_3   0.120506 0.001456 0.503344 0.033150
C13   C     C_R   0.705645 0.345985 0.327715 0.065177
C14   C     C_R   0.328047 0.759648 0.646513 0.095966
C15   C     C_R   0.295528 0.665286 0.681450 -0.225869
C16   C     C_R   0.481416 0.144993 0.713079 0.808060
C17   C     C_R   0.362913 0.563518 0.628040 -0.153162
C18   C     C_R   0.463025 0.553539 0.537097 0.001092
C19   C     C_R   0.494496 0.653871 0.505950 0.292171
C20   C     C_R   0.533513 0.448830 0.476712 -0.064255
C21   C     C_R   0.635627 0.447791 0.388136 0.123611
C22   C     C_R   0.666140 0.548329 0.361649 -0.224934
C23   C     C_3   0.041192 0.007007 0.618033 -0.343392
C24   C     C_R   0.597534 0.648143 0.418845 -0.196183
C25   C     C_R   0.506623 0.343947 0.499704 0.027125
C26   C     C_R   0.672325 0.245941 0.354512 0.037743
C27   C     C_R   0.259576 0.001047 0.501574 0.799046
C28   C     C_3   0.956601 0.114736 0.487403 -0.369712
C29   C     C_3   0.099098 0.115807 0.488845 0.088289
C30   C     C_3   0.897523 0.004373 0.615588 -0.353482
C31   C     C_3   0.926433 0.886606 0.399927 -0.406205
C32   C     C_3   0.877191 0.001473 0.501388 0.062072
C33   C     C_3   0.067818 0.881921 0.403827 -0.012624
C34   C     C_R   0.329895 0.274456 0.019150 -0.161063
C35   C     C_R   0.455854 0.227472 0.833562 -0.042301
C36   C     C_R   0.602103 0.815267 0.086907 -0.185283
C37   C     C_R   0.629993 0.736476 0.972778 -0.138875
C38   C     C_R   0.584593 0.612875 0.934366 -0.169768
Cu1   Cu    Cu3+1 0.529690 0.098270 0.475420 0.954246
Cu2   Cu    Cu3+1 0.470310 0.901730 0.524580 0.938646
H1    H     H_    0.919413 0.199205 0.556775 0.222288
H2    H     H_    0.690402 0.770796 0.914106 0.147697
H3    H     H_    0.945244 0.113713 0.405170 0.159313
H4    H     H_    0.325277 0.668377 0.273589 0.207618
H5    H     H_    0.724701 0.167181 0.308653 0.142296
H6    H     H_    0.743813 0.551395 0.295561 0.197022
H7    H     H_    0.432176 0.337693 0.566055 0.174043
H8    H     H_    0.276044 0.838768 0.689058 0.124888
H9    H     H_    0.335779 0.495062 0.660674 0.183792
H10   H     H_    0.218534 0.671485 0.750855 0.159782
H11   H     H_    0.629958 0.719350 0.391608 0.204066
H12   H     H_    0.843139 0.922319 0.626100 0.193963
H13   H     H_    0.153805 0.113128 0.406330 0.136670
H14   H     H_    0.860288 0.086378 0.688868 0.171527
H15   H     H_    0.074010 0.090910 0.691203 0.200898
H16   H     H_    0.864772 0.803569 0.402006 0.202457
H17   H     H_    0.918418 0.887923 0.317923 0.142193
H18   H     H_    0.125915 0.875019 0.321193 0.112479
H19   H     H_    0.054607 0.929199 0.634074 0.193367
H20   H     H_    0.330776 0.093935 0.884201 0.146560
H21   H     H_    0.253883 0.455365 0.215479 0.183838
H22   H     H_    0.261664 0.243733 0.076935 0.148503
H23   H     H_    0.576416 0.373956 0.807921 0.145864
H24   H     H_    0.645208 0.909535 0.115510 0.158780
H25   H     H_    0.611101 0.557633 0.844800 0.132036
I1    I     I_    0.076106 0.712134 0.414050 -0.416751
I2    I     I_    0.862513 0.333982 0.195520 -0.414690
N1    N     N_R   0.574690 0.246280 0.438200 -0.200335
N2    N     N_R   0.426100 0.754320 0.561190 -0.204150
O1    O     O_R   0.537340 0.972510 0.318130 -0.581292
O2    O     O_R   0.487200 0.806530 0.359650 -0.601217
O3    O     O_R   0.707380 0.082980 0.479220 -0.588583
O4    O     O_R   0.657240 0.917000 0.520740 -0.604069
O5    O     O_R   0.512800 0.193470 0.640350 -0.577774
O6    O     O_R   0.462660 0.027490 0.681870 -0.594701
O7    O     O_R   0.342760 0.083000 0.479260 -0.557905
O8    O     O_R   0.292620 0.917020 0.520780 -0.568813

loop_
_geom_bond_atom_site_label_1
_geom_bond_atom_site_label_2
_ccdc_geom_bond_type
C20   C25   A    
C8    H4    S    
Cu1   O1    S    
C28   H1    S    
C18   C19   A    
C15   H10   S    
C31   H17   S    
C2    C5    A    
C1    C11   S    
C6    C7    A    
C29   H13   S    
C36   C37   A    
C10   C35   A    
C18   C20   A    
C37   C38   A    
C19   C24   A    
C14   C15   A    
C28   C32   S    
C4    O4    A    
Cu1   O3    S    
C17   C18   A    
C11   C36   A    
Cu2   O4    S    
C7    C8    A    
C4    C32   S    
C16   O6    A    
C30   C32   S    
C12   C27   S    
C16   C35   S    
C13   C26   A    
C3    C11   A    
C27   O8    A    
C26   N1    A    
C25   H7    S    
C22   C24   A    
C2    C38   A    
C20   C21   A    
C19   N2    A    
C31   H16   S    
C1    O2    A    
C22   H6    S    
Cu1   N1    S    
C12   C29   S    
Cu2   O8    S    
C12   C23   S    
C36   H24   S    
C31   C33   S    
C28   C29   S    
C23   H19   S    
C30   H12   S    
C27   O7    A    
Cu2   O2    S    
C26   H5    S    
Cu1   Cu2   S    
C28   H3    S    
C33   H18   S    
C38   H25   S    
C2    C3    A    
C17   H9    S    
C14   N2    A    
Cu1   O7    S    
C6    C34   A    
C9    H23   S    
C10   H20   S    
C33   I1    S    
C5    C9    A    
C9    C35   A    
C5    C6    A    
C23   H15   S    
Cu1   O5    S    
C31   C32   S    
C13   C21   A    
C10   C34   A    
C23   C30   S    
C12   C33   S    
Cu2   O6    S    
Br1   C29   S    
C14   H8    S    
C4    O3    A    
C24   H11   S    
C37   H2    S    
C15   C17   A    
C16   O5    A    
C25   N1    A    
C13   I2    S    
C21   C22   A    
C34   H22   S    
C30   H14   S    
C3    C8    A    
C1    O1    A    
C7    H21   S    
Cu2   N2    S    
