data_mof_unit_57145.cif
_audit_creation_date              2012-10-26T20:03:44-0400
_audit_creation_method            fapswitch 2.2
_symmetry_space_group_name_H-M    P1
_symmetry_Int_Tables_number       1
_space_group_crystal_system       triclinic
_cell_length_a                    12.336202
_cell_length_b                    13.163649
_cell_length_c                    15.830264
_cell_angle_alpha                 78.390189
_cell_angle_beta                  100.172901
_cell_angle_gamma                 116.564563
_cell_volume                      2241.20864306

loop_
_atom_site_label
_atom_site_type_symbol
_atom_type_description
_atom_site_fract_x
_atom_site_fract_y
_atom_site_fract_z
_atom_type_partial_charge
C1    C     C_R   0.854520 0.286435 0.508267 0.538329
C2    C     C_R   0.226976 0.836183 0.480958 -0.026012
C3    C     C_R   0.810015 0.085373 0.570707 -0.177770
C4    C     C_R   0.998748 0.499804 0.659647 0.545987
C5    C     C_R   0.727124 0.978736 0.607196 0.033238
C6    C     C_R   0.601629 0.954128 0.597005 0.041471
C7    C     C_R   0.558758 0.020056 0.528126 -0.007061
C8    C     C_R   0.644301 0.126489 0.489865 0.022119
C9    C     C_R   0.433500 0.985282 0.496920 0.011420
C10   C     C_R   0.392807 0.065265 0.444644 0.022828
C11   C     C_R   0.479616 0.169011 0.407215 -0.129389
C12   C     C_3   0.996842 0.500000 0.916127 -0.004159
C13   C     C_R   0.602335 0.194338 0.424308 -0.085223
C14   C     C_R   0.350338 0.870001 0.508214 -0.129602
C15   C     C_R   0.184394 0.919195 0.444119 -0.091781
C16   C     C_R   0.144995 0.713524 0.489256 0.547490
C17   C     C_R   0.769608 0.163631 0.519112 -0.011680
C18   C     C_R   0.352773 0.343052 0.649438 -0.112291
C19   C     C_R   0.740356 0.614694 0.368212 0.129421
C20   C     C_R   0.622692 0.598012 0.327829 0.006305
C21   C     C_R   0.523459 0.535562 0.376391 -0.083959
C22   C     C_R   0.540941 0.504788 0.465803 -0.025156
C23   C     C_3   0.105751 0.577052 0.028278 0.015471
C24   C     C_R   0.658206 0.514899 0.502203 0.109034
C25   C     C_R   0.444710 0.463873 0.520431 -0.014097
C26   C     C_R   0.454914 0.398338 0.601413 0.025301
C27   C     C_R   0.571549 0.402392 0.634610 0.022142
C28   C     C_R   0.000946 0.499759 0.340370 0.557224
C29   C     C_R   0.673267 0.486839 0.592755 0.006942
C30   C     C_R   0.343836 0.492981 0.500575 0.147849
C31   C     C_R   0.248044 0.360938 0.620390 0.029769
C32   C     C_3   0.979476 0.394973 0.042545 -0.147845
C33   C     C_3   0.890475 0.422909 0.970431 0.015510
C34   C     C_3   0.999708 0.500111 0.083226 0.059507
C35   C     C_1   0.996663 0.500037 0.748929 -0.002379
C36   C     C_1   0.002346 0.499010 0.251063 0.064048
C37   C     C_3   0.087012 0.472953 0.986908 -0.135613
C38   C     C_2   0.771940 0.333931 0.936397 0.245231
C39   C     C_2   0.523295 0.882715 0.668622 0.262623
C40   C     C_2   0.776438 0.897997 0.657117 0.297358
C41   C     C_2   0.594670 0.329550 0.713961 0.283351
C42   C     C_2   0.356303 0.598431 0.440062 0.276085
C43   C     C_2   0.849179 0.694313 0.323388 0.273588
C44   C     C_2   0.601198 0.648856 0.237029 0.286564
C45   C     C_3   0.017119 0.605431 0.956134 -0.142760
C46   C     C_2   0.760657 0.582065 0.641539 0.302736
C47   C     C_2   0.811786 0.558699 0.022726 0.307512
C48   C     C_2   0.228307 0.664355 0.058166 0.275985
C49   C     C_2   0.217930 0.120056 0.384196 0.230563
C50   C     C_3   0.910488 0.527017 0.011744 0.041900
C51   C     C_1   0.996175 0.500074 0.824403 -0.024012
C52   C     C_1   0.001657 0.499070 0.175393 0.073890
C53   C     C_R   0.266294 0.034312 0.424484 0.019346
Cu1   Cu    Cu3+1 0.098270 0.475420 0.519690 0.963892
Cu2   Cu    Cu3+1 0.901730 0.524580 0.480310 0.951136
H1    H     H_    0.771456 0.265520 0.907707 0.113886
H2    H     H_    0.286690 0.599217 0.388620 0.157712
H3    H     H_    0.922256 0.761151 0.356050 0.121173
H4    H     H_    0.963489 0.308706 0.078584 0.138576
H5    H     H_    0.432493 0.516264 0.344915 0.152391
H6    H     H_    0.675749 0.713253 0.201712 0.171375
H7    H     H_    0.823258 0.661179 0.606993 0.142318
H8    H     H_    0.758120 0.579806 0.965990 0.157479
H9    H     H_    0.032863 0.691623 0.920011 0.132406
H10   H     H_    0.295402 0.712914 0.012177 0.129183
H11   H     H_    0.160178 0.451428 0.975649 0.144846
H12   H     H_    0.382469 0.805036 0.535360 0.178823
H13   H     H_    0.087797 0.893826 0.427859 0.159833
H14   H     H_    0.453853 0.227349 0.359058 0.113287
H15   H     H_    0.275307 0.211171 0.382637 0.102972
H16   H     H_    0.906784 0.109918 0.587026 0.121883
H17   H     H_    0.434391 0.880608 0.668265 0.101072
H18   H     H_    0.870625 0.930275 0.685053 0.086053
H19   H     H_    0.663695 0.268173 0.385079 0.158508
H20   H     H_    0.170807 0.318951 0.658268 0.131791
H21   H     H_    0.686195 0.354755 0.746393 0.147591
H22   H     H_    0.353777 0.291325 0.711468 0.181433
N1    N     N_R   0.246280 0.438200 0.549540 -0.252539
N2    N     N_R   0.754330 0.561180 0.450980 -0.287839
O1    O     O_R   0.972510 0.318130 0.524770 -0.499802
O2    O     O_2   0.558934 0.831594 0.731942 -0.431320
O3    O     O_2   0.714918 0.794501 0.663153 -0.418735
O4    O     O_2   0.515356 0.237119 0.740409 -0.507467
O5    O     O_2   0.448274 0.687501 0.447007 -0.502269
O6    O     O_2   0.858653 0.685675 0.249969 -0.472422
O7    O     O_2   0.498231 0.620198 0.200322 -0.467837
O8    O     O_2   0.762745 0.574712 0.719929 -0.496503
O9    O     O_2   0.791019 0.560723 0.094739 -0.442939
O10   O     O_2   0.253439 0.681322 0.133648 -0.455106
O11   O     O_2   0.111928 0.089744 0.353531 -0.498056
O12   O     O_R   0.806530 0.359650 0.491510 -0.508652
O13   O     O_R   0.082970 0.479240 0.637550 -0.493752
O14   O     O_R   0.916990 0.520750 0.604290 -0.518633
O15   O     O_R   0.193470 0.640350 0.508490 -0.496529
O16   O     O_R   0.027490 0.681870 0.475230 -0.533145
O17   O     O_R   0.083010 0.479250 0.395710 -0.534674
O18   O     O_R   0.917030 0.520760 0.362450 -0.460453
O19   O     O_2   0.676056 0.337754 0.940545 -0.458299

loop_
_geom_bond_atom_site_label_1
_geom_bond_atom_site_label_2
_ccdc_geom_bond_type
C28   O18   A    
C8    C13   A    
C23   C45   S    
C27   C29   A    
C19   C20   A    
C18   C26   A    
C49   O11   D    
Cu2   O14   S    
C7    C8    A    
C26   C27   A    
C46   H7    S    
C15   C53   A    
C47   H8    S    
C5    C6    A    
C41   O4    D    
C40   H18   S    
C12   C37   S    
C10   C53   A    
C24   C29   A    
Cu2   O12   S    
C43   H3    S    
C22   C25   A    
C39   H17   S    
C48   H10   S    
C2    C16   S    
C9    C10   A    
Cu1   O17   S    
C36   C52   T    
C38   O19   D    
C4    C35   S    
C1    O12   A    
C21   C22   A    
C1    C17   S    
C44   O7    D    
C42   H2    S    
C20   C44   S    
C19   C43   S    
C47   C50   S    
Cu1   O1    S    
C34   C50   S    
C43   O6    D    
C40   O3    D    
C42   O5    D    
C39   O2    D    
C21   H5    S    
Cu2   O16   S    
C33   C50   S    
C23   C37   S    
C32   C34   S    
C3    H16   S    
C9    C14   A    
Cu1   O13   S    
Cu2   N2    S    
C27   C41   S    
C24   N2    A    
C31   H20   S    
C14   H12   S    
C23   C34   S    
C37   H11   S    
Cu2   O18   S    
C32   C37   S    
C13   H19   S    
C19   N2    A    
C2    C15   A    
C49   H15   S    
C35   C51   T    
C22   C24   A    
C12   C51   S    
C31   N1    A    
C46   O8    D    
C25   C30   A    
C7    C9    A    
Cu1   Cu2   S    
C16   O16   A    
C23   C48   S    
C16   O15   A    
C33   C38   S    
C12   C45   S    
C3    C5    A    
C11   H14   S    
C6    C7    A    
C44   H6    S    
C45   H9    S    
C34   C52   S    
C8    C17   A    
C29   C46   S    
C28   O17   A    
C32   C33   S    
C25   C26   A    
C47   O9    D    
C41   H21   S    
C11   C13   A    
C45   C50   S    
C18   H22   S    
C49   C53   S    
C15   H13   S    
C3    C17   A    
C2    C14   A    
Cu1   O15   S    
C10   C11   A    
C4    O14   A    
C30   N1    A    
C38   H1    S    
C20   C21   A    
C28   C36   S    
C5    C40   S    
C1    O1    A    
C6    C39   S    
C30   C42   S    
C18   C31   A    
C32   H4    S    
C4    O13   A    
C12   C33   S    
C48   O10   D    
Cu1   N1    S    
