data_mof_unit_55592.cif
_audit_creation_date              2012-12-10T19:04:13-0500
_audit_creation_method            fapswitch 2.2
_symmetry_space_group_name_H-M    P1
_symmetry_Int_Tables_number       1
_space_group_crystal_system       triclinic
_cell_length_a                    10.629442
_cell_length_b                    10.89573
_cell_length_c                    9.606725
_cell_angle_alpha                 90.10824
_cell_angle_beta                  88.65731
_cell_angle_gamma                 93.322119
_cell_volume                      1110.43309743

loop_
_atom_site_label
_atom_site_type_symbol
_atom_type_description
_atom_site_fract_x
_atom_site_fract_y
_atom_site_fract_z
_atom_type_partial_charge
C1    C     C_R   0.498944 0.262881 0.499769 0.816330
C2    C     C_3   0.962121 0.484839 0.364965 -0.124666
C3    C     C_3   0.039345 0.400353 0.455393 -0.219118
C4    C     C_3   0.122683 0.513115 0.499651 -0.031180
C5    C     C_R   0.544481 0.067038 0.610850 0.040726
C6    C     C_R   0.502290 0.130535 0.497971 -0.108188
C7    C     C_R   0.469443 0.061682 0.378620 -0.211085
C8    C     C_R   0.475257 0.933246 0.378867 -0.195562
C9    C     C_R   0.516717 0.871355 0.497179 -0.085034
C10   C     C_R   0.561107 0.944468 0.607852 -0.021691
C11   C     C_3   0.606951 0.947331 0.755764 -0.310372
C12   C     C_R   0.259811 0.506371 0.500769 0.792678
C13   C     C_3   0.587191 0.085930 0.755444 0.441565
C14   C     C_R   0.607438 0.531099 0.070507 0.224628
C15   C     C_R   0.401225 0.449941 0.079189 -0.139856
C16   C     C_R   0.398619 0.450591 0.931381 0.056345
C17   C     C_R   0.607957 0.529098 0.923656 0.184514
C18   C     C_3   0.685556 0.645910 0.914111 -0.544736
C19   C     C_3   0.683544 0.649994 0.072330 0.388308
C20   C     C_R   0.507660 0.737597 0.499910 0.791643
C21   C     C_R   0.740384 0.501363 0.498165 0.815576
C22   C     C_3   0.036246 0.534806 0.626413 -0.133506
C23   C     C_3   0.951922 0.421371 0.582979 -0.118008
C24   C     C_3   0.877128 0.505360 0.493441 0.003755
C25   C     C_3   0.958650 0.618652 0.536559 -0.231791
C26   C     C_3   0.046414 0.597318 0.409861 0.048520
Cu1   Cu    Cu3+1 0.499990 0.499980 0.640670 0.966090
Cu2   Cu    Cu3+1 0.500010 0.500020 0.359330 0.957116
H1    H     H_    0.906410 0.348811 0.650948 0.179678
H2    H     H_    0.514879 0.109904 0.833449 0.034778
H3    H     H_    0.322799 0.407805 0.139049 0.153023
H4    H     H_    0.780342 0.633549 0.866408 0.231273
H5    H     H_    0.631012 0.716848 0.865989 0.168496
H6    H     H_    0.632486 0.726989 0.118591 0.079698
H7    H     H_    0.066459 0.565705 0.730490 0.157006
H8    H     H_    0.917465 0.704647 0.570901 0.136878
H9    H     H_    0.929496 0.463838 0.258145 0.186982
H10   H     H_    0.074759 0.310508 0.422965 0.137328
H11   H     H_    0.436535 0.106149 0.286645 0.158666
H12   H     H_    0.444315 0.882584 0.287687 0.170386
H13   H     H_    0.539091 0.896117 0.827481 0.095460
N1    N     N_R   0.500800 0.500930 0.147930 -0.227776
N2    N     N_R   0.500800 0.500890 0.852020 -0.201246
O1    O     O_R   0.500000 0.319640 0.618810 -0.570233
O2    O     O_R   0.500010 0.319680 0.381230 -0.583820
O3    O     O_R   0.316850 0.499950 0.618770 -0.575835
O4    O     O_R   0.316860 0.499990 0.381190 -0.604717
O5    O     O_R   0.499990 0.680320 0.618770 -0.587002
O6    O     O_R   0.500000 0.680360 0.381190 -0.588728
O7    O     O_R   0.683140 0.500010 0.618810 -0.571974
O8    O     O_R   0.683150 0.500050 0.381230 -0.551608
C27   C     C_R   0.744029 0.926194 0.782583 0.231308
C28   C     C_R   0.836870 0.924099 0.675922 -0.095644
C29   C     C_R   0.963819 0.916729 0.709589 -0.216538
C30   C     C_R   0.998550 0.908131 0.848203 -0.131793
C31   C     C_R   0.907390 0.912425 0.954470 -0.073488
C32   C     C_R   0.781449 0.924164 0.922008 -0.127475
H14   H     H_    0.812122 0.930972 0.567703 0.126443
H15   H     H_    0.036208 0.918244 0.628859 0.129638
H16   H     H_    0.096522 0.900668 0.872977 0.133399
H17   H     H_    0.934061 0.908211 0.062113 0.164804
H18   H     H_    0.712316 0.930865 0.005921 0.112013
F1    F     F_    0.696395 0.162060 0.758505 -0.668123
C33   C     C_R   0.282797 0.389175 0.874254 0.183018
C34   C     C_R   0.285685 0.270942 0.817433 -0.115050
C35   C     C_R   0.174799 0.199149 0.795444 -0.196042
C36   C     C_R   0.058904 0.242281 0.837301 -0.098808
C37   C     C_R   0.054012 0.358746 0.897142 -0.145981
C38   C     C_R   0.164970 0.432314 0.913504 -0.223851
H19   H     H_    0.373394 0.231154 0.798002 0.130420
H20   H     H_    0.179539 0.108268 0.750827 0.131140
H21   H     H_    0.973027 0.185691 0.823510 0.190053
H22   H     H_    0.964179 0.392763 0.929463 0.163412
H23   H     H_    0.159082 0.522439 0.958923 0.126767
F2    F     F_    0.801588 0.636966 0.126263 -0.672336
C39   C     C_R   0.100824 0.696781 0.312912 0.134765
C40   C     C_R   0.074916 0.820638 0.332802 -0.128634
C41   C     C_R   0.132852 0.912129 0.247219 -0.150423
C42   C     C_R   0.214249 0.880373 0.138465 -0.157387
C43   C     C_R   0.236667 0.757001 0.114479 -0.154452
C44   C     C_R   0.179500 0.665929 0.201034 -0.082852
H24   H     H_    0.009412 0.846906 0.413067 0.107538
H25   H     H_    0.113587 0.007523 0.264328 0.127859
H26   H     H_    0.258903 0.951158 0.072098 0.119273
H27   H     H_    0.298547 0.731923 0.029266 0.121273
H28   H     H_    0.196334 0.570970 0.181849 0.126037

loop_
_geom_bond_atom_site_label_1
_geom_bond_atom_site_label_2
_ccdc_geom_bond_type
Cu1   O5    S    
C30   C31   A    
Cu2   O4    S    
C3    C23   S    
C7    C8    A    
C28   C29   A    
C22   H7    S    
C43   H27   S    
C23   H1    S    
C18   C19   S    
C5    C6    A    
Cu2   O8    S    
C34   H19   S    
C31   C32   A    
C36   H21   S    
C11   C27   S    
C9    C20   S    
Cu1   O1    S    
C3    H10   S    
C37   C38   A    
C22   C25   S    
C26   C39   S    
C23   C24   S    
C4    C12   S    
C9    C10   A    
C5    C13   S    
C44   H28   S    
Cu1   O7    S    
C14   N1    A    
C35   C36   A    
C30   H16   S    
C14   C17   A    
C12   O4    A    
C41   H25   S    
C21   O7    A    
C29   H15   S    
Cu2   O2    S    
C36   C37   A    
C13   H2    S    
C32   H18   S    
C24   C25   S    
C12   O3    A    
C27   C32   A    
C41   C42   A    
C8    C9    A    
C25   C26   S    
C40   C41   A    
C1    C6    S    
C17   N2    A    
C20   O6    A    
C4    C22   S    
Cu2   O6    S    
C1    O1    A    
C35   H20   S    
C13   F1    S    
C17   C18   S    
C38   H23   S    
C2    C26   S    
C33   C38   A    
C39   C40   A    
C16   N2    A    
C20   O5    A    
Cu1   O3    S    
C2    C24   S    
C18   H4    S    
C3    C4    S    
C21   O8    A    
C27   C28   A    
C29   C30   A    
C22   C23   S    
C14   C19   S    
C15   N1    A    
C43   C44   A    
C19   H6    S    
C39   C44   A    
C4    C26   S    
C28   H14   S    
C15   H3    S    
C6    C7    A    
C8    H12   S    
C33   C34   A    
C19   F2    S    
C2    C3    S    
C37   H22   S    
C5    C10   A    
C11   C13   S    
C2    H9    S    
C1    O2    A    
C42   H26   S    
C40   H24   S    
Cu2   N1    S    
C11   H13   S    
C18   H5    S    
C10   C11   S    
C25   H8    S    
C42   C43   A    
Cu1   N2    S    
C34   C35   A    
C21   C24   S    
Cu1   Cu2   S    
C7    H11   S    
C31   H17   S    
C16   C33   S    
C15   C16   A    
