data_mof_unit_64768.cif
_audit_creation_date              2012-12-10T19:01:19-0500
_audit_creation_method            fapswitch 2.2
_symmetry_space_group_name_H-M    P1
_symmetry_Int_Tables_number       1
_space_group_crystal_system       triclinic
_cell_length_a                    15.857976
_cell_length_b                    14.259928
_cell_length_c                    13.381939
_cell_angle_alpha                 89.999943
_cell_angle_beta                  90.027097
_cell_angle_gamma                 89.999919
_cell_volume                      3026.10564891

loop_
_atom_site_label
_atom_site_type_symbol
_atom_type_description
_atom_site_fract_x
_atom_site_fract_y
_atom_site_fract_z
_atom_type_partial_charge
C1    C     C_R   0.500000 0.326571 0.500000 0.933275
C2    C     C_1   0.500000 0.499973 0.950478 -0.029159
C3    C     C_R   0.335980 0.501203 0.499971 0.930272
C4    C     C_R   0.664020 0.501202 0.500029 0.930320
C5    C     C_R   0.500000 0.673454 0.500000 0.921492
C6    C     C_3   0.050298 0.438681 0.597411 0.707410
C7    C     C_3   0.049761 0.439442 0.401125 0.573582
C8    C     C_3   0.950241 0.440426 0.599494 0.573580
C9    C     C_3   0.949702 0.437716 0.403228 0.707418
C10   C     C_1   0.752126 0.496955 0.500137 -0.180823
C11   C     C_1   0.247874 0.496955 0.499869 -0.180803
C12   C     C_1   0.499999 0.141353 0.500000 0.013425
C13   C     C_3   0.082186 0.488642 0.499418 -0.003289
C14   C     C_3   0.917814 0.488647 0.500651 -0.003287
C15   C     C_3   0.951531 0.591104 0.499001 -0.471469
C16   C     C_3   0.048468 0.591109 0.499912 -0.471465
C17   C     C_1   0.826766 0.492887 0.500367 0.145989
C18   C     C_1   0.173234 0.492884 0.499661 0.145977
C19   C     C_1   0.500000 0.225919 0.500000 -0.202638
C20   C     C_1   0.499999 0.042294 0.500000 0.027919
C21   C     C_1   0.499999 0.957733 0.500000 0.025827
C22   C     C_1   0.499999 0.858673 0.500000 0.007663
C23   C     C_1   0.500000 0.774107 0.500000 -0.208598
C24   C     C_1   0.500000 0.499975 0.169449 0.097710
C25   C     C_1   0.500000 0.499975 0.830551 0.097741
C26   C     C_1   0.500000 0.499973 0.049522 -0.029162
H1    H     H_    0.071338 0.629748 0.566922 0.244270
H2    H     H_    0.076950 0.449571 0.740040 0.369999
H3    H     H_    0.923060 0.447193 0.260482 0.369985
H4    H     H_    0.928360 0.455424 0.742958 0.362836
H5    H     H_    0.072210 0.630761 0.434033 0.245593
H6    H     H_    0.927789 0.631408 0.564429 0.245585
H7    H     H_    0.928660 0.629075 0.431559 0.244278
H8    H     H_    0.856664 0.353305 0.624813 0.362054
H9    H     H_    0.946860 0.303626 0.443291 0.376909
H10   H     H_    0.053143 0.304200 0.558861 0.376912
H11   H     H_    0.143340 0.352076 0.376795 0.362016
H12   H     H_    0.071647 0.453013 0.257500 0.362824
N1    N     N_1   0.500000 0.499980 0.261870 -0.059790
N2    N     N_1   0.500000 0.499980 0.738130 -0.059783
O1    O     O_R   0.500000 0.373720 0.576470 -0.594894
O2    O     O_3   0.916189 0.345761 0.397437 -0.736134
O3    O     O_3   0.083812 0.346789 0.604238 -0.736107
O4    O     O_3   0.082410 0.347519 0.393058 -0.811916
O5    O     O_3   0.078133 0.492415 0.318217 -0.754104
O6    O     O_3   0.081902 0.489811 0.679743 -0.729273
O7    O     O_3   0.918097 0.488025 0.320323 -0.729274
O8    O     O_3   0.921868 0.494219 0.681799 -0.754100
O9    O     O_R   0.500000 0.373720 0.423530 -0.594896
O10   O     O_R   0.377150 0.500010 0.576490 -0.596012
O11   O     O_R   0.377150 0.500010 0.423510 -0.608105
O12   O     O_R   0.622850 0.500010 0.576490 -0.608105
O13   O     O_R   0.622850 0.500010 0.423510 -0.596076
O14   O     O_R   0.500000 0.626290 0.576440 -0.597375
O15   O     O_R   0.500000 0.626290 0.423560 -0.597412
O16   O     O_3   0.917592 0.348588 0.608597 -0.811898
Zn1   Zn    Zn3+2 0.500000 0.500010 0.602090 0.996571
Zn2   Zn    Zn3+2 0.500000 0.500010 0.397910 0.996517

loop_
_geom_bond_atom_site_label_1
_geom_bond_atom_site_label_2
_ccdc_geom_bond_type
C6    C8    S    
O13   Zn2   S    
C8    O8    S    
C11   C18   T    
H8    O16   S    
C4    O13   A    
H10   O3    S    
C5    C23   S    
C9    C14   S    
C8    O16   S    
H11   O4    S    
C13   C16   S    
O1    Zn1   S    
C15   H6    S    
C2    C26   T    
O11   Zn2   S    
C21   C22   S    
C6    C13   S    
O10   Zn1   S    
C14   C17   S    
H2    O6    S    
C9    O2    S    
C12   C20   S    
H3    O7    S    
C13   C18   S    
C12   C19   T    
C1    O1    A    
C3    O10   A    
C4    O12   A    
C9    O7    S    
C2    C25   S    
C6    O3    S    
C22   C23   T    
C25   N2    T    
C1    C19   S    
C3    C11   S    
O12   Zn1   S    
C15   H7    S    
C10   C17   T    
C4    C10   S    
C15   C16   S    
C7    O5    S    
C5    O14   A    
C7    C13   S    
C24   N1    T    
C20   C21   T    
C16   H1    S    
O15   Zn2   S    
H4    O8    S    
C7    C9    S    
H9    O2    S    
C3    O11   A    
C14   C15   S    
H12   O5    S    
C8    C14   S    
N2    Zn1   S    
C6    O6    S    
C7    O4    S    
N1    Zn2   S    
C1    O9    A    
C5    O15   A    
O9    Zn2   S    
C24   C26   S    
C16   H5    S    
O14   Zn1   S    
