data_mof_unit_45553.cif
_audit_creation_date              2012-12-11T14:30:19-0500
_audit_creation_method            fapswitch 2.2
_symmetry_space_group_name_H-M    P1
_symmetry_Int_Tables_number       1
_space_group_crystal_system       triclinic
_cell_length_a                    13.275049
_cell_length_b                    13.266013
_cell_length_c                    26.468566
_cell_angle_alpha                 90.060886
_cell_angle_beta                  89.992261
_cell_angle_gamma                 120.223709
_cell_volume                      4027.66999561

loop_
_atom_site_label
_atom_site_type_symbol
_atom_type_description
_atom_site_fract_x
_atom_site_fract_y
_atom_site_fract_z
_atom_type_partial_charge
C1    C     C_R   0.557616 0.454992 0.821504 0.545381
C2    C     C_R   0.455859 0.556459 0.179142 0.545348
C3    C     C_R   0.042144 0.360329 0.476885 0.283955
C4    C     C_R   0.314923 0.954229 0.022033 0.286696
C5    C     C_R   0.645712 0.681866 0.476046 0.232192
C6    C     C_R   0.312334 0.937069 0.530226 0.234034
C7    C     C_R   0.065102 0.380000 0.972385 0.239441
C8    C     C_R   0.628655 0.687619 0.528440 0.237914
C9    C     C_R   0.310976 0.932416 0.969796 0.237355
C10   C     C_R   0.074421 0.384781 0.527871 0.241937
C11   C     C_R   0.628844 0.684595 0.973931 0.237881
C12   C     C_R   0.442588 0.898012 0.321334 0.544815
C13   C     C_R   0.101491 0.544446 0.178889 0.546453
C14   C     C_R   0.001087 0.520566 0.973330 -0.047245
C15   C     C_R   0.518115 0.999381 0.527312 -0.032943
C16   C     C_R   0.488529 0.478342 0.974817 -0.051687
C17   C     C_R   0.010460 0.525379 0.527848 -0.039298
C18   C     C_R   0.517760 0.998932 0.972677 -0.033850
C19   C     C_R   0.481932 0.483205 0.526932 -0.056796
C20   C     C_R   0.512693 0.993130 0.474382 -0.053574
C21   C     C_R   0.899064 0.443340 0.678860 0.545683
C22   C     C_R   0.004742 0.520657 0.026452 -0.057281
C23   C     C_R   0.480808 0.487116 0.473853 -0.055883
C24   C     C_R   0.512358 0.992787 0.025621 -0.053869
C25   C     C_R   0.012223 0.524238 0.474686 -0.059215
C26   C     C_R   0.487061 0.481664 0.027899 -0.054933
C27   C     C_R   0.961182 0.680548 0.976385 0.143136
C28   C     C_R   0.722825 0.054531 0.523210 0.071494
C29   C     C_R   0.329528 0.277017 0.977244 0.077781
C30   C     C_R   0.968059 0.683593 0.524933 0.144997
C31   C     C_R   0.722427 0.053623 0.976814 0.076765
C32   C     C_R   0.545008 0.102250 0.821182 0.550842
C33   C     C_R   0.320087 0.283298 0.523986 0.131911
C34   C     C_R   0.710431 0.028043 0.470820 0.112175
C35   C     C_R   0.981789 0.690537 0.029397 0.149046
C36   C     C_R   0.310249 0.293303 0.471079 0.151946
C37   C     C_R   0.710384 0.028501 0.029313 0.109271
C38   C     C_R   0.987994 0.693241 0.471877 0.149228
C39   C     C_R   0.317716 0.287073 0.030054 0.116913
C40   C     C_R   0.944377 0.574304 0.896473 -0.116867
C41   C     C_R   0.632956 0.067677 0.602687 -0.107503
C42   C     C_R   0.433611 0.368017 0.897755 -0.113294
C43   C     C_R   0.556973 0.455292 0.678784 0.547821
C44   C     C_R   0.951649 0.577369 0.604654 -0.112166
C45   C     C_R   0.632812 0.067619 0.897417 -0.108119
C46   C     C_R   0.426920 0.371400 0.603576 -0.128546
C47   C     C_R   0.585883 0.970523 0.394037 -0.113196
C48   C     C_R   0.031804 0.618313 0.106578 -0.114776
C49   C     C_R   0.382446 0.414831 0.393859 -0.117007
C50   C     C_R   0.585893 0.971033 0.106037 -0.112029
C51   C     C_R   0.035773 0.619829 0.394405 -0.115332
C52   C     C_R   0.386221 0.410052 0.107412 -0.114036
C53   C     C_R   0.037417 0.526836 0.130954 -0.025018
C54   C     C_R   0.898156 0.443134 0.821325 0.542835
C55   C     C_R   0.486631 0.960264 0.369915 -0.024190
C56   C     C_R   0.475694 0.508985 0.131996 -0.025346
C57   C     C_R   0.039889 0.527669 0.369866 -0.023342
C58   C     C_R   0.486324 0.960033 0.130101 -0.024121
C59   C     C_R   0.473694 0.511893 0.369270 -0.025460
C60   C     C_R   0.532189 0.040816 0.630788 0.004177
C61   C     C_R   0.961913 0.492224 0.869365 -0.020832
C62   C     C_R   0.508835 0.470765 0.630876 -0.021424
C63   C     C_R   0.532093 0.040922 0.869274 0.003399
C64   C     C_R   0.966178 0.493161 0.631430 -0.006536
C65   C     C_R   0.544971 0.102123 0.678868 0.552126
C66   C     C_R   0.512065 0.468775 0.870410 -0.018843
C67   C     C_R   0.970673 0.594423 0.948321 0.012664
C68   C     C_R   0.625532 0.038993 0.551389 -0.000686
C69   C     C_R   0.415616 0.373439 0.949685 -0.005114
C70   C     C_R   0.978996 0.598360 0.552953 0.015292
C71   C     C_R   0.625255 0.038654 0.948656 -0.001568
C72   C     C_R   0.407412 0.378502 0.551846 -0.014819
C73   C     C_R   0.605464 0.999652 0.445978 0.003360
C74   C     C_R   0.003358 0.609770 0.054543 0.001811
C75   C     C_R   0.391284 0.395799 0.445866 0.000193
C76   C     C_R   0.455560 0.557109 0.321161 0.545381
C77   C     C_R   0.605406 0.000104 0.054099 0.002097
C78   C     C_R   0.009619 0.612561 0.446631 -0.000043
C79   C     C_R   0.397520 0.389876 0.055650 0.001301
C80   C     C_R   0.024963 0.446154 0.892058 0.152112
C81   C     C_R   0.423180 0.969887 0.609333 0.085623
C82   C     C_R   0.559097 0.577951 0.893535 0.149967
C83   C     C_R   0.029535 0.446444 0.608849 0.117607
C84   C     C_R   0.422923 0.969267 0.890530 0.088447
C85   C     C_R   0.556504 0.580475 0.608363 0.147079
C86   C     C_R   0.415962 0.990236 0.396760 0.150815
C87   C     C_R   0.442550 0.897964 0.178678 0.545240
C88   C     C_R   0.002427 0.424786 0.104494 0.158000
C89   C     C_R   0.576068 0.580308 0.395619 0.157905
C90   C     C_R   0.415024 0.988963 0.103190 0.151581
C91   C     C_R   0.005581 0.425900 0.396569 0.151202
C92   C     C_R   0.578805 0.577044 0.106253 0.159449
C93   C     C_R   0.031645 0.448641 0.945424 0.031322
C94   C     C_R   0.415693 0.965546 0.556082 -0.005134
C95   C     C_R   0.559366 0.581816 0.946994 0.030126
C96   C     C_R   0.041642 0.453802 0.555533 -0.010695
C97   C     C_R   0.415072 0.963924 0.943826 -0.002381
C98   C     C_R   0.101960 0.544617 0.321330 0.545892
C99   C     C_R   0.555743 0.585415 0.554990 0.028033
C100  C     C_R   0.414948 0.983306 0.449696 0.020806
C101  C     C_R   0.009705 0.430395 0.051646 0.030337
C102  C     C_R   0.571104 0.582544 0.448550 0.032134
C103  C     C_R   0.414093 0.981790 0.050264 0.021740
C104  C     C_R   0.014420 0.432331 0.449476 0.019986
C105  C     C_R   0.575228 0.578445 0.053384 0.031797
C106  C     C_R   0.039024 0.359589 0.024325 0.234715
C107  C     C_R   0.316555 0.958380 0.477962 0.284126
C108  C     C_R   0.646561 0.679228 0.026244 0.230809
Cr1   Cr    Cr6+3 0.487630 0.241180 0.750000 1.090005
Cr2   Cr    Cr6+3 0.753550 0.512370 0.750000 1.097786
Cr3   Cr    Cr6+3 0.758820 0.246450 0.750000 1.102718
Cr4   Cr    Cr6+3 0.241180 0.487630 0.250000 1.107562
Cr5   Cr    Cr6+3 0.512370 0.753550 0.250000 1.108962
Cr6   Cr    Cr6+3 0.246450 0.758820 0.250000 1.106044
H1    H     H_    0.053103 0.695850 0.127985 0.196426
H2    H     H_    0.717473 0.116803 0.879919 0.180836
H3    H     H_    0.911005 0.619959 0.623468 0.181676
H4    H     H_    0.391876 0.284362 0.878962 0.182564
H5    H     H_    0.044186 0.219961 0.024063 0.387889
H6    H     H_    0.175727 0.962586 0.479098 0.397473
H7    H     H_    0.786702 0.824166 0.027144 0.382344
H8    H     H_    0.045986 0.220077 0.478002 0.401908
H9    H     H_    0.172432 0.955004 0.020966 0.397461
H10   H     H_    0.790662 0.823015 0.475538 0.380922
H11   H     H_    0.220538 0.943493 0.584503 0.368943
H12   H     H_    0.645141 0.954420 0.372269 0.195831
H13   H     H_    0.188391 0.348468 0.972213 0.340163
H14   H     H_    0.687208 0.851020 0.530623 0.344355
H15   H     H_    0.215019 0.933555 0.916172 0.370061
H16   H     H_    0.211285 0.413977 0.562540 0.340131
H17   H     H_    0.674506 0.844923 0.972551 0.342521
H18   H     H_    0.308312 0.352687 0.128386 0.196444
H19   H     H_    0.056284 0.696921 0.372902 0.195678
H20   H     H_    0.645366 0.955403 0.127856 0.196520
H21   H     H_    0.304841 0.357771 0.372597 0.195735
H22   H     H_    0.717478 0.116667 0.620328 0.182744
H23   H     H_    0.903578 0.616721 0.877666 0.182690
H24   H     H_    0.384054 0.287555 0.622121 0.182936
I1    I     I_    0.971755 0.819416 0.073461 -0.143728
I2    I     I_    0.876465 0.085877 0.937535 -0.171393
I3    I     I_    0.931600 0.803154 0.563330 -0.178592
I4    I     I_    0.197305 0.131586 0.936835 -0.240331
I5    I     I_    0.902437 0.268808 0.146279 -0.171303
I6    I     I_    0.359432 0.090151 0.355630 -0.174920
I7    I     I_    0.734031 0.636567 0.149119 -0.171814
I8    I     I_    0.906155 0.269024 0.355118 -0.172137
I9    I     I_    0.358172 0.088802 0.144200 -0.173281
I10   I     I_    0.732356 0.638920 0.353643 -0.168258
I11   I     I_    0.287687 0.851719 0.659501 -0.210280
I12   I     I_    0.847847 0.029819 0.429097 -0.158725
I13   I     I_    0.113123 0.385014 0.843040 -0.112954
I14   I     I_    0.612854 0.728885 0.657781 -0.123840
I15   I     I_    0.288392 0.851978 0.839653 -0.201315
I16   I     I_    0.101811 0.367335 0.657243 -0.165646
I17   I     I_    0.613636 0.727142 0.844865 -0.117564
I18   I     I_    0.179572 0.149910 0.071353 -0.156942
I19   I     I_    0.974607 0.819773 0.427707 -0.144150
I20   I     I_    0.848106 0.031814 0.071382 -0.158347
I21   I     I_    0.180022 0.152830 0.427796 -0.143862
I22   I     I_    0.878637 0.091884 0.562309 -0.180697
I23   I     I_    0.928606 0.802569 0.937939 -0.180174
I24   I     I_    0.190595 0.134524 0.563276 -0.222437
O1    O     O_R   0.460870 0.120930 0.805240 -0.476235
O2    O     O_R   0.120930 0.460870 0.194760 -0.460864
O3    O     O_R   0.539130 0.660060 0.305240 -0.462299
O4    O     O_R   0.339940 0.879070 0.194760 -0.462596
O5    O     O_R   0.498910 0.350470 0.801870 -0.504666
O6    O     O_R   0.851560 0.501090 0.698130 -0.504531
O7    O     O_R   0.649530 0.148440 0.801870 -0.503564
O8    O     O_R   0.498910 0.350470 0.698130 -0.504472
O9    O     O_R   0.851560 0.501090 0.801870 -0.504057
O10   O     O_R   0.649530 0.148440 0.698130 -0.503104
O11   O     O_R   0.350470 0.498910 0.301870 -0.503927
O12   O     O_R   0.660060 0.539130 0.694760 -0.469532
O13   O     O_R   0.501090 0.851560 0.198130 -0.501716
O14   O     O_R   0.148440 0.649530 0.301870 -0.503795
O15   O     O_R   0.350470 0.498910 0.198130 -0.502736
O16   O     O_R   0.501090 0.851560 0.301870 -0.502459
O17   O     O_R   0.148440 0.649530 0.198130 -0.503597
O18   O     O_3   0.666667 0.333333 0.750000 -0.304276
O19   O     O_3   0.333333 0.666667 0.250000 -0.304768
O20   O     O_3   0.053958 0.278794 0.049507 -0.646387
O21   O     O_3   0.222865 0.950333 0.453536 -0.632581
O22   O     O_3   0.725867 0.775487 0.051927 -0.649373
O23   O     O_R   0.879070 0.339940 0.805240 -0.470788
O24   O     O_3   0.053267 0.276900 0.452044 -0.629019
O25   O     O_3   0.219993 0.943329 0.046488 -0.631464
O26   O     O_3   0.729130 0.776065 0.450684 -0.648795
O27   O     O_3   0.207306 0.894321 0.554490 -0.670244
O28   O     O_3   0.124906 0.334548 0.948847 -0.637881
O29   O     O_3   0.685491 0.791951 0.553556 -0.639072
O30   O     O_3   0.205025 0.884673 0.945854 -0.669689
O31   O     O_3   0.142174 0.344557 0.548131 -0.654113
O32   O     O_3   0.680241 0.789752 0.949547 -0.639480
O33   O     O_R   0.460870 0.120930 0.694760 -0.475993
O34   O     O_R   0.660060 0.539130 0.805240 -0.471497
O35   O     O_R   0.879070 0.339940 0.694760 -0.467670
O36   O     O_R   0.120930 0.460870 0.305240 -0.462082
O37   O     O_R   0.539130 0.660060 0.194760 -0.461300
O38   O     O_R   0.339940 0.879070 0.305240 -0.462912

loop_
_geom_bond_atom_site_label_1
_geom_bond_atom_site_label_2
_ccdc_geom_bond_type
C3    C104  A    
C80   I13   S    
C12   O16   A    
C32   O7    A    
H15   O30   S    
C35   C74   A    
C89   C102  A    
C89   I10   S    
C45   H2    S    
C11   O32   S    
C91   C104  A    
H16   O31   S    
C58   C87   S    
C15   C94   A    
C88   C101  A    
C34   I12   S    
C86   I6    S    
C64   C83   A    
C83   I16   S    
C44   C64   A    
C22   C101  A    
C46   C62   A    
C14   C93   A    
C18   C24   A    
C84   C97   A    
C44   H3    S    
C4    O25   S    
C76   O11   A    
C28   C68   A    
C8    C99   A    
Cr5   O3    S    
C43   O12   A    
H8    O24   S    
C87   O4    A    
C45   C71   A    
C29   I4    S    
C61   C80   A    
C4    C103  A    
C28   I22   S    
C33   C36   A    
C30   C38   A    
Cr3   O10   S    
C59   C89   A    
C106  O20   S    
C21   C64   S    
C31   I2    S    
Cr1   O5    S    
C36   I21   S    
C35   I1    S    
Cr2   O6    S    
C80   C93   A    
Cr5   O19   S    
C6    C94   A    
C54   O23   A    
C6    C107  A    
C49   C75   A    
C7    O28   S    
C44   C70   A    
C51   C57   A    
C2    O15   A    
Cr2   O18   S    
C9    O30   S    
C86   C100  A    
C88   I5    S    
C46   C72   A    
C33   C72   A    
C18   C97   A    
C46   H24   S    
Cr2   O9    S    
C11   C108  A    
C31   C71   A    
Cr5   O16   S    
C49   H21   S    
C28   C34   A    
C17   C70   A    
Cr6   O38   S    
C19   C72   A    
C15   C20   A    
C7    C93   A    
C26   C105  A    
Cr4   O36   S    
C30   C70   A    
C43   O8    A    
Cr6   O4    S    
C41   C68   A    
C29   C69   A    
Cr2   O12   S    
C16   C26   A    
C48   C53   A    
Cr4   O2    S    
C62   C85   A    
Cr3   O23   S    
H13   O28   S    
C108  O22   S    
C65   O10   A    
C25   C78   A    
C52   H18   S    
C48   C74   A    
C1    O34   A    
C41   C60   A    
Cr1   O1    S    
C10   O31   S    
C23   C75   A    
H10   O26   S    
C19   C99   A    
C42   H4    S    
C38   C78   A    
C27   C35   A    
C13   O17   A    
C37   C77   A    
C45   C63   A    
C42   C69   A    
C40   C61   A    
C31   C37   A    
C107  O21   S    
Cr3   O7    S    
H5    O20   S    
C39   C79   A    
C37   I20   S    
C19   C23   A    
C13   C53   S    
C90   I9    S    
C85   C99   A    
C36   C75   A    
C66   C82   A    
C98   O14   A    
C60   C81   A    
C24   C77   A    
C20   C100  A    
C10   C96   A    
C14   C67   A    
C40   H23   S    
C29   C39   A    
C1    C66   S    
Cr5   O37   S    
C7    C106  A    
C76   O3    A    
C17   C96   A    
C105  C108  A    
C30   I3    S    
C47   C73   A    
C58   C90   A    
C48   H1    S    
C82   I17   S    
C50   C58   A    
C12   O38   A    
C60   C65   S    
H7    O22   S    
C50   H20   S    
Cr3   O18   S    
C16   C95   A    
H17   O32   S    
C22   C74   A    
C47   H12   S    
C52   C79   A    
C3    O24   S    
C101  C106  A    
Cr1   O8    S    
C40   C67   A    
C13   O2    A    
C47   C55   A    
C11   C95   A    
C18   C71   A    
C5    C102  A    
C100  C107  A    
C9    C97   A    
C82   C95   A    
C57   C91   A    
C92   I7    S    
C21   O6    A    
C54   O9    A    
C16   C69   A    
C38   I19   S    
C21   O35   A    
C5    C8    A    
C25   C104  A    
Cr4   O19   S    
C54   C61   S    
C32   C63   S    
Cr6   O19   S    
C87   O13   A    
C63   C84   A    
C15   C68   A    
C26   C79   A    
C49   C59   A    
Cr5   O13   S    
C39   I18   S    
H14   O29   S    
C17   C25   A    
C24   C103  A    
C55   C86   A    
C33   I24   S    
C32   O1    A    
C85   I14   S    
C3    C10   A    
C2    C56   S    
Cr3   O35   S    
Cr2   O34   S    
C81   C94   A    
C51   H19   S    
Cr1   O18   S    
C14   C22   A    
C98   O36   A    
C2    O37   A    
C81   I11   S    
C83   C96   A    
C6    O27   S    
Cr6   O14   S    
C20   C73   A    
Cr1   O33   S    
C53   C88   A    
C91   I8    S    
H9    O25   S    
H6    O21   S    
C57   C98   S    
C90   C103  A    
C51   C78   A    
C12   C55   S    
C27   C67   A    
C34   C73   A    
C23   C102  A    
C92   C105  A    
C56   C92   A    
Cr6   O17   S    
C50   C77   A    
C42   C66   A    
C1    O5    A    
H11   O27   S    
C8    O29   S    
C5    O26   S    
C4    C9    A    
C59   C76   S    
C41   H22   S    
C27   I23   S    
C52   C56   A    
C43   C62   S    
Cr4   O11   S    
Cr4   O15   S    
C65   O33   A    
C84   I15   S    
