data_mof_unit_50723.cif
_audit_creation_date              2012-10-26T21:10:29-0400
_audit_creation_method            fapswitch 2.2
_symmetry_space_group_name_H-M    P1
_symmetry_Int_Tables_number       1
_space_group_crystal_system       triclinic
_cell_length_a                    10.85716
_cell_length_b                    10.894842
_cell_length_c                    9.726946
_cell_angle_alpha                 89.459047
_cell_angle_beta                  90.722214
_cell_angle_gamma                 90.311146
_cell_volume                      1150.41276494

loop_
_atom_site_label
_atom_site_type_symbol
_atom_type_description
_atom_site_fract_x
_atom_site_fract_y
_atom_site_fract_z
_atom_type_partial_charge
C1    C     C_R   0.511661 0.265855 0.501516 0.544503
C2    C     C_R   0.833083 0.433047 0.982359 -0.066987
C3    C     C_R   0.768624 0.321905 0.983171 -0.102450
C4    C     C_R   0.262398 0.502290 0.498709 0.545460
C5    C     C_R   0.761866 0.250651 0.864352 -0.113264
C6    C     C_R   0.819420 0.290953 0.744131 -0.062345
C7    C     C_R   0.883302 0.403347 0.742624 0.048751
C8    C     C_2   0.589413 0.929126 0.437264 -0.066234
C9    C     C_2   0.497149 0.866523 0.496629 0.394390
C10   C     C_2   0.586331 0.064145 0.415161 -0.002390
C11   C     C_2   0.534633 0.134166 0.512997 0.404763
C12   C     C_R   0.208164 0.728818 0.027258 -0.055869
C13   C     C_2   0.482017 0.404045 0.924131 0.073703
C14   C     C_2   0.448207 0.415135 0.073149 0.185003
C15   C     C_R   0.500130 0.734447 0.499377 0.550328
C16   C     C_R   0.737589 0.497817 0.500951 0.516749
C17   C     C_R   0.199773 0.797376 0.148150 -0.003917
C18   C     C_R   0.152294 0.740453 0.269408 0.045431
C19   C     C_R   0.115468 0.614996 0.264348 -0.002654
C20   C     C_R   0.121876 0.551078 0.140299 -0.099589
C21   C     C_R   0.169464 0.607363 0.023341 0.340768
C22   C     C_3   0.649106 0.121605 0.290344 -0.321397
C23   C     C_R   0.931841 0.544908 0.387577 -0.156580
C24   C     C_3   0.721163 0.031931 0.202039 -0.455072
C25   C     C_3   0.353086 0.324230 0.128332 -0.288904
C26   C     C_3   0.271801 0.262211 0.018884 -0.484970
C27   C     C_3   0.242038 0.930106 0.140232 -0.288159
C28   C     C_3   0.381846 0.937805 0.127911 -0.408466
C29   C     C_3   0.135885 0.812481 0.400727 -0.250350
C30   C     C_3   0.014045 0.881533 0.398448 -0.448757
C31   C     C_R   0.871582 0.495943 0.502111 -0.008542
C32   C     C_R   0.940427 0.450206 0.615397 -0.036207
C33   C     C_R   0.068009 0.452286 0.609923 -0.115421
C34   C     C_R   0.128383 0.502288 0.496071 -0.003917
C35   C     C_R   0.059449 0.551036 0.383957 -0.036788
C36   C     C_R   0.889971 0.473992 0.862418 -0.049869
Cu1   Cu    Cu3+1 0.500020 0.500020 0.638630 1.025719
Cu2   Cu    Cu3+1 0.499980 0.499980 0.361370 1.007755
F1    F     F_    0.394376 0.921602 0.544094 -0.625735
F2    F     F_    0.517973 0.085751 0.641350 -0.603719
F3    F     F_    0.591697 0.563479 0.099424 -0.586387
F4    F     F_    0.177013 0.544834 0.904296 -0.689391
H1    H     H_    0.243612 0.770598 0.934170 0.153999
H2    H     H_    0.120427 0.413606 0.695301 0.190891
H3    H     H_    0.937033 0.561844 0.861900 0.157999
H4    H     H_    0.837529 0.488270 0.074122 0.148726
H5    H     H_    0.797557 0.990600 0.262826 0.150563
H6    H     H_    0.659511 0.958781 0.161354 0.171379
H7    H     H_    0.762243 0.081013 0.113394 0.140738
H8    H     H_    0.579373 0.165004 0.222560 0.150195
H9    H     H_    0.714326 0.194005 0.326036 0.145007
H10   H     H_    0.232533 0.330428 0.945800 0.225892
H11   H     H_    0.325030 0.193274 0.961345 0.160723
H12   H     H_    0.722195 0.292525 0.075400 0.120581
H13   H     H_    0.194382 0.213463 0.069693 0.135823
H14   H     H_    0.398468 0.249991 0.186642 0.148494
H15   H     H_    0.290056 0.371449 0.197369 0.188255
H16   H     H_    0.426633 0.886483 0.213594 0.183429
H17   H     H_    0.412146 0.898888 0.028876 0.176447
H18   H     H_    0.412051 0.034945 0.131978 0.133936
H19   H     H_    0.198813 0.974754 0.048541 0.144672
H20   H     H_    0.213729 0.985329 0.229078 0.153466
H21   H     H_    0.010680 0.947306 0.310721 0.141117
H22   H     H_    0.935555 0.816209 0.389333 0.155089
H23   H     H_    0.710947 0.164968 0.865007 0.144856
H24   H     H_    0.004521 0.933546 0.495323 0.156664
H25   H     H_    0.138825 0.752109 0.493038 0.170128
H26   H     H_    0.212796 0.877569 0.416082 0.215531
H27   H     H_    0.812738 0.235972 0.652087 0.101891
H28   H     H_    0.666093 0.877235 0.397655 0.062846
H29   H     H_    0.481874 0.314226 0.877501 0.144464
H30   H     H_    0.483817 0.582885 0.890765 0.278494
H31   H     H_    0.089603 0.456981 0.134484 0.116765
H32   H     H_    0.879232 0.583705 0.302347 0.144571
N1    N     N_2   0.498640 0.498660 0.846910 -0.308655
N2    N     N_2   0.498610 0.498630 0.153040 0.039078
O1    O     O_R   0.500020 0.321960 0.617040 -0.472040
O2    O     O_R   0.499980 0.321920 0.382900 -0.574557
O3    O     O_R   0.319660 0.500030 0.617070 -0.464533
O4    O     O_R   0.319620 0.499990 0.382930 -0.526641
O5    O     O_R   0.500020 0.678080 0.617100 -0.483284
O6    O     O_R   0.499980 0.678040 0.382960 -0.500469
O7    O     O_R   0.680380 0.500010 0.617070 -0.492977
O8    O     O_R   0.680340 0.499970 0.382930 -0.478546

loop_
_geom_bond_atom_site_label_1
_geom_bond_atom_site_label_2
_ccdc_geom_bond_type
C6    H27   S    
C30   H22   S    
C1    O1    A    
C7    C36   A    
C19   C20   A    
C1    C11   S    
C25   H14   S    
C16   O8    A    
C26   H13   S    
C15   O5    A    
Cu2   N2    S    
C2    H4    S    
C16   C31   S    
Cu1   O3    S    
C29   C30   S    
C4    O4    A    
C12   H1    S    
C5    C6    A    
C3    H12   S    
C9    F1    S    
C34   C35   A    
C27   H19   S    
C29   H25   S    
C13   N1    D    
C8    C9    D    
C12   C17   A    
C22   H8    S    
Cu1   N1    S    
C30   H21   S    
Cu2   O6    S    
C1    O2    A    
C33   H2    S    
Cu1   O5    S    
C25   H15   S    
H30   N1    S    
C33   C34   A    
C15   O6    A    
C28   H18   S    
C4    C34   S    
C17   C27   S    
C4    O3    A    
C5    H23   S    
C18   C19   A    
Cu2   O2    S    
C23   C31   A    
C25   C26   S    
Cu1   O1    S    
C12   C21   A    
C16   O7    A    
C10   C22   S    
C24   H6    S    
Cu1   Cu2   S    
C27   H20   S    
C26   H10   S    
C29   H26   S    
C31   C32   A    
C17   C18   A    
C36   H3    S    
C18   C29   S    
C30   H24   S    
C23   C35   A    
C22   C24   S    
C23   H32   S    
C26   H11   S    
C28   H17   S    
C2    C36   A    
C24   H7    S    
C7    C32   S    
Cu2   O8    S    
C24   H5    S    
C3    C5    A    
C6    C7    A    
C28   H16   S    
C13   H29   S    
C8    H28   S    
C32   C33   A    
C2    C3    A    
C9    C15   S    
C19   C35   S    
F3    N2    S    
Cu2   O4    S    
C20   H31   S    
C14   C25   S    
C11   F2    S    
C10   C11   D    
C21   F4    S    
C20   C21   A    
C8    C10   S    
C27   C28   S    
Cu1   O7    S    
C13   C14   S    
C14   N2    D    
C22   H9    S    
