data_mof_unit_17897.cif
_audit_creation_date              2012-10-26T21:06:37-0400
_audit_creation_method            fapswitch 2.2
_symmetry_space_group_name_H-M    P1
_symmetry_Int_Tables_number       1
_space_group_crystal_system       triclinic
_cell_length_a                    15.858948
_cell_length_b                    10.80905
_cell_length_c                    9.688004
_cell_angle_alpha                 89.699779
_cell_angle_beta                  90.281668
_cell_angle_gamma                 95.025198
_cell_volume                      1654.29659067

loop_
_atom_site_label
_atom_site_type_symbol
_atom_type_description
_atom_site_fract_x
_atom_site_fract_y
_atom_site_fract_z
_atom_type_partial_charge
C1    C     C_R   0.501240 0.262933 0.500596 0.537389
C2    C     C_R   0.555413 0.580801 0.074180 0.122453
C3    C     C_R   0.340147 0.499549 0.499623 0.536433
C4    C     C_R   0.659853 0.500450 0.500377 0.536434
C5    C     C_3   0.965190 0.383628 0.525833 -0.119004
C6    C     C_3   0.034811 0.616372 0.474167 -0.118989
C7    C     C_3   0.022738 0.422458 0.400525 -0.141390
C8    C     C_3   0.977262 0.577542 0.599475 -0.141397
C9    C     C_1   0.250423 0.499918 0.498598 0.009500
C10   C     C_1   0.749577 0.500082 0.501402 0.009497
C11   C     C_3   0.026601 0.462179 0.621192 0.252137
C12   C     C_R   0.498760 0.737066 0.499404 0.537389
C13   C     C_3   0.973399 0.537821 0.378808 0.252149
C14   C     C_3   0.083114 0.500368 0.497992 -0.002910
C15   C     C_3   0.916886 0.499632 0.502009 -0.002922
C16   C     C_1   0.174856 0.500246 0.497796 0.015767
C17   C     C_1   0.825144 0.499754 0.502205 0.015759
C18   C     C_R   0.450869 0.061095 0.406102 -0.119087
C19   C     C_R   0.549130 0.938905 0.593900 -0.119086
C20   C     C_3   0.389188 0.862569 0.301041 -0.360373
C21   C     C_3   0.610812 0.137431 0.698961 -0.360375
C22   C     C_3   0.380310 0.328174 0.145501 -0.336020
C23   C     C_R   0.447908 0.932135 0.402762 -0.019707
C24   C     C_3   0.619714 0.671791 0.854498 -0.336023
C25   C     C_3   0.381887 0.325892 0.854181 -0.322072
C26   C     C_3   0.618099 0.674130 0.145819 -0.322072
C27   C     C_R   0.552091 0.067865 0.597240 -0.019705
C28   C     C_R   0.498020 0.871109 0.497864 0.028212
C29   C     C_R   0.501979 0.128891 0.502137 0.028213
C30   C     C_R   0.444374 0.419475 0.074046 0.132456
C31   C     C_R   0.555629 0.580521 0.925953 0.132449
C32   C     C_R   0.444586 0.419202 0.925820 0.122445
Cu1   Cu    Cu3+1 0.500000 0.500020 0.640660 0.922793
Cu2   Cu    Cu3+1 0.500000 0.499980 0.359340 0.922800
H1    H     H_    0.042086 0.360277 0.317800 0.153048
H2    H     H_    0.347915 0.925302 0.246879 0.125688
H3    H     H_    0.426454 0.818401 0.221309 0.164372
H4    H     H_    0.652521 0.209499 0.644300 0.152706
H5    H     H_    0.573546 0.181600 0.778692 0.164374
H6    H     H_    0.652085 0.074697 0.753123 0.125686
H7    H     H_    0.390710 0.231785 0.115711 0.090399
H8    H     H_    0.381209 0.327261 0.257170 0.194599
H9    H     H_    0.315136 0.348403 0.116544 0.124312
H10   H     H_    0.609366 0.768189 0.884328 0.090376
H11   H     H_    0.684880 0.651488 0.883413 0.124352
H12   H     H_    0.957914 0.639722 0.682201 0.153056
H13   H     H_    0.618788 0.672743 0.742830 0.194595
H14   H     H_    0.382076 0.325960 0.742507 0.203245
H15   H     H_    0.394632 0.230046 0.884005 0.095758
H16   H     H_    0.316223 0.342746 0.882756 0.151548
H17   H     H_    0.617927 0.674036 0.257492 0.203249
H18   H     H_    0.683767 0.657322 0.117214 0.151515
H19   H     H_    0.605323 0.769969 0.116022 0.095767
H20   H     H_    0.936040 0.288684 0.548884 0.155699
H21   H     H_    0.063960 0.711316 0.451117 0.155702
H22   H     H_    0.411999 0.109148 0.334934 0.111185
H23   H     H_    0.587999 0.890851 0.665071 0.111188
H24   H     H_    0.052067 0.549529 0.113800 0.364804
H25   H     H_    0.947905 0.450411 0.886157 0.364769
H26   H     H_    0.347479 0.790500 0.355701 0.152710
N1    N     N_R   0.500020 0.500030 0.852070 -0.221368
N2    N     N_R   0.499980 0.499970 0.147930 -0.221367
O1    O     O_R   0.500000 0.319660 0.618740 -0.522814
O2    O     O_2   0.890155 0.702461 0.235916 -0.250460
O3    O     O_3   0.019417 0.623526 0.110585 -0.467666
O4    O     O_2   0.109865 0.297559 0.764081 -0.250470
O5    O     O_2   0.122196 0.512044 0.847598 -0.270821
O6    O     O_3   0.980583 0.376443 0.889405 -0.467685
O7    O     O_R   0.500000 0.680340 0.381260 -0.522813
O8    O     O_R   0.499990 0.319630 0.381170 -0.510950
O9    O     O_R   0.500010 0.680370 0.618830 -0.510950
O10   O     O_R   0.379080 0.500000 0.618760 -0.490699
O11   O     O_R   0.620920 0.500000 0.381240 -0.490696
O12   O     O_R   0.379080 0.499970 0.381190 -0.517133
O13   O     O_R   0.620920 0.500030 0.618810 -0.517137
O14   O     O_2   0.877788 0.487970 0.152416 -0.270835
S1    S     S_3+6 0.936670 0.588708 0.215766 0.028012
S2    S     S_3+6 0.063330 0.411293 0.784235 0.028004

loop_
_geom_bond_atom_site_label_1
_geom_bond_atom_site_label_2
_ccdc_geom_bond_type
C12   O7    A    
C27   C29   A    
O2    S1    D    
C31   N1    A    
C6    H21   S    
C19   H23   S    
C12   C28   S    
C24   H11   S    
C9    C16   T    
C32   N1    A    
C5    C11   S    
C11   C14   S    
C22   H7    S    
C10   C17   T    
Cu2   N2    S    
C3    O12   A    
C25   H16   S    
C4    O13   A    
Cu1   O10   S    
Cu1   O13   S    
C7    C14   S    
C21   H4    S    
C20   H26   S    
C19   C27   A    
Cu2   O8    S    
C18   H22   S    
C25   C32   S    
C21   C27   S    
O5    S2    D    
C1    O1    A    
C8    H12   S    
O6    S2    S    
O4    S2    D    
C13   S1    S    
O3    S1    S    
C18   C23   A    
C5    H20   S    
O14   S1    D    
C5    C7    S    
C6    C8    S    
C2    C31   A    
C3    C9    S    
C11   S2    S    
C26   H18   S    
H25   O6    S    
C6    C14   S    
H24   O3    S    
C22   H9    S    
C21   H5    S    
C20   C23   S    
Cu1   O1    S    
C1    C29   S    
Cu1   Cu2   S    
C2    C26   S    
C18   C29   A    
C23   C28   A    
C19   C28   A    
Cu2   O7    S    
C4    O11   A    
Cu2   O12   S    
C12   O9    A    
C8    C15   S    
C13   C15   S    
C24   H10   S    
C14   C16   S    
C4    C10   S    
C26   H19   S    
C15   C17   S    
C22   C30   S    
C24   H13   S    
C7    H1    S    
C1    O8    A    
C30   N2    A    
C3    O10   A    
C24   C31   S    
C26   H17   S    
C6    C13   S    
C30   C32   A    
C20   H3    S    
C22   H8    S    
C21   H6    S    
C8    C11   S    
C25   H15   S    
C5    C15   S    
Cu1   O9    S    
Cu2   O11   S    
C20   H2    S    
C7    C13   S    
Cu1   N1    S    
C25   H14   S    
C2    N2    A    
