data_mof_unit_14050.cif
_audit_creation_date              2012-12-10T17:00:02-0500
_audit_creation_method            fapswitch 2.2
_symmetry_space_group_name_H-M    P1
_symmetry_Int_Tables_number       1
_space_group_crystal_system       triclinic
_cell_length_a                    14.939773
_cell_length_b                    15.274417
_cell_length_c                    10.027434
_cell_angle_alpha                 88.439239
_cell_angle_beta                  90.27091
_cell_angle_gamma                 89.409575
_cell_volume                      2287.22447556

loop_
_atom_site_label
_atom_site_type_symbol
_atom_type_description
_atom_site_fract_x
_atom_site_fract_y
_atom_site_fract_z
_atom_type_partial_charge
C1    C     C_R   0.376687 0.885992 0.500166 0.983670
C2    C     C_2   0.676152 0.254182 0.419029 -0.020402
C3    C     C_2   0.173611 0.243084 0.394009 -0.058951
C4    C     C_2   0.176118 0.754211 0.419061 -0.020386
C5    C     C_2   0.644371 0.783259 0.505649 -0.270760
C6    C     C_2   0.690292 0.178394 0.490540 -0.204527
C7    C     C_2   0.144390 0.283267 0.505642 -0.270834
C8    C     C_2   0.190283 0.678408 0.490527 -0.204500
C9    C     C_2   0.236214 0.169632 0.409647 0.085020
C10   C     C_2   0.250463 0.812020 0.393168 -0.004583
C11   C     C_2   0.736169 0.669599 0.409656 0.084847
C12   C     C_R   0.379218 0.117537 0.498164 1.051403
C13   C     C_2   0.750513 0.311964 0.393130 -0.004694
C14   C     C_2   0.307444 0.180081 0.490756 -0.271999
C15   C     C_2   0.295047 0.837639 0.502175 -0.267619
C16   C     C_2   0.807414 0.680051 0.490746 -0.272013
C17   C     C_2   0.795053 0.337634 0.502150 -0.267830
C18   C     C_2   0.573075 0.994921 0.924283 0.546423
C19   C     C_2   0.073077 0.494951 0.924279 0.546437
C20   C     C_2   0.572229 0.010347 0.073932 -0.166505
C21   C     C_2   0.072228 0.510360 0.073932 -0.166497
C22   C     C_2   0.652126 0.772706 0.254564 0.364691
C23   C     C_R   0.876696 0.385981 0.500163 0.983858
C24   C     C_2   0.586531 0.287566 0.372561 0.476794
C25   C     C_2   0.152156 0.272724 0.254564 0.364660
C26   C     C_2   0.086481 0.787588 0.372658 0.476970
C27   C     C_2   0.641100 0.735570 0.638259 0.427072
C28   C     C_2   0.779098 0.142425 0.535187 0.375599
C29   C     C_2   0.141120 0.235574 0.638250 0.427171
C30   C     C_2   0.279104 0.642436 0.535088 0.375504
C31   C     C_2   0.214662 0.087714 0.340259 0.469529
C32   C     C_2   0.270842 0.836085 0.251404 0.465881
C33   C     C_2   0.714575 0.587697 0.340234 0.469863
C34   C     C_R   0.879204 0.617523 0.498162 1.051625
C35   C     C_2   0.770971 0.335904 0.251342 0.465943
C36   C     C_3   0.695119 0.904350 0.904369 -0.209260
C37   C     C_3   0.195162 0.404438 0.904305 -0.209307
C38   C     C_2   0.657367 0.035541 0.136966 0.553291
C39   C     C_2   0.157363 0.535559 0.136972 0.553296
C40   C     C_R   0.619749 0.117234 0.498709 0.928195
C41   C     C_R   0.609610 0.873100 0.501275 0.839795
C42   C     C_R   0.119749 0.617236 0.498706 0.928169
C43   C     C_R   0.109615 0.373103 0.501274 0.839676
C44   C     C_2   0.673582 0.743067 0.394019 -0.059219
H1    H     H_    0.315849 0.239465 0.546668 0.129514
H2    H     H_    0.582709 0.339146 0.296047 0.092809
H3    H     H_    0.086807 0.299751 0.228502 0.115207
H4    H     H_    0.082630 0.839186 0.296178 0.092907
H5    H     H_    0.637147 0.771597 0.729340 0.079207
H6    H     H_    0.782172 0.095584 0.618548 0.112699
H7    H     H_    0.137145 0.271595 0.729338 0.079146
H8    H     H_    0.282210 0.595584 0.618430 0.112646
H9    H     H_    0.172394 0.090110 0.251938 0.084135
H10   H     H_    0.302385 0.897151 0.223007 0.111369
H11   H     H_    0.671893 0.590097 0.252327 0.084009
H12   H     H_    0.270220 0.819380 0.600975 0.153039
H13   H     H_    0.802557 0.396929 0.222850 0.111598
H14   H     H_    0.646475 0.851183 0.927130 0.141922
H15   H     H_    0.737573 0.915651 0.993113 0.197981
H16   H     H_    0.740165 0.881001 0.824914 0.177569
H17   H     H_    0.146542 0.351254 0.927098 0.141911
H18   H     H_    0.237646 0.415749 0.993019 0.197984
H19   H     H_    0.240185 0.381107 0.824804 0.177542
H20   H     H_    0.676871 0.008446 0.233516 0.096518
H21   H     H_    0.176877 0.508443 0.233505 0.096486
H22   H     H_    0.815820 0.739440 0.546647 0.129551
H23   H     H_    0.770182 0.319427 0.600947 0.153002
H24   H     H_    0.442664 0.017362 0.898124 0.123619
H25   H     H_    0.942655 0.517325 0.898126 0.123617
H26   H     H_    0.445225 0.975763 0.102724 0.150958
H27   H     H_    0.945229 0.475757 0.102725 0.150980
H28   H     H_    0.586781 0.799752 0.228505 0.115210
N1    N     N_2   0.501330 0.000000 0.852150 -0.225645
N2    N     N_2   0.001330 0.500000 0.852150 -0.225651
N3    N     N_2   0.501360 1.000000 0.147810 -0.257213
N4    N     N_2   0.001360 0.500000 0.147810 -0.257167
O1    O     O_R   0.409520 0.909540 0.613040 -0.618702
O2    O     O_R   0.590440 0.909540 0.613100 -0.594561
O3    O     O_R   0.090440 0.590460 0.613100 -0.570882
O4    O     O_R   0.090440 0.409540 0.613100 -0.594600
O5    O     O_R   0.590480 0.090460 0.386960 -0.612010
O6    O     O_R   0.590480 0.909540 0.386960 -0.658031
O7    O     O_R   0.090480 0.590460 0.386960 -0.612069
O8    O     O_R   0.090480 0.409540 0.386960 -0.658053
O9    O     O_2   0.706902 0.763637 0.165883 -0.606509
O10   O     O_2   0.517029 0.261881 0.422836 -0.596106
O11   O     O_2   0.206945 0.263687 0.165898 -0.606611
O12   O     O_R   0.409520 0.090460 0.613040 -0.611109
O13   O     O_2   0.016996 0.761877 0.422954 -0.596145
O14   O     O_2   0.638027 0.655718 0.646692 -0.525272
O15   O     O_2   0.848004 0.159638 0.475375 -0.536297
O16   O     O_2   0.138069 0.155722 0.646678 -0.524964
O17   O     O_2   0.347986 0.659659 0.475222 -0.536339
O18   O     O_2   0.238623 0.016581 0.385806 -0.639035
O19   O     O_2   0.248842 0.787613 0.162388 -0.529940
O20   O     O_2   0.738977 0.516553 0.385309 -0.639242
O21   O     O_2   0.748985 0.287368 0.162398 -0.529893
O22   O     O_3   0.653624 0.983124 0.858662 -0.560056
O23   O     O_R   0.909520 0.409540 0.613040 -0.618786
O24   O     O_3   0.153630 0.483204 0.858647 -0.560031
O25   O     O_2   0.708152 0.085653 0.079074 -0.499356
O26   O     O_2   0.208131 0.585698 0.079106 -0.499409
O27   O     O_R   0.909520 0.590460 0.613040 -0.611205
O28   O     O_R   0.409560 0.909540 0.386900 -0.638605
O29   O     O_R   0.409560 0.090460 0.386900 -0.572343
O30   O     O_R   0.909560 0.409540 0.386900 -0.638415
O31   O     O_R   0.909560 0.590460 0.386900 -0.571893
O32   O     O_R   0.590440 0.090460 0.613100 -0.570976
Zn1   Zn    Zn3+2 0.499970 0.000000 0.650990 1.023306
Zn2   Zn    Zn3+2 0.999970 0.500000 0.650990 1.023284
Zn3   Zn    Zn3+2 0.500030 0.000000 0.349010 0.968850
Zn4   Zn    Zn3+2 0.000030 0.500000 0.349010 0.969053

loop_
_geom_bond_atom_site_label_1
_geom_bond_atom_site_label_2
_ccdc_geom_bond_type
C33   H11   S    
C23   O23   A    
C7    C29   S    
C1    O1    A    
O31   Zn4   S    
C4    C8    D    
C36   H15   S    
C37   H18   S    
O30   Zn4   S    
C26   O13   D    
C21   N4    D    
O8    Zn4   S    
O27   Zn2   S    
C34   O31   A    
C19   C21   S    
C8    C42   S    
C13   C35   S    
C38   O25   D    
C36   H14   S    
C10   C15   D    
C12   O29   A    
C25   O11   D    
O32   Zn1   S    
C27   O14   D    
C22   O9    D    
C22   H28   S    
C2    C13   S    
C5    C41   S    
C16   C34   S    
C5    C27   S    
C28   H6    S    
C6    C28   S    
O5    Zn3   S    
C1    C15   S    
C7    C43   S    
C28   O15   D    
C25   H3    S    
C26   H4    S    
C40   O32   A    
O29   Zn3   S    
C42   O3    A    
C43   O8    A    
C39   H21   S    
C2    C6    D    
C32   H10   S    
C37   H19   S    
C14   H1    S    
C38   H20   S    
H25   N2    S    
C22   C44   S    
C17   H23   S    
C12   O12   A    
C11   C33   S    
C41   O2    A    
C43   O4    A    
O23   Zn2   S    
C20   N3    D    
C9    C14   D    
C3    C9    S    
C20   C38   S    
C11   C16   D    
C4    C26   S    
C21   C39   S    
C3    C25   S    
N4    Zn4   S    
C11   C44   S    
C17   C23   S    
C31   H9    S    
O1    Zn1   S    
C1    O28   A    
O12   Zn1   S    
C5    C44   D    
C12   C14   S    
C18   N1    D    
C2    C24   S    
C6    C40   S    
C16   H22   S    
C4    C10   S    
C33   O20   D    
C39   O26   D    
C29   H7    S    
C30   H8    S    
O3    Zn2   S    
N3    Zn3   S    
C40   O5    A    
C19   N2    D    
C42   O7    A    
C36   H16   S    
N2    Zn2   S    
O28   Zn3   S    
C37   H17   S    
C19   O24   S    
N1    Zn1   S    
C30   O17   D    
C31   O18   D    
C3    C7    D    
C34   O27   A    
C13   C17   D    
C35   H13   S    
C8    C30   S    
O6    Zn3   S    
H24   N1    S    
C24   H2    S    
C15   H12   S    
C23   O30   A    
H27   N4    S    
C41   O6    A    
O2    Zn1   S    
C18   C20   S    
C37   O24   S    
C9    C31   S    
C10   C32   S    
C32   O19   D    
O4    Zn2   S    
H26   N3    S    
O7    Zn4   S    
C36   O22   S    
C18   O22   S    
C35   O21   D    
C24   O10   D    
C29   O16   D    
C27   H5    S    
