data_mof_unit_63257.cif
_audit_creation_date              2012-12-10T20:59:06-0500
_audit_creation_method            fapswitch 2.2
_symmetry_space_group_name_H-M    P1
_symmetry_Int_Tables_number       1
_space_group_crystal_system       triclinic
_cell_length_a                    13.649012
_cell_length_b                    15.090322
_cell_length_c                    15.851063
_cell_angle_alpha                 90.022841
_cell_angle_beta                  89.980985
_cell_angle_gamma                 83.110945
_cell_volume                      3241.23998091

loop_
_atom_site_label
_atom_site_type_symbol
_atom_type_description
_atom_site_fract_x
_atom_site_fract_y
_atom_site_fract_z
_atom_type_partial_charge
C1    C     C_R   0.499977 0.500035 0.661120 0.904872
C2    C     C_R   0.547629 0.947330 0.563743 -0.271569
C3    C     C_1   0.500131 0.192899 0.500243 0.190823
C4    C     C_1   0.499869 0.807101 0.499757 0.190823
C5    C     C_R   0.686226 0.484235 0.499972 0.894441
C6    C     C_R   0.313774 0.515765 0.500028 0.894440
C7    C     C_1   0.210191 0.527829 0.500050 -0.157099
C8    C     C_1   0.789809 0.472171 0.499950 -0.157099
C9    C     C_2   0.018883 0.538463 0.500073 -0.153232
C10   C     C_2   0.981117 0.461536 0.499927 -0.153232
C11   C     C_1   0.877434 0.464232 0.499934 0.029007
C12   C     C_R   0.500023 0.499965 0.338880 0.904871
C13   C     C_1   0.122566 0.535768 0.500066 0.029007
C14   C     C_R   0.506351 0.418830 0.043685 -0.171731
C15   C     C_R   0.493649 0.581170 0.956314 -0.171731
C16   C     C_R   0.500002 0.499970 0.086854 0.156994
C17   C     C_R   0.499997 0.500030 0.913146 0.156994
C18   C     C_R   0.493650 0.581140 0.043800 -0.160706
C19   C     C_R   0.506349 0.418860 0.956200 -0.160706
C20   C     C_1   0.500011 0.499943 0.175640 -0.053163
C21   C     C_1   0.499989 0.500057 0.824360 -0.053163
C22   C     C_1   0.499982 0.500061 0.749521 -0.154513
C23   C     C_1   0.500018 0.499939 0.250479 -0.154513
C24   C     C_R   0.548335 0.040948 0.564751 0.432932
C25   C     C_R   0.451664 0.959051 0.435249 0.432932
C26   C     C_R   0.500466 0.094946 0.500678 -0.088429
C27   C     C_R   0.499534 0.905054 0.499322 -0.088430
C28   C     C_R   0.452371 0.052670 0.436257 -0.271569
Cl1   Cl    Cl    0.610104 0.088683 0.647525 -0.589763
Cl2   Cl    Cl    0.389896 0.911317 0.352475 -0.589763
H1    H     H_    0.027237 0.397558 0.499801 0.169624
H2    H     H_    0.972763 0.602442 0.500199 0.169624
H3    H     H_    0.511258 0.356124 0.922246 0.161372
H4    H     H_    0.488741 0.643876 0.077754 0.161372
H5    H     H_    0.511262 0.356071 0.077549 0.154101
H6    H     H_    0.488737 0.643929 0.922451 0.154101
H7    H     H_    0.584908 0.907437 0.613637 0.190298
H8    H     H_    0.415092 0.092563 0.386363 0.190298
N1    N     N_1   0.500030 0.729450 0.499980 -0.079913
N2    N     N_1   0.499970 0.270550 0.500020 -0.079913
O1    O     O_R   0.500000 0.426350 0.621980 -0.593480
O2    O     O_R   0.500000 0.573650 0.378020 -0.593479
O3    O     O_R   0.499960 0.573690 0.621980 -0.615059
O4    O     O_R   0.500040 0.426310 0.378020 -0.615059
O5    O     O_R   0.640370 0.415730 0.499980 -0.598222
O6    O     O_R   0.359630 0.584270 0.500020 -0.598222
O7    O     O_R   0.640330 0.563060 0.499980 -0.610043
O8    O     O_R   0.359670 0.436940 0.500020 -0.610043
Zn1   Zn    Zn3+2 0.500030 0.401620 0.500000 1.012458
Zn2   Zn    Zn3+2 0.499970 0.598380 0.500000 1.012458

loop_
_geom_bond_atom_site_label_1
_geom_bond_atom_site_label_2
_ccdc_geom_bond_type
O4    Zn1   S    
C15   C18   A    
C4    N1    T    
O3    Zn2   S    
C6    C7    S    
O5    Zn1   S    
C5    C8    S    
C18   H4    S    
C9    C10   D    
O6    Zn2   S    
C26   C28   A    
C2    H7    S    
C20   C23   T    
C28   H8    S    
C16   C20   S    
N1    Zn2   S    
C1    C22   S    
C12   O4    A    
C21   C22   T    
C25   C28   A    
C5    O7    A    
C12   C23   S    
C2    C27   A    
C6    O8    A    
O2    Zn2   S    
C8    C11   T    
C14   C19   A    
O1    Zn1   S    
O8    Zn1   S    
C17   C19   A    
C24   C26   A    
C3    N2    T    
O7    Zn2   S    
C2    C24   A    
C14   C16   A    
C25   C27   A    
C10   C11   S    
N2    Zn1   S    
C15   H6    S    
C7    C13   T    
C4    C27   S    
C16   C18   A    
C19   H3    S    
C1    O1    A    
C14   H5    S    
C15   C17   A    
C9    C13   S    
C24   Cl1   S    
C25   Cl2   S    
C12   O2    A    
C6    O6    A    
C9    H2    S    
C5    O5    A    
C10   H1    S    
C1    O3    A    
C3    C26   S    
C17   C21   S    
