data_mof_unit_63944.cif
_audit_creation_date              2012-12-10T17:17:22-0500
_audit_creation_method            fapswitch 2.2
_symmetry_space_group_name_H-M    P1
_symmetry_Int_Tables_number       1
_space_group_crystal_system       triclinic
_cell_length_a                    18.773586
_cell_length_b                    18.759211
_cell_length_c                    18.775128
_cell_angle_alpha                 109.40434
_cell_angle_beta                  109.35426
_cell_angle_gamma                 109.403459
_cell_volume                      5105.80215888

loop_
_atom_site_label
_atom_site_type_symbol
_atom_type_description
_atom_site_fract_x
_atom_site_fract_y
_atom_site_fract_z
_atom_type_partial_charge
C1    C     C_R   0.119039 0.118856 0.500050 0.768130
C2    C     C_R   0.263504 0.004262 0.675793 0.095560
C3    C     C_R   0.191561 0.004791 0.684664 -0.100488
C4    C     C_R   0.183370 0.002216 0.755175 -0.201248
C5    C     C_R   0.244771 0.997716 0.816586 -0.201237
C6    C     C_R   0.315338 0.995219 0.808458 -0.100506
C7    C     C_R   0.178481 0.178877 0.421095 -0.176393
C8    C     C_R   0.241851 0.243790 0.421155 -0.177248
C9    C     C_R   0.314449 0.313957 0.500155 -0.012692
C10   C     C_R   0.322927 0.319723 0.579128 -0.174656
C11   C     C_R   0.258083 0.256328 0.579129 -0.179067
C12   C     C_R   0.121235 0.002287 0.618622 0.784224
C13   C     C_R   0.186132 0.185569 0.500095 -0.010651
C14   C     C_R   0.742886 0.920921 0.242660 -0.176066
C15   C     C_R   0.678033 0.920907 0.179346 -0.176020
C16   C     C_R   0.685601 0.000006 0.186110 -0.012209
C17   C     C_R   0.757335 0.079117 0.257154 -0.176064
C18   C     C_R   0.820661 0.079130 0.321993 -0.176034
C19   C     C_R   0.813921 0.000032 0.314403 -0.012216
C20   C     C_R   0.821038 0.741936 0.499015 -0.174961
C21   C     C_R   0.757589 0.678521 0.500372 -0.176190
C22   C     C_R   0.685589 0.685841 0.499774 -0.010671
C23   C     C_R   0.881055 0.881116 0.500047 0.783089
C24   C     C_R   0.677861 0.757416 0.499296 -0.176568
C25   C     C_R   0.742834 0.822350 0.500963 -0.177311
C26   C     C_R   0.814101 0.814283 0.500086 -0.012306
C27   C     C_R   0.499993 0.881218 0.881029 0.768163
C28   C     C_R   0.381380 0.997742 0.878802 0.784190
C29   C     C_R   0.499908 0.118901 0.118965 0.782978
C30   C     C_R   0.618866 0.000027 0.119047 0.779804
C31   C     C_R   0.499964 0.619055 0.618931 0.778859
C32   C     C_R   0.381173 0.381095 0.500141 0.778827
C33   C     C_R   0.500073 0.381175 0.381242 0.778215
C34   C     C_R   0.880991 0.000013 0.381133 0.779798
C35   C     C_R   0.618820 0.619002 0.499985 0.778334
C36   C     C_R   0.578990 0.821355 0.821492 -0.176394
C37   C     C_R   0.578949 0.756458 0.758132 -0.177331
C38   C     C_R   0.499938 0.686167 0.685652 -0.012527
C39   C     C_R   0.420940 0.680253 0.677276 -0.174713
C40   C     C_R   0.420928 0.743634 0.742113 -0.179009
C41   C     C_R   0.499967 0.814522 0.813947 -0.010749
C42   C     C_R   0.500924 0.258098 0.178967 -0.174834
C43   C     C_R   0.499601 0.321552 0.242422 -0.176137
C44   C     C_R   0.500232 0.314281 0.314448 -0.010790
C45   C     C_R   0.277286 0.013292 0.608863 -0.171292
C46   C     C_R   0.500687 0.242696 0.322174 -0.176450
C47   C     C_R   0.498980 0.177720 0.257193 -0.177266
C48   C     C_R   0.499844 0.185748 0.185908 -0.012422
C49   C     C_R   0.345712 0.007472 0.598590 -0.136483
C50   C     C_R   0.401559 0.992706 0.654437 -0.136515
C51   C     C_R   0.391244 0.986839 0.722823 -0.171242
C52   C     C_R   0.324259 0.995802 0.736555 0.095578
Cu1   Cu    Cu3+1 0.999980 0.061790 0.561790 0.949299
Cu2   Cu    Cu3+1 0.000020 0.938210 0.438210 0.946562
Cu3   Cu    Cu3+1 0.438200 0.938230 0.000040 0.949300
Cu4   Cu    Cu3+1 0.561800 0.061850 0.000040 0.946530
Cu5   Cu    Cu3+1 0.438190 0.500100 0.438300 0.949277
Cu6   Cu    Cu3+1 0.561810 0.500080 0.561880 0.949276
H1    H     H_    0.128381 0.002499 0.762103 0.156068
H2    H     H_    0.264589 0.261643 0.640478 0.139836
H3    H     H_    0.737039 0.859454 0.236506 0.140503
H4    H     H_    0.622900 0.859438 0.124411 0.140553
H5    H     H_    0.763473 0.140584 0.263017 0.140500
H6    H     H_    0.875588 0.140600 0.377134 0.140552
H7    H     H_    0.876157 0.735425 0.498640 0.141342
H8    H     H_    0.763825 0.623152 0.500429 0.140462
H9    H     H_    0.622500 0.763670 0.499205 0.139390
H10   H     H_    0.736867 0.877976 0.501410 0.139720
H11   H     H_    0.640373 0.875925 0.877055 0.140536
H12   H     H_    0.236459 0.026095 0.564626 0.148804
H13   H     H_    0.640338 0.761694 0.764854 0.141360
H14   H     H_    0.359545 0.625918 0.621523 0.141484
H15   H     H_    0.359560 0.738207 0.735688 0.139943
H16   H     H_    0.501291 0.264591 0.123843 0.141318
H17   H     H_    0.500798 0.236466 0.377546 0.139367
H18   H     H_    0.498527 0.122101 0.263175 0.139692
H19   H     H_    0.355022 0.013794 0.546645 0.137061
H20   H     H_    0.453542 0.986430 0.645166 0.137054
H21   H     H_    0.435489 0.974044 0.763658 0.148830
H22   H     H_    0.237796 0.997380 0.871537 0.156085
H23   H     H_    0.122828 0.124406 0.359717 0.140437
H24   H     H_    0.235040 0.238660 0.359782 0.141448
H25   H     H_    0.378768 0.373955 0.640518 0.141565
O1    O     O_R   0.090150 0.142360 0.552170 -0.583990
O2    O     O_R   0.552230 0.962090 0.909900 -0.592701
O3    O     O_R   0.357630 0.947820 0.909860 -0.582884
O4    O     O_R   0.462000 0.052220 0.909860 -0.587912
O5    O     O_R   0.447770 0.037990 0.090190 -0.584573
O6    O     O_R   0.552150 0.142390 0.090190 -0.583935
O7    O     O_R   0.538000 0.947860 0.090220 -0.585422
O8    O     O_R   0.642370 0.052260 0.090230 -0.584443
O9    O     O_R   0.447810 0.590260 0.538090 -0.585900
O10   O     O_R   0.552200 0.590240 0.642450 -0.585127
O11   O     O_R   0.357640 0.409920 0.447920 -0.585158
O12   O     O_R   0.090180 0.037990 0.447810 -0.592648
O13   O     O_R   0.462030 0.409900 0.552280 -0.585919
O14   O     O_R   0.447800 0.409940 0.357730 -0.585180
O15   O     O_R   0.552190 0.409920 0.462090 -0.585488
O16   O     O_R   0.537970 0.590270 0.447900 -0.585512
O17   O     O_R   0.642360 0.590260 0.552260 -0.585236
O18   O     O_R   0.090170 0.052200 0.642360 -0.582897
O19   O     O_R   0.090200 0.947840 0.538010 -0.587905
O20   O     O_R   0.909820 0.962010 0.552190 -0.584627
O21   O     O_R   0.909850 0.857640 0.447830 -0.583991
O22   O     O_R   0.909800 0.052160 0.461990 -0.585440
O23   O     O_R   0.909830 0.947800 0.357640 -0.584457
O24   O     O_R   0.447850 0.857690 0.909890 -0.584027
H26   H     H_    0.499557 0.376918 0.236174 0.140433

loop_
_geom_bond_atom_site_label_1
_geom_bond_atom_site_label_2
_ccdc_geom_bond_type
C7    C13   A    
C32   O11   A    
Cu3   Cu4   S    
Cu5   O9    S    
C21   H8    S    
Cu6   O15   S    
C30   O7    A    
C29   O6    A    
Cu4   O2    S    
C7    C8    A    
Cu1   Cu2   S    
C1    O1    A    
C22   C35   S    
Cu1   O1    S    
C8    H24   S    
Cu2   O21   S    
C36   C37   A    
Cu6   O10   S    
C47   H18   S    
C18   C19   A    
Cu3   O7    S    
C38   C39   A    
C16   C30   S    
C15   C16   A    
Cu5   O16   S    
C10   H25   S    
C40   H15   S    
C33   O15   A    
C23   C26   S    
Cu3   O5    S    
C27   O2    A    
Cu6   O13   S    
C29   O5    A    
C3    C12   S    
C9    C32   S    
Cu4   O8    S    
C23   O20   A    
C47   C48   A    
Cu1   O18   S    
C8    C9    A    
C39   H14   S    
C27   O24   A    
C9    C10   A    
C24   H9    S    
C21   C22   A    
C34   O22   A    
C36   C41   A    
C25   H10   S    
C35   O16   A    
C50   H20   S    
C46   H17   S    
C44   C46   A    
C50   C51   A    
C2    C45   A    
C6    C28   S    
C42   H16   S    
Cu2   O23   S    
C29   C48   S    
C51   C52   A    
C34   O23   A    
C20   H7    S    
Cu6   O17   S    
C24   C25   A    
C39   C40   A    
C16   C17   A    
Cu4   O4    S    
C25   C26   A    
C31   O10   A    
C14   H3    S    
Cu3   O24   S    
C43   C44   A    
C12   O19   A    
C37   C38   A    
C27   C41   S    
C23   O21   A    
C45   C49   A    
C1    O12   A    
Cu5   O14   S    
C28   O4    A    
C17   C18   A    
C42   C48   A    
C5    H22   S    
Cu2   O12   S    
C2    C52   A    
Cu4   O6    S    
C7    H23   S    
C31   O9    A    
Cu5   O11   S    
C37   H13   S    
C28   O3    A    
C22   C24   A    
C1    C13   S    
C42   C43   A    
C3    C4    A    
C36   H11   S    
C46   C47   A    
C40   C41   A    
C32   O13   A    
C45   H12   S    
C33   C44   S    
C14   C19   A    
Cu2   O19   S    
C30   O8    A    
C19   C34   S    
C31   C38   S    
Cu3   O3    S    
C2    C3    A    
C12   O18   A    
C17   H5    S    
C11   C13   A    
C18   H6    S    
Cu5   Cu6   S    
C5    C6    A    
C20   C26   A    
Cu1   O20   S    
C35   O17   A    
C4    H1    S    
C15   H4    S    
C49   H19   S    
C33   O14   A    
C43   H26   S    
C51   H21   S    
C10   C11   A    
Cu1   O22   S    
C4    C5    A    
C20   C21   A    
C49   C50   A    
C14   C15   A    
C6    C52   A    
C11   H2    S    
