data_mof_unit_58340.cif
_audit_creation_date              2013-03-05T16:32:33-0500
_audit_creation_method            fapswitch 2.2
_symmetry_space_group_name_H-M    P1
_symmetry_Int_Tables_number       1
_space_group_crystal_system       triclinic
_cell_length_a                    15.884951
_cell_length_b                    10.859582
_cell_length_c                    9.601335
_cell_angle_alpha                 89.065257
_cell_angle_beta                  89.316522
_cell_angle_gamma                 91.026746
_cell_volume                      1655.65797074

loop_
_atom_site_label
_atom_site_type_symbol
_atom_site_description
_atom_site_fract_x
_atom_site_fract_y
_atom_site_fract_z
_atom_type_partial_charge
O1    O     O_R   0.500000 0.319640 0.618810 -0.526374
O2    O     O_R   0.500010 0.319680 0.381230 -0.578949
C1    C     C_R   0.505940 0.262734 0.500974 0.893781
O3    O     O_R   0.379070 0.499970 0.618770 -0.517728
O4    O     O_R   0.379080 0.500010 0.381190 -0.587554
C2    C     C_R   0.340122 0.500066 0.500660 0.835400
Cu1   Cu    Cu3+1 0.500000 0.499980 0.640670 1.082779
Cu2   Cu    Cu3+1 0.500000 0.500020 0.359330 1.042714
O5    O     O_R   0.499990 0.680320 0.618770 -0.578280
O6    O     O_R   0.500000 0.680360 0.381190 -0.565377
O7    O     O_R   0.620920 0.499990 0.618810 -0.583810
O8    O     O_R   0.620930 0.500030 0.381230 -0.569735
C3    C     C_R   0.500099 0.737384 0.499046 0.817683
C4    C     C_R   0.659873 0.499730 0.499097 0.838531
C5    C     C_3   0.971573 0.385734 0.529323 0.230904
C6    C     C_3   0.029539 0.416271 0.403477 -0.167893
C7    C     C_1   0.250705 0.499953 0.501866 -0.053221
C8    C     C_1   0.749254 0.498301 0.496359 -0.001764
C9    C     C_3   0.027023 0.464934 0.625962 -0.197610
C10   C     C_3   0.083980 0.497998 0.498065 -0.049798
C11   C     C_3   0.972499 0.576511 0.586935 0.285413
C12   C     C_3   0.916123 0.496430 0.494264 -0.124413
C13   C     C_3   0.030698 0.612152 0.461950 -0.225684
C14   C     C_3   0.975089 0.528528 0.370223 0.226884
C15   C     C_1   0.175356 0.499437 0.501018 0.145094
C16   C     C_1   0.824600 0.497112 0.494524 0.225004
H1    H     H_    0.054796 0.706122 0.434474 0.213741
H2    H     H_    0.048114 0.438983 0.732111 0.224350
C17   C     C_R   0.488885 0.061361 0.622633 0.001362
C18   C     C_R   0.515316 0.128840 0.503208 -0.131374
C19   C     C_R   0.543338 0.064366 0.384030 -0.085337
C20   C     C_R   0.530112 0.936555 0.379612 -0.163337
H3    H     H_    0.550845 0.886431 0.289192 0.247523
C21   C     C_R   0.500267 0.870806 0.497171 -0.147945
C22   C     C_R   0.480633 0.933922 0.618006 0.079398
C23   C     C_3   0.517788 0.912575 0.758359 0.077448
C24   C     C_3   0.530499 0.052957 0.764463 -0.238292
H4    H     H_    0.576566 0.858372 0.753635 0.143373
C25   C     C_R   0.553926 0.575908 0.071320 0.221402
N1    N     N_R   0.500530 0.500930 0.147930 -0.228460
C26   C     C_R   0.437667 0.442986 0.078108 -0.030706
H5    H     H_    0.388678 0.393937 0.136692 0.167868
C27   C     C_R   0.435280 0.446090 0.929957 0.454134
N2    N     N_R   0.500530 0.500890 0.852020 -0.229469
C28   C     C_R   0.557186 0.569726 0.925428 0.120261
C29   C     C_3   0.652075 0.572382 0.923342 -0.343014
C30   C     C_3   0.647429 0.587090 0.081668 0.069619
H6    H     H_    0.678999 0.653708 0.865295 0.216683
H7    H     H_    0.676137 0.511510 0.143358 0.182595
C31   C     C_2   0.059107 0.325271 0.298659 0.992948
O9    O     O_2   0.007460 0.266879 0.231884 -0.497160
O10   O     O_R   0.145195 0.307810 0.277523 -0.740852
H8    H     H_    0.157087 0.244322 0.203911 0.360615
C32   C     C_2   0.480454 0.116206 0.877484 1.002458
O11   O     O_2   0.514283 0.193790 0.949777 -0.586371
O12   O     O_R   0.395238 0.086067 0.899598 -0.651239
H9    H     H_    0.369825 0.131162 0.981183 0.351116
C33   C     C_2   0.623507 0.089992 0.761048 0.850278
O13   O     O_2   0.674283 0.029171 0.826263 -0.516780
O14   O     O_R   0.651096 0.194690 0.685946 -0.738785
H10   H     H_    0.714233 0.208300 0.690409 0.378816
N3    N     N_R   0.361271 0.396188 0.866409 0.118265
O15   O     O_R   0.287502 0.424241 0.915615 -0.332103
O16   O     O_R   0.366313 0.307323 0.778137 -0.330720
C34   C     C_2   0.693457 0.452729 0.888706 0.954645
O17   O     O_2   0.755694 0.453466 0.812706 -0.538784
O18   O     O_R   0.664868 0.342828 0.952055 -0.723959
H11   H     H_    0.704045 0.272203 0.933840 0.356187
N4    N     N_R   0.674242 0.709575 0.127149 0.166500
O19   O     O_R   0.651521 0.808504 0.060254 -0.272259
O20   O     O_R   0.720394 0.720310 0.237391 -0.298897
N5    N     N_R   0.941964 0.261378 0.565354 0.176997
O21   O     O_R   0.995916 0.177192 0.597498 -0.265504
O22   O     O_R   0.862260 0.232688 0.561164 -0.312089
N6    N     N_R   0.949280 0.562326 0.229729 0.178416
O23   O     O_R   0.005984 0.591095 0.135375 -0.261967
O24   O     O_R   0.870223 0.559210 0.196257 -0.285749
N7    N     N_R   0.943711 0.665206 0.688552 0.184879
O25   O     O_R   0.998459 0.726084 0.761336 -0.237783
O26   O     O_R   0.863838 0.684624 0.706865 -0.288325
C35   C     C_2   0.598018 0.122149 0.273261 0.952800
O27   O     O_2   0.638927 0.216032 0.295966 -0.551679
O28   O     O_R   0.608759 0.062693 0.146555 -0.674741
H12   H     H_    0.652728 0.105213 0.084586 0.383695
N8    N     N_R   0.457039 0.859045 0.859636 0.174260
O29   O     O_R   0.385935 0.810642 0.819562 -0.281855
O30   O     O_R   0.477543 0.849576 0.990048 -0.313097

loop_
_geom_bond_atom_site_label_1
_geom_bond_atom_site_label_2
_geom_bond_distance
_ccdc_geom_bond_type
C26   H5    1.081950 S    
C4    C8    1.420102 S    
C9    C10   1.550137 S    
C8    C16   1.197094 T    
C27   N2    1.390428 A    
C35   O27   1.223165 D    
Cu1   Cu2   2.701232 S    
C30   H7    1.111956 S    
N8    O29   1.302209 A    
N2    C28   1.368851 A    
Cu1   O7    1.929747 S    
C5    N5    1.456958 S    
C17   C18   1.406456 A    
C23   C24   1.536372 S    
C9    C11   1.545720 S    
C6    C31   1.499277 S    
C18   C19   1.422280 A    
O7    C4    1.298930 A    
N7    O26   1.300254 A    
C10   C15   1.451923 S    
C33   O14   1.397350 S    
C5    C6    1.538574 S    
O12   H9    1.014115 S    
C21   C22   1.392141 A    
N4    O20   1.300339 A    
O5    C3    1.296942 A    
C30   N4    1.464392 S    
N3    O16   1.297638 A    
C32   O11   1.221543 D    
C5    C12   1.538201 S    
O28   H12   1.012234 S    
C34   O18   1.396741 S    
C11   N7    1.457600 S    
C31   O10   1.396838 S    
C13   C14   1.548075 S    
C13   H1    1.110100 S    
C24   C33   1.524059 S    
C6    C10   1.542036 S    
C25   C28   1.403843 A    
C6    C14   1.538778 S    
C11   C12   1.538279 S    
C26   C27   1.423270 A    
O3    Cu1   1.934931 S    
C35   O28   1.396638 S    
C29   H6    1.112754 S    
N8    O30   1.300468 A    
C32   O12   1.399842 S    
O18   H11   1.012415 S    
C29   C34   1.506842 S    
N5    O22   1.299674 A    
C25   N1    1.365376 A    
N7    O25   1.300279 A    
C33   O13   1.223314 D    
C28   C29   1.506954 S    
O14   H10   1.012655 S    
O1    C1    1.301223 A    
C22   C23   1.493905 S    
C20   C21   1.399071 A    
C1    C18   1.464129 S    
C5    C9    1.547538 S    
N6    O23   1.300321 A    
N3    O15   1.301320 A    
C19   C20   1.401466 A    
C10   C13   1.550474 S    
Cu2   O8    1.934929 S    
C31   O9    1.222035 D    
Cu1   N2    2.029545 S    
C9    H2    1.110196 S    
N6    O24   1.299982 A    
C24   C32   1.518098 S    
O3    C2    1.298256 A    
N1    C26   1.360046 A    
O8    C4    1.296163 A    
C11   C13   1.545984 S    
C12   C14   1.537982 S    
O10   H8    1.013877 S    
C25   C30   1.492706 S    
Cu1   O5    1.966263 S    
C2    C7    1.420272 S    
C29   C30   1.532147 S    
O1    Cu1   1.973033 S    
O2    Cu2   1.966261 S    
N5    O21   1.300285 A    
O6    C3    1.298773 A    
O4    Cu2   1.929750 S    
C14   N6    1.457684 S    
C23   N8    1.467567 S    
C17   C22   1.389267 A    
C19   C35   1.488610 S    
C7    C15   1.196963 T    
C20   H3    1.083268 S    
C23   H4    1.113483 S    
O2    C1    1.301765 A    
C3    C21   1.448680 S    
O4    C2    1.296861 A    
N4    O19   1.301497 A    
Cu2   O6    1.973033 S    
C34   O17   1.221568 D    
C12   C16   1.453963 S    
C17   C24   1.522908 S    
Cu2   N1    2.029502 S    
C27   N3    1.432872 S    
