data_mof_unit_57006.cif
_audit_creation_date              2012-12-10T17:49:31-0500
_audit_creation_method            fapswitch 2.2
_symmetry_space_group_name_H-M    P1
_symmetry_Int_Tables_number       1
_space_group_crystal_system       triclinic
_cell_length_a                    14.724834
_cell_length_b                    14.665117
_cell_length_c                    15.869418
_cell_angle_alpha                 75.781258
_cell_angle_beta                  102.450009
_cell_angle_gamma                 114.906456
_cell_volume                      2988.32588281

loop_
_atom_site_label
_atom_site_type_symbol
_atom_type_description
_atom_site_fract_x
_atom_site_fract_y
_atom_site_fract_z
_atom_type_partial_charge
C1    C     C_R   0.880461 0.311584 0.511563 0.835640
C2    C     C_3   0.940081 0.382305 0.066273 0.295020
C3    C     C_3   0.995957 0.494876 0.083593 0.141212
C4    C     C_3   0.106047 0.534514 0.060901 -0.242094
C5    C     C_3   0.103505 0.536202 0.962133 -0.444959
C6    C     C_1   0.998677 0.497152 0.176031 -0.071963
C7    C     C_1   0.994370 0.492819 0.825227 -0.053246
C8    C     C_1   0.996349 0.495552 0.749500 -0.141088
C9    C     C_R   0.813501 0.201682 0.517057 -0.267276
C10   C     C_R   0.188555 0.796116 0.497310 -0.151937
C11   C     C_R   0.787171 0.021435 0.551789 -0.110406
C12   C     C_R   0.998995 0.498815 0.659724 0.827179
C13   C     C_R   0.852636 0.124809 0.536739 0.334683
C14   C     C_R   0.708351 0.173503 0.502383 0.339815
C15   C     C_R   0.642503 0.071376 0.528492 -0.085793
C16   C     C_R   0.681006 0.993124 0.546638 -0.115838
C17   C     C_R   0.537860 0.045165 0.530772 0.097539
C18   C     C_R   0.469332 0.942337 0.533169 -0.002981
C19   C     C_R   0.507962 0.868124 0.538340 -0.298946
C20   C     C_R   0.611603 0.889748 0.554592 0.466139
C21   C     C_R   0.499027 0.118701 0.530249 -0.133252
C22   C     C_R   0.396448 0.097204 0.509820 -0.261055
C23   C     C_R   0.119615 0.688054 0.491263 0.803604
C24   C     C_R   0.328681 0.998286 0.501237 0.135520
C25   C     C_R   0.363262 0.918019 0.523450 0.066478
C26   C     C_R   0.226297 0.978199 0.474615 -0.263417
C27   C     C_R   0.156944 0.878895 0.467913 -0.026089
C28   C     C_R   0.290026 0.817149 0.536089 -0.089660
C29   C     C_R   0.728077 0.685572 0.372736 -0.276428
C30   C     C_R   0.801901 0.646706 0.384613 0.109368
C31   C     C_R   0.713731 0.505911 0.487651 0.016792
C32   C     C_R   0.637655 0.543235 0.482022 -0.037172
C33   C     C_R   0.647035 0.635314 0.422149 0.152943
C34   C     C_R   0.000230 0.499933 0.340503 0.816425
C35   C     C_R   0.552117 0.492730 0.530899 0.017623
C36   C     C_R   0.472047 0.529274 0.508125 0.059528
C37   C     C_R   0.492463 0.627321 0.456625 -0.201055
C38   C     C_R   0.576814 0.678143 0.413207 -0.124011
C39   C     C_R   0.544184 0.411825 0.604087 -0.071376
C40   C     C_R   0.454306 0.359110 0.641128 -0.203001
C41   C     C_R   0.370675 0.385439 0.610594 0.024868
C42   C     C_R   0.377484 0.470834 0.543143 -0.111855
C43   C     C_R   0.280189 0.327709 0.648109 0.331583
C44   C     C_R   0.200241 0.359882 0.622967 -0.016966
C45   C     C_3   0.939866 0.380624 0.967636 -0.208886
C46   C     C_R   0.287294 0.490425 0.512340 0.078345
C47   C     C_3   0.938612 0.559091 0.924610 -0.412210
C48   C     C_3   0.942856 0.564477 0.021961 -0.158418
C49   C     C_1   0.000006 0.498702 0.251356 -0.164702
C50   C     C_3   0.993098 0.491383 0.917682 0.174514
Cu1   Cu    Cu3+1 0.081750 0.475690 0.522550 0.957988
Cu2   Cu    Cu3+1 0.918250 0.524310 0.477450 0.970226
H1    H     H_    0.983905 0.335483 0.965662 0.085422
H2    H     H_    0.985329 0.337562 0.105638 0.040366
H3    H     H_    0.370051 0.157941 0.501852 0.139370
H4    H     H_    0.458202 0.792368 0.527210 0.149277
H5    H     H_    0.546752 0.194035 0.544420 0.197660
H6    H     H_    0.200843 0.040669 0.457127 0.148336
H7    H     H_    0.587264 0.752096 0.372431 0.148479
H8    H     H_    0.132401 0.318711 0.654424 0.171394
H9    H     H_    0.450580 0.297496 0.696390 0.191987
H10   H     H_    0.735446 0.755709 0.326658 0.144815
H11   H     H_    0.866239 0.686501 0.348625 0.144574
H12   H     H_    0.709601 0.433137 0.525139 0.174062
H13   H     H_    0.975655 0.637737 0.888180 0.166770
H14   H     H_    0.446871 0.669670 0.452459 0.146934
H15   H     H_    0.859362 0.528899 0.892088 0.187354
H16   H     H_    0.988095 0.644878 0.031276 0.130993
H17   H     H_    0.145263 0.490684 0.955722 0.173224
H18   H     H_    0.142529 0.615234 0.927049 0.192996
H19   H     H_    0.141851 0.481353 0.100150 0.132499
N1    N     N_R   0.795410 0.560790 0.443550 -0.195206
N2    N     N_R   0.204590 0.439170 0.556520 -0.229781
O1    O     O_R   0.977910 0.338120 0.529720 -0.573645
O2    O     O_R   0.839850 0.379180 0.491640 -0.542260
O3    O     O_R   0.069060 0.479460 0.639610 -0.573409
O4    O     O_R   0.931000 0.520530 0.601530 -0.563659
O5    O     O_R   0.160150 0.620820 0.508360 -0.563656
O6    O     O_R   0.022090 0.661880 0.470280 -0.577333
O7    O     O_R   0.069000 0.479470 0.398470 -0.581332
O8    O     O_R   0.930940 0.520540 0.360390 -0.584416
O9    O     O_3   0.839718 0.339946 0.088282 -0.587306
C51   C     C_3   0.827769 0.267677 0.167160 0.056305
H20   H     H_    0.765613 0.267837 0.195954 0.166783
H21   H     H_    0.895487 0.287475 0.217398 0.107944
C52   C     C_3   0.798285 0.160472 0.148674 -0.348292
H22   H     H_    0.734663 0.144710 0.094610 0.245431
H23   H     H_    0.863436 0.155899 0.127918 0.202567
C53   C     C_3   0.765985 0.079452 0.229811 -0.921227
H24   H     H_    0.827325 0.094678 0.285511 0.255048
H25   H     H_    0.748458 0.002931 0.215554 0.264363
H26   H     H_    0.697483 0.079129 0.248805 0.251180
C54   C     C_1   0.170806 0.636271 0.083900 0.281428
N3    N     N_1   0.221444 0.715839 0.101976 -0.276690
O10   O     O_3   0.644747 0.811553 0.564057 -0.615504
C55   C     C_3   0.610840 0.734990 0.637810 0.075112
H27   H     H_    0.627934 0.669435 0.633666 0.187755
H28   H     H_    0.527769 0.704629 0.637402 0.150208
C56   C     C_3   0.666090 0.771652 0.724549 -0.385916
H29   H     H_    0.748837 0.798916 0.724869 0.237002
H30   H     H_    0.648741 0.835886 0.731818 0.215884
C57   C     C_3   0.634362 0.685607 0.802572 -0.859697
H31   H     H_    0.551919 0.657858 0.804536 0.266864
H32   H     H_    0.675228 0.714149 0.864331 0.258231
H33   H     H_    0.652996 0.621142 0.798036 0.259427
C58   C     C_1   0.312844 0.741476 0.605630 0.251343
N4    N     N_1   0.330722 0.681245 0.661206 -0.293457
C59   C     C_1   0.053578 0.865762 0.436338 0.270625
N5    N     N_1   0.971059 0.857100 0.411282 -0.309047
C60   C     C_1   0.833064 0.947096 0.573065 0.389042
N6    N     N_1   0.870440 0.888325 0.589748 -0.289782
O11   O     O_3   0.955732 0.149234 0.544493 -0.607683
C61   C     C_3   0.989190 0.182117 0.460545 0.075706
H34   H     H_    0.063463 0.247268 0.465712 0.181206
H35   H     H_    0.938690 0.210682 0.407925 0.100368
C62   C     C_3   0.004025 0.096891 0.433156 -0.365906
H36   H     H_    0.049930 0.064847 0.487324 0.226455
H37   H     H_    0.929388 0.034981 0.419495 0.232127
C63   C     C_3   0.057260 0.136696 0.351080 -0.932554
H38   H     H_    0.014367 0.171938 0.296595 0.255020
H39   H     H_    0.063015 0.072667 0.330160 0.272617
H40   H     H_    0.134646 0.194432 0.364887 0.248155
O12   O     O_3   0.669771 0.245983 0.458210 -0.610192
C64   C     C_3   0.657491 0.247527 0.367252 0.074695
H41   H     H_    0.608592 0.170303 0.350974 0.139022
H42   H     H_    0.732310 0.274023 0.344208 0.122951
C65   C     C_3   0.607057 0.321617 0.319935 -0.330871
H43   H     H_    0.531756 0.294759 0.341831 0.219489
H44   H     H_    0.653819 0.398477 0.337090 0.235282
C66   C     C_3   0.594098 0.330070 0.220725 -0.878434
H45   H     H_    0.669007 0.363519 0.197059 0.273842
H46   H     H_    0.553186 0.380779 0.188888 0.264120
H47   H     H_    0.550048 0.253743 0.201764 0.254960
C67   C     C_1   0.837246 0.327738 0.923887 0.343792
N7    N     N_1   0.756958 0.286137 0.889983 -0.259756
C68   C     C_1   0.275280 0.553351 0.428644 0.304131
N8    N     N_1   0.266392 0.603947 0.361289 -0.293276
C69   C     C_1   0.629359 0.389639 0.653393 0.202431
N9    N     N_1   0.697265 0.371645 0.693521 -0.261271
O13   O     O_3   0.270162 0.241534 0.711436 -0.609732
C70   C     C_3   0.226845 0.155587 0.669190 0.021234
H48   H     H_    0.278096 0.160099 0.624474 0.139784
H49   H     H_    0.152334 0.150229 0.630734 0.169470
C71   C     C_3   0.210334 0.058821 0.738218 -0.299520
H50   H     H_    0.283214 0.064157 0.779352 0.229657
H51   H     H_    0.156420 0.051723 0.781227 0.228171
C72   C     C_3   0.168413 0.963769 0.695926 -0.901337
H52   H     H_    0.097154 0.958362 0.652041 0.270308
H53   H     H_    0.152628 0.894570 0.747680 0.257037
H54   H     H_    0.224417 0.966257 0.657595 0.264648
C73   C     C_1   0.841098 0.540010 0.042664 0.332385
N10   N     N_1   0.761409 0.521119 0.058727 -0.282923

loop_
_geom_bond_atom_site_label_1
_geom_bond_atom_site_label_2
_ccdc_geom_bond_type
C19   H4    S    
C10   C27   A    
C54   N3    T    
C57   H31   S    
C41   C42   A    
C36   C42   A    
O10   C55   S    
Cu1   O1    S    
C9    C14   A    
C3    C6    S    
C7    C8    T    
C3    C4    S    
C59   N5    T    
C25   C28   A    
C45   C67   S    
C37   C38   A    
C1    O1    A    
C27   C59   S    
C36   C37   A    
C72   H53   S    
C24   C26   A    
C13   O11   S    
C70   H49   S    
C52   H23   S    
C58   N4    T    
C15   C16   A    
C55   C56   S    
C29   C33   A    
C3    C48   S    
C62   H36   S    
C57   H33   S    
C18   C19   A    
C42   C46   A    
C9    C13   A    
Cu1   O7    S    
C5    H17   S    
C72   H52   S    
C34   O7    A    
C60   N6    T    
C31   C32   A    
C28   C58   S    
C55   H28   S    
C47   C48   S    
C73   N10   T    
C66   H46   S    
C34   O8    A    
C53   H25   S    
Cu2   O6    S    
C8    C12   S    
C61   C62   S    
Cu2   O2    S    
C39   C69   S    
C45   H1    S    
C23   O5    A    
C21   C22   A    
C12   O4    A    
C11   C60   S    
C41   C43   A    
C44   N2    A    
C18   C25   A    
C71   C72   S    
C47   H15   S    
O11   C61   S    
C47   C50   S    
C63   H39   S    
C2    C45   S    
Cu1   Cu2   S    
C1    O2    A    
C32   C35   A    
O12   C64   S    
C72   H54   S    
C1    C9    S    
C24   C25   A    
C71   H51   S    
C2    H2    S    
C70   C71   S    
C39   C40   A    
C52   H22   S    
C71   H50   S    
C52   C53   S    
C17   C21   A    
C40   H9    S    
C4    C54   S    
C35   C36   A    
C35   C39   A    
C43   C44   A    
C65   H44   S    
C21   H5    S    
C29   C30   A    
Cu2   N1    S    
C11   C16   A    
C51   H20   S    
C16   C20   A    
C55   H27   S    
C56   C57   S    
C17   C18   A    
C26   C27   A    
C43   O13   S    
O13   C70   S    
C53   H26   S    
C57   H32   S    
C26   H6    S    
C67   N7    T    
C64   C65   S    
C40   C41   A    
C56   H30   S    
C20   O10   S    
C12   O3    A    
C22   C24   A    
C5    C50   S    
C2    O9    S    
C66   H47   S    
C37   H14   S    
Cu2   O4    S    
C64   H42   S    
C61   H34   S    
C63   H40   S    
C10   C28   A    
C15   C17   A    
C29   H10   S    
C31   N1    A    
C34   C49   S    
C14   O12   S    
C51   H21   S    
C31   H12   S    
Cu1   N2    S    
C7    C50   S    
C4    C5    S    
C48   H16   S    
C5    H18   S    
C30   N1    A    
C63   H38   S    
C62   C63   S    
C22   H3    S    
C10   C23   S    
C33   C38   A    
C56   H29   S    
C32   C33   A    
C19   C20   A    
C66   H45   S    
C65   C66   S    
C70   H48   S    
C11   C13   A    
C45   C50   S    
C44   H8    S    
C62   H37   S    
C2    C3    S    
C4    H19   S    
C6    C49   T    
Cu2   O8    S    
Cu1   O5    S    
C69   N9    T    
C46   C68   S    
C38   H7    S    
C51   C52   S    
O9    C51   S    
C48   C73   S    
Cu1   O3    S    
C14   C15   A    
C68   N8    T    
C23   O6    A    
C53   H24   S    
C30   H11   S    
C47   H13   S    
C46   N2    A    
C65   H43   S    
C64   H41   S    
C61   H35   S    
