data_mof_unit_45736.cif
_audit_creation_date              2012-12-10T17:23:32-0500
_audit_creation_method            fapswitch 2.2
_symmetry_space_group_name_H-M    P1
_symmetry_Int_Tables_number       1
_space_group_crystal_system       triclinic
_cell_length_a                    10.221215
_cell_length_b                    10.675402
_cell_length_c                    15.696398
_cell_angle_alpha                 92.345223
_cell_angle_beta                  81.516407
_cell_angle_gamma                 96.66313
_cell_volume                      1682.04528907

loop_
_atom_site_label
_atom_site_type_symbol
_atom_type_description
_atom_site_fract_x
_atom_site_fract_y
_atom_site_fract_z
_atom_type_partial_charge
C1    C     C_R   0.556392 0.732912 0.490900 0.956627
C2    C     C_3   0.539228 0.392349 0.965712 0.305096
C3    C     C_3   0.585599 0.596535 0.965919 0.361340
C4    C     C_3   0.416943 0.405348 0.033649 0.396408
C5    C     C_1   0.499948 0.499379 0.750457 -0.041624
C6    C     C_1   0.500472 0.500957 0.249430 -0.069503
C7    C     C_3   0.376403 0.513253 0.983768 -0.338229
C8    C     C_3   0.626092 0.488604 0.015871 -0.397234
C9    C     C_3   0.500632 0.500012 0.916423 -0.173414
C10   C     C_3   0.501794 0.501792 0.083240 -0.188267
C11   C     C_1   0.500056 0.499411 0.825684 0.188986
C12   C     C_R   0.443465 0.266702 0.501982 0.934329
C13   C     C_1   0.501368 0.501703 0.174101 0.176904
C14   C     C_2   0.587966 0.865695 0.474141 -0.279552
C15   C     C_2   0.411362 0.132222 0.491742 -0.258509
C16   C     C_2   0.488835 0.930242 0.460629 -0.133139
C17   C     C_2   0.509639 0.064703 0.458474 -0.136177
C18   C     C_2   0.924812 0.516308 0.512070 0.345790
C19   C     C_2   0.052655 0.470766 0.528014 0.344788
C20   C     C_R   0.499938 0.499662 0.661695 0.913176
C21   C     C_R   0.499932 0.499859 0.338272 0.861644
C22   C     C_3   0.463266 0.609580 0.033912 0.376962
H1    H     H_    0.727471 0.478673 0.030249 0.230094
H2    H     H_    0.181219 0.120872 0.033545 0.399771
H3    H     H_    0.373710 0.931312 0.035448 0.422252
H4    H     H_    0.681902 0.204239 0.026999 0.357957
H5    H     H_    0.893198 0.161891 0.598153 0.400552
H6    H     H_    0.004761 0.818131 0.628229 0.404566
H7    H     H_    0.275007 0.523121 0.969389 0.240384
H8    H     H_    0.610417 0.107975 0.437568 0.203025
H9    H     H_    0.387678 0.885608 0.460023 0.205108
H10   H     H_    0.311019 0.088309 0.512838 0.201466
H11   H     H_    0.688698 0.911019 0.474950 0.199868
H12   H     H_    0.154533 0.637823 0.509039 0.201875
H13   H     H_    0.870925 0.363674 0.440637 0.191259
H14   H     H_    0.720104 0.882185 0.004900 0.414243
N1    N     N_2   0.842700 0.448880 0.465440 -0.222842
N2    N     N_2   0.157300 0.551120 0.534560 -0.187444
O1    O     O_R   0.431060 0.692470 0.506960 -0.635058
O2    O     O_2   0.626492 0.803368 0.868835 -0.213832
O3    O     O_3   0.770769 0.808180 0.993270 -0.471607
O4    O     O_2   0.377666 0.196618 0.128245 -0.263996
O5    O     O_2   0.196922 0.332224 0.143596 -0.259267
O6    O     O_3   0.234742 0.193811 0.003646 -0.471208
O7    O     O_2   0.280497 0.724480 0.139694 -0.245388
O8    O     O_2   0.513722 0.813844 0.134697 -0.278790
O9    O     O_3   0.392117 0.850913 0.004752 -0.457738
O10   O     O_2   0.484663 0.184033 0.869614 -0.181652
O11   O     O_2   0.717360 0.276635 0.855796 -0.222582
O12   O     O_R   0.568940 0.307530 0.493040 -0.623058
O13   O     O_3   0.618085 0.153028 0.994297 -0.458197
O14   O     O_2   0.103557 0.236648 0.479206 -0.315877
O15   O     O_2   0.126901 0.303034 0.628889 -0.229563
O16   O     O_3   0.889056 0.252429 0.588628 -0.541143
O17   O     O_2   0.903441 0.760120 0.485355 -0.320095
O18   O     O_2   0.768698 0.674392 0.616673 -0.233180
O19   O     O_3   0.014827 0.727186 0.619037 -0.544470
O20   O     O_R   0.651120 0.659650 0.484770 -0.527512
O21   O     O_R   0.348880 0.340350 0.515230 -0.532117
O22   O     O_R   0.389990 0.516420 0.634310 -0.579274
O23   O     O_R   0.610010 0.483580 0.365690 -0.613404
O24   O     O_R   0.610050 0.483600 0.612130 -0.544328
O25   O     O_R   0.389950 0.516400 0.387870 -0.608969
O26   O     O_2   0.805448 0.666924 0.854923 -0.188665
S1    S     S_3+6 0.699307 0.721595 0.917067 0.141884
S2    S     S_3+6 0.303867 0.279033 0.081255 0.093607
S3    S     S_3+6 0.410919 0.753025 0.082198 0.093201
S4    S     S_3+6 0.591288 0.248573 0.917649 0.135788
S5    S     S_3+6 0.047656 0.311754 0.556359 0.062249
S6    S     S_3+6 0.897639 0.671107 0.557939 0.063325
Zn1   Zn    Zn3+2 0.353060 0.521920 0.514810 1.078681
Zn2   Zn    Zn3+2 0.646940 0.478080 0.485190 1.083701

loop_
_geom_bond_atom_site_label_1
_geom_bond_atom_site_label_2
_ccdc_geom_bond_type
C18   S6    S    
C2    C4    S    
C12   O21   A    
O7    S3    D    
C7    H7    S    
C19   N2    D    
O19   S6    S    
C20   O22   A    
C7    C22   S    
H3    O9    S    
O6    S2    S    
O3    S1    S    
C12   C15   S    
O2    S1    D    
O15   S5    D    
O26   S1    D    
C14   H11   S    
H5    O16   S    
O24   Zn2   S    
C15   H10   S    
C6    C21   S    
C5    C20   S    
H12   N2    S    
H6    O19   S    
O10   S4    D    
C16   H9    S    
C4    S2    S    
C17   H8    S    
C9    C11   S    
O20   Zn2   S    
H14   O3    S    
C3    S1    S    
O16   S5    S    
O5    S2    D    
C3    C9    S    
C15   C17   D    
O23   Zn2   S    
O9    S3    S    
O11   S4    D    
C18   N1    D    
O25   Zn1   S    
C5    C11   T    
H4    O13   S    
C2    S4    S    
O13   S4    S    
C4    C7    S    
C20   O24   A    
H2    O6    S    
C14   C16   D    
C22   S3    S    
C19   S5    S    
O17   S6    D    
C21   O25   A    
C1    O1    A    
C4    C10   S    
O18   S6    D    
C7    C9    S    
C1    C14   S    
O8    S3    D    
C8    H1    S    
C8    C10   S    
C3    C8    S    
N1    Zn2   S    
C2    C8    S    
O4    S2    D    
O12   Zn2   S    
N2    Zn1   S    
C18   C19   S    
C3    C22   S    
O1    Zn1   S    
O14   S5    D    
O22   Zn1   S    
H13   N1    S    
C1    O20   A    
C2    C9    S    
C21   O23   A    
C12   O12   A    
C10   C22   S    
O21   Zn1   S    
C16   C17   S    
C6    C13   T    
C10   C13   S    
