data_mof_unit_10861.cif
_audit_creation_date              2012-12-10T16:48:10-0500
_audit_creation_method            fapswitch 2.2
_symmetry_space_group_name_H-M    P1
_symmetry_Int_Tables_number       1
_space_group_crystal_system       triclinic
_cell_length_a                    15.858136
_cell_length_b                    8.720413
_cell_length_c                    7.491076
_cell_angle_alpha                 101.76769
_cell_angle_beta                  94.884104
_cell_angle_gamma                 92.999032
_cell_volume                      1007.90012309

loop_
_atom_site_label
_atom_site_type_symbol
_atom_type_description
_atom_site_fract_x
_atom_site_fract_y
_atom_site_fract_z
_atom_type_partial_charge
C1    C     C_R   0.499224 0.201026 0.456185 0.837823
C2    C     C_R   0.500776 0.798974 0.543814 0.837823
C3    C     C_R   0.340199 0.499772 0.501176 0.805900
C4    C     C_R   0.659801 0.500228 0.498824 0.805900
C5    C     C_2   0.516338 0.040556 0.442489 -0.059414
C6    C     C_2   0.483662 0.959444 0.557511 -0.059414
C7    C     C_3   0.972368 0.396391 0.592635 0.297728
C8    C     C_3   0.027632 0.603608 0.407365 0.297727
C9    C     C_3   0.020607 0.353959 0.420418 0.017975
C10   C     C_3   0.979393 0.646041 0.579582 0.017974
C11   C     C_1   0.250870 0.500099 0.503455 -0.082443
C12   C     C_1   0.749130 0.499901 0.496545 -0.082443
C13   C     C_3   0.035423 0.538277 0.671241 0.275960
C14   C     C_3   0.964577 0.461722 0.328759 0.275960
C15   C     C_3   0.083897 0.498387 0.500440 -0.085452
C16   C     C_3   0.916103 0.501613 0.499560 -0.085453
C17   C     C_1   0.175444 0.499796 0.502966 0.175284
C18   C     C_1   0.824556 0.500204 0.497034 0.175284
Cu1   Cu    Cu3+1 0.509330 0.517380 0.684380 1.104609
Cu2   Cu    Cu3+1 0.490670 0.482620 0.315620 1.104609
N1    N     N_2   0.476600 0.456420 0.038510 0.148527
N2    N     N_2   0.523400 0.543580 0.961490 0.148527
O1    O     O_R   0.506070 0.286130 0.619780 -0.547315
O2    O     O_R   0.493930 0.713870 0.380220 -0.547315
O3    O     O_R   0.490300 0.256770 0.308360 -0.576556
O4    O     O_R   0.509700 0.743230 0.691640 -0.576556
O5    O     O_R   0.386960 0.514660 0.655680 -0.517305
O6    O     O_R   0.613040 0.485340 0.344320 -0.517305
O7    O     O_R   0.371190 0.485310 0.344260 -0.602132
O8    O     O_R   0.628810 0.514690 0.655740 -0.602132
I1    I     I_    0.052531 0.125210 0.293187 -0.178320
I2    I     I_    0.947468 0.874790 0.706812 -0.178320
O9    O     O_3   0.942002 0.290035 0.692621 -0.646510
H1    H     H_    0.993253 0.246959 0.743080 0.361691
O10   O     O_3   0.057998 0.709965 0.307379 -0.646511
H2    H     H_    0.006747 0.753041 0.256920 0.361691
O11   O     O_3   0.925751 0.424853 0.149246 -0.654121
H3    H     H_    0.972023 0.393472 0.071555 0.361803
O12   O     O_3   0.074249 0.575147 0.850754 -0.654123
H4    H     H_    0.027978 0.606532 0.928445 0.361804
I3    I     I_    0.617797 0.969757 0.282212 -0.219937
I4    I     I_    0.382203 0.030243 0.717788 -0.219937
O13   O     O_3   0.404920 0.392149 0.938430 -0.572743
H5    H     H_    0.373218 0.341688 0.021716 0.354951
O14   O     O_3   0.595080 0.607851 0.061570 -0.572743
H6    H     H_    0.626782 0.658312 0.978284 0.354951

loop_
_geom_bond_atom_site_label_1
_geom_bond_atom_site_label_2
_ccdc_geom_bond_type
Cu1   O1    S    
C9    C14   S    
C15   C17   S    
O11   H3    S    
C4    C12   S    
Cu1   O5    S    
O10   H2    S    
O13   H5    S    
N2    O14   S    
Cu1   Cu2   S    
C3    O5    A    
O9    H1    S    
C9    C15   S    
C4    O8    A    
C2    O4    A    
C10   C16   S    
N1    N2    D    
C14   O11   S    
C1    O3    A    
C7    O9    S    
C2    C6    S    
C1    C5    S    
C8    C10   S    
C7    C16   S    
C4    O6    A    
C1    O1    A    
C8    C15   S    
C7    C9    S    
Cu2   O7    S    
C13   C15   S    
C2    O2    A    
C5    C6    D    
C14   C16   S    
C13   O12   S    
C3    C11   S    
Cu2   O3    S    
C9    I1    S    
C10   I2    S    
C7    C13   S    
Cu1   N2    S    
Cu2   N1    S    
C16   C18   S    
C6    I4    S    
C12   C18   T    
O12   H4    S    
C3    O7    A    
Cu1   O4    S    
C5    I3    S    
C11   C17   T    
C8    C14   S    
Cu2   O6    S    
O14   H6    S    
Cu1   O8    S    
C10   C13   S    
N1    O13   S    
Cu2   O2    S    
C8    O10   S    
