data_mof_unit_40835.cif
_audit_creation_date              2012-12-11T17:01:26-0500
_audit_creation_method            fapswitch 2.2
_symmetry_space_group_name_H-M    P1
_symmetry_Int_Tables_number       1
_space_group_crystal_system       triclinic
_cell_length_a                    14.962525
_cell_length_b                    14.898077
_cell_length_c                    15.00474
_cell_angle_alpha                 109.519239
_cell_angle_beta                  109.285467
_cell_angle_gamma                 109.866769
_cell_volume                      2566.51406858

loop_
_atom_site_label
_atom_site_type_symbol
_atom_type_description
_atom_site_fract_x
_atom_site_fract_y
_atom_site_fract_z
_atom_type_partial_charge
C1    C     C_R   0.009965 0.806206 0.101492 -0.005164
C2    C     C_R   0.700228 0.129537 0.699206 0.015484
C3    C     C_R   0.952080 0.499334 0.676158 0.117765
C4    C     C_R   0.675211 0.500039 0.945608 0.067227
C5    C     C_R   0.999649 0.593973 0.301346 -0.138856
C6    C     C_R   0.209638 0.408982 0.905314 -0.064365
C7    C     C_R   0.313164 0.744739 0.220021 -0.163085
C8    C     C_R   0.982734 0.257884 0.069692 0.669358
C9    C     C_R   0.063381 0.245843 0.969216 -0.168412
C10   C     C_R   0.224565 0.750672 0.314593 -0.091121
C11   C     C_R   0.899230 0.411378 0.207350 0.363588
C12   C     C_R   0.794971 0.194322 0.704256 0.710172
C13   C     C_R   0.300232 0.592128 0.995558 -0.119601
C14   C     C_R   0.934956 0.504094 0.300976 -0.036796
C15   C     C_R   0.301956 0.501036 0.933912 0.010215
C16   C     C_R   0.326563 0.774545 0.322964 0.170771
C17   C     C_R   0.050815 0.222795 0.047943 -0.014946
C18   C     C_3   0.469160 0.390020 0.835776 -0.402616
C19   C     C_3   0.366215 0.395020 0.828369 -0.498272
C20   C     C_3   0.574436 0.514186 0.041420 -0.409278
C21   C     C_3   0.567041 0.594716 0.915638 -0.466775
C22   C     C_3   0.573431 0.499700 0.933421 0.278127
C23   C     C_R   0.028480 0.592257 0.777736 -0.062784
C24   C     C_3   0.399022 0.501624 0.929446 0.181830
C25   C     C_3   0.467815 0.505097 0.034584 -0.312367
C26   C     C_3   0.470389 0.603301 0.925318 0.619917
C27   C     C_R   0.617581 0.983178 0.512626 0.013331
C28   C     C_R   0.621789 0.013953 0.613423 0.004116
C29   C     C_R   0.542946 0.933979 0.620776 -0.009786
C30   C     C_R   0.445937 0.845026 0.522184 0.645161
C31   C     C_R   0.433455 0.833829 0.421173 -0.107299
C32   C     C_R   0.526339 0.893462 0.418508 -0.036740
C33   C     C_3   0.539428 0.948500 0.352608 -0.633957
C34   C     C_R   0.686060 0.407954 0.929996 -0.134641
C35   C     C_3   0.639276 0.047618 0.456235 0.686521
C36   C     C_R   0.866538 0.527170 0.429657 -0.116086
C37   C     C_R   0.933992 0.501654 0.394031 0.017323
C38   C     C_R   0.992548 0.458258 0.440129 -0.302146
C39   C     C_R   0.995870 0.455471 0.531864 0.751836
C40   C     C_R   0.939288 0.495329 0.576682 -0.169115
C41   C     C_R   0.869321 0.524465 0.521442 -0.127542
C42   C     C_3   0.859031 0.625166 0.559216 1.337487
C43   C     C_3   0.856106 0.627795 0.457158 -0.256074
C44   C     C_R   0.043495 0.027639 0.150840 -0.163181
C45   C     C_R   0.933817 0.407250 0.686716 0.000893
C46   C     C_R   0.106224 0.989200 0.115378 -0.028945
C47   C     C_R   0.189680 0.063755 0.107391 0.007288
C48   C     C_R   0.177963 0.149482 0.093528 0.654205
C49   C     C_R   0.090304 0.163524 0.095233 -0.063842
C50   C     C_R   0.033378 0.110560 0.136411 0.049835
C51   C     C_3   0.915034 0.060892 0.105561 -0.488291
C52   C     C_3   0.926293 0.972531 0.128084 0.878109
C53   C     C_R   0.777989 0.592413 0.023428 -0.124382
C54   C     C_R   0.698548 0.195025 0.788780 -0.276433
C55   C     C_R   0.094233 0.805371 0.004979 -0.113348
C56   C     C_R   0.070951 0.871452 0.073053 0.150762
H1    H     H_    0.995104 0.834149 0.167824 0.071788
H2    H     H_    0.178861 0.323638 0.849751 0.110110
H3    H     H_    0.374498 0.748863 0.196561 0.137581
H4    H     H_    0.112120 0.230399 0.933367 0.191064
H5    H     H_    0.205999 0.764874 0.379904 0.156389
H6    H     H_    0.353441 0.677369 0.023046 0.172670
H7    H     H_    0.465514 0.319076 0.847070 0.174634
H8    H     H_    0.469537 0.374782 0.758104 0.184544
H9    H     H_    0.321491 0.394015 0.751928 0.195908
H10   H     H_    0.311671 0.319070 0.823568 0.195601
H11   H     H_    0.585635 0.450495 0.058830 0.162962
H12   H     H_    0.420843 0.428777 0.034472 0.184958
H13   H     H_    0.643919 0.675101 0.975553 0.217018
H14   H     H_    0.555108 0.578288 0.833362 0.156779
H15   H     H_    0.419385 0.606047 0.854104 0.047081
H16   H     H_    0.644165 0.596446 0.111477 0.175724
H17   H     H_    0.486969 0.576509 0.108655 0.189559
H18   H     H_    0.066990 0.677221 0.797140 0.158103
H19   H     H_    0.559694 0.907777 0.291543 0.183670
H20   H     H_    0.471521 0.964099 0.320363 0.237508
H21   H     H_    0.716747 0.066570 0.453959 0.074591
H22   H     H_    0.039726 0.431518 0.408016 0.202416
H23   H     H_    0.622203 0.322456 0.878685 0.101980
H24   H     H_    0.929526 0.699653 0.474996 0.163606
H25   H     H_    0.899000 0.113803 0.162971 0.211788
H26   H     H_    0.860136 0.029406 0.017961 0.195505
H27   H     H_    0.884597 0.321853 0.622038 0.162319
H28   H     H_    0.799673 0.677965 0.061161 0.141699
H29   H     H_    0.641358 0.170150 0.815872 0.147977
H30   H     H_    0.147987 0.829787 0.974267 0.108315
H31   H     H_    0.031953 0.679497 0.358401 0.117257
N1    N     N_R   0.995640 0.706130 0.053910 -0.053145
N2    N     N_R   0.153680 0.443190 0.946090 -0.037577
N3    N     N_R   0.208920 0.706140 0.152110 -0.055271
N4    N     N_R   0.947120 0.293870 0.002870 -0.125638
N5    N     N_R   0.004360 0.293870 0.946090 -0.087755
N6    N     N_R   0.151690 0.706140 0.208890 -0.064686
N7    N     N_R   0.945990 0.443210 0.152110 -0.037288
N8    N     N_R   0.210060 0.556810 0.002870 -0.051542
N9    N     N_R   0.848310 0.293860 0.791110 -0.105893
N10   N     N_R   0.054010 0.556790 0.847890 -0.064611
N11   N     N_R   0.789940 0.443190 0.997130 -0.043128
N12   N     N_R   0.997630 0.443170 0.791110 -0.051143
N13   N     N_R   0.846320 0.556810 0.053910 -0.051900
N14   N     N_R   0.791080 0.293860 0.847890 -0.072004
N15   N     N_R   0.052880 0.706130 0.997130 -0.053310
N16   N     N_R   0.002370 0.556830 0.208890 -0.061498
Ni1   Ni    Ni4+2 0.999010 0.630300 0.130220 0.204046
Ni2   Ni    Ni4+2 0.000990 0.369700 0.869780 0.285429
Ni3   Ni    Ni4+2 0.130280 0.630280 0.000000 0.217251
Ni4   Ni    Ni4+2 0.869720 0.369720 0.000000 0.211367
F1    F     F_    0.979090 0.279721 0.162393 -0.749432
C57   C     C_3   0.803182 0.299822 0.167052 -0.315858
C58   C     C_3   0.725963 0.229654 0.044165 -0.922608
H32   H     H_    0.687449 0.273066 0.014897 0.248256
H33   H     H_    0.768692 0.207831 0.000687 0.270063
H34   H     H_    0.659374 0.151314 0.024954 0.254016
H35   H     H_    0.833488 0.251908 0.197729 0.232833
H36   H     H_    0.752401 0.314088 0.203907 0.173004
F2    F     F_    0.845389 0.155647 0.654457 -0.747103
F3    F     F_    0.513603 0.701511 0.019282 -0.736040
C59   C     C_3   0.557185 0.940182 0.728136 -0.278524
C60   C     C_3   0.667105 0.953246 0.797071 -0.857268
H37   H     H_    0.676999 0.885973 0.749078 0.286213
H38   H     H_    0.736881 0.034061 0.825575 0.246552
H39   H     H_    0.669475 0.948583 0.870074 0.255155
H40   H     H_    0.546086 0.006190 0.775145 0.170566
H41   H     H_    0.492344 0.863049 0.712848 0.249193
F4    F     F_    0.361649 0.775217 0.524947 -0.712006
F5    F     F_    0.623948 0.137170 0.489682 -0.700360
F6    F     F_    0.060522 0.421600 0.581251 -0.701828
F7    F     F_    0.762771 0.603150 0.562350 -0.695836
F8    F     F_    0.951294 0.715066 0.655254 -0.735520
C61   C     C_3   0.746868 0.603429 0.370670 -0.303961
C62   C     C_3   0.734491 0.705267 0.401464 -0.791715
H42   H     H_    0.734329 0.732280 0.479891 0.296517
H43   H     H_    0.802831 0.773907 0.409332 0.243773
H44   H     H_    0.655743 0.685345 0.336717 0.236461
H45   H     H_    0.745320 0.578282 0.291303 0.185199
H46   H     H_    0.675770 0.534064 0.358878 0.237887
C63   C     C_3   0.290340 0.056658 0.113802 -0.290807
C64   C     C_3   0.347425 0.043694 0.209946 -0.875732
H47   H     H_    0.366209 0.110207 0.287270 0.284824
H48   H     H_    0.295963 0.962308 0.198347 0.248639
H49   H     H_    0.425719 0.049952 0.216698 0.260029
H50   H     H_    0.270796 0.991031 0.036209 0.178737
H51   H     H_    0.352193 0.133872 0.126188 0.244828
F9    F     F_    0.246618 0.213346 0.071287 -0.726881
C65   C     C_3   0.917312 0.979120 0.229879 -0.525605
C66   C     C_3   0.798381 0.930235 0.204847 -0.710619
H52   H     H_    0.758929 0.971351 0.171280 0.249479
H53   H     H_    0.751262 0.840461 0.145326 0.282806
H54   H     H_    0.796119 0.942061 0.281015 0.231989
H55   H     H_    0.952744 0.935318 0.262344 0.183599
H56   H     H_    0.965157 0.066558 0.297134 0.200527
F10   F     F_    0.857322 0.868795 0.035168 -0.701329

loop_
_geom_bond_atom_site_label_1
_geom_bond_atom_site_label_2
_ccdc_geom_bond_type
N14   Ni4   S    
N9    Ni2   S    
C5    N16   A    
C52   C65   S    
C4    C53   A    
C11   C57   S    
C41   C42   S    
C6    H2    S    
C54   N14   A    
C3    C23   A    
C61   H45   S    
C26   F3    S    
C21   C26   S    
C62   H44   S    
C2    C12   A    
C65   C66   S    
C16   C31   S    
C55   N15   A    
C48   F9    S    
C29   C30   A    
C13   N8    A    
C53   H28   S    
C28   C29   A    
C1    C56   A    
C24   C26   S    
C38   C39   A    
C11   C14   A    
C18   H7    S    
C20   C25   S    
N13   Ni1   S    
C9    N5    A    
C19   H10   S    
C18   C19   S    
C58   H32   S    
C20   H11   S    
N10   N12   A    
C6    C15   A    
C59   C60   S    
C20   H16   S    
C15   C24   S    
C33   H19   S    
C13   H6    S    
C31   C32   A    
C19   H9    S    
N16   Ni1   S    
C51   H25   S    
C65   H55   S    
C42   F7    S    
C44   C52   S    
C1    N1    A    
C63   H51   S    
C30   F4    S    
C21   C22   S    
C26   H15   S    
C36   C41   A    
C45   H27   S    
C25   H12   S    
C8    F1    S    
N6    Ni1   S    
C7    H3    S    
N1    Ni1   S    
C44   C46   A    
C66   H53   S    
C60   H38   S    
C53   N13   A    
N12   Ni2   S    
C4    C34   A    
N7    Ni4   S    
C63   H50   S    
C39   F6    S    
C51   C52   S    
N4    Ni4   S    
C24   C25   S    
N3    Ni3   S    
C2    C54   A    
C17   C49   S    
N4    N5    A    
C38   H22   S    
C10   N6    A    
C27   C35   S    
C43   H24   S    
C7    N3    A    
C3    C45   A    
N11   Ni4   S    
C21   H13   S    
N2    N8    A    
C35   F5    S    
C37   C38   A    
N8    Ni3   S    
C1    H1    S    
C34   H23   S    
C66   H54   S    
C4    C22   S    
C33   H20   S    
C61   C62   S    
C47   C48   A    
C51   H26   S    
C52   F10   S    
C47   C63   S    
C55   C56   A    
C50   C51   S    
C8    N4    A    
C59   H41   S    
C58   H34   S    
C5    C14   A    
C65   H56   S    
C64   H48   S    
C57   H35   S    
N10   Ni3   S    
C11   N7    A    
C9    C17   A    
C40   C41   A    
C23   N10   A    
C20   C22   S    
C3    C40   S    
N11   N13   A    
C13   C15   A    
C45   N12   A    
C10   H5    S    
C42   C43   S    
C23   H18   S    
N2    Ni2   S    
C62   H42   S    
C39   C40   A    
N3    N6    A    
C66   H52   S    
C63   C64   S    
C60   H39   S    
C44   C50   A    
C46   C47   A    
C36   C37   A    
C27   C32   A    
C18   C22   S    
C43   C61   S    
C61   H46   S    
C62   H43   S    
C64   H49   S    
N7    N16   A    
C54   H29   S    
N1    N15   A    
C60   H37   S    
C6    N2    A    
C29   C59   S    
C8    C17   A    
C7    C16   A    
C21   H14   S    
C9    H4    S    
C32   C33   S    
C34   N11   A    
C55   H30   S    
C19   C24   S    
C10   C16   A    
C57   C58   S    
C14   C37   S    
C18   H8    S    
C30   C31   A    
C48   C49   A    
C33   C35   S    
C35   H21   S    
N15   Ni3   S    
C42   F8    S    
C25   H17   S    
C59   H40   S    
C58   H33   S    
C64   H47   S    
C57   H36   S    
C5    H31   S    
N5    Ni2   S    
C49   C50   A    
C46   C56   S    
C27   C28   A    
C12   N9    A    
C36   C43   S    
C2    C28   S    
N9    N14   A    
C12   F2    S    
