data_mof_unit_47540.cif
_audit_creation_date              2012-12-11T16:17:59-0500
_audit_creation_method            fapswitch 2.2
_symmetry_space_group_name_H-M    P1
_symmetry_Int_Tables_number       1
_space_group_crystal_system       triclinic
_cell_length_a                    14.058758
_cell_length_b                    14.057145
_cell_length_c                    30.043194
_cell_angle_alpha                 97.05308
_cell_angle_beta                  97.03795
_cell_angle_gamma                 61.228352
_cell_volume                      5151.19590903

loop_
_atom_site_label
_atom_site_type_symbol
_atom_type_description
_atom_site_fract_x
_atom_site_fract_y
_atom_site_fract_z
_atom_type_partial_charge
C1    C     C_R   0.385650 0.710775 0.442202 0.544838
C2    C     C_R   0.388489 0.241691 0.222439 -0.094347
C3    C     C_R   0.398433 0.247267 0.269545 0.274910
C4    C     C_R   0.325045 0.341264 0.293672 0.028987
C5    C     C_R   0.309151 0.330644 0.199710 -0.006077
C6    C     C_1   0.298492 0.320566 0.151574 -0.046852
C7    C     C_1   0.341725 0.352213 0.341665 -0.028809
C8    C     C_1   0.289379 0.302959 0.111563 -0.004714
C9    C     C_R   0.772073 0.361986 0.402244 -0.027184
C10   C     C_R   0.740914 0.299948 0.369592 -0.197568
C11   C     C_R   0.776050 0.278641 0.326736 -0.192232
C12   C     C_R   0.398550 0.381007 0.426583 0.540167
C13   C     C_R   0.845891 0.315298 0.316168 -0.010368
C14   C     C_R   0.892358 0.362675 0.350216 0.310487
C15   C     C_R   0.852161 0.389654 0.393343 0.275140
C16   C     C_R   0.824414 0.399259 0.159021 -0.068863
C17   C     C_R   0.839032 0.391936 0.112981 0.010335
C18   C     C_R   0.937731 0.194164 0.114508 -0.134951
C19   C     C_R   0.921648 0.202959 0.159775 -0.127368
C20   C     C_R   0.868782 0.305232 0.182343 0.005491
C21   C     C_1   0.862124 0.312356 0.229756 -0.025861
C22   C     C_1   0.856952 0.314677 0.269420 -0.004096
C23   C     C_R   0.710690 0.404982 0.442728 0.548691
C24   C     C_R   0.901848 0.287836 0.091067 -0.017649
C25   C     C_R   0.363120 0.770492 0.401941 -0.023161
C26   C     C_R   0.443302 0.789500 0.387521 -0.142527
C27   C     C_R   0.433506 0.820022 0.344182 -0.172476
C28   C     C_R   0.343222 0.832749 0.315184 0.045396
C29   C     C_R   0.256261 0.825481 0.330174 0.289280
C30   C     C_R   0.268051 0.792903 0.373999 -0.134195
C31   C     C_R   0.257254 0.829606 0.152440 0.024780
C32   C     C_R   0.238631 0.857467 0.107839 -0.162188
C33   C     C_R   0.383197 0.907254 0.118962 -0.116720
C34   C     C_R   0.389462 0.711788 0.568175 0.547538
C35   C     C_R   0.401396 0.881620 0.163491 -0.133864
C36   C     C_R   0.336279 0.847189 0.180868 0.047457
C37   C     C_1   0.343510 0.842898 0.228547 0.050435
C38   C     C_1   0.345134 0.840431 0.268360 0.058213
C39   C     C_R   0.298166 0.900432 0.091415 0.011255
C40   C     C_R   0.364041 0.360252 0.591221 0.024261
C41   C     C_R   0.434162 0.268569 0.615096 -0.121319
C42   C     C_R   0.411456 0.260424 0.657838 -0.110210
C43   C     C_R   0.317985 0.342819 0.676789 0.049196
C44   C     C_R   0.242516 0.428946 0.651676 -0.102164
C45   C     C_R   0.401971 0.382616 0.552161 0.545352
C46   C     C_R   0.265466 0.437885 0.608956 -0.125895
C47   C     C_R   0.211066 0.406975 0.832850 -0.117400
C48   C     C_R   0.205623 0.389962 0.876991 -0.129542
C49   C     C_R   0.390020 0.240499 0.876988 -0.085225
C50   C     C_R   0.395299 0.257929 0.832879 -0.090652
C51   C     C_R   0.304409 0.338367 0.810353 0.037185
C52   C     C_1   0.304276 0.343864 0.763211 -0.030787
C53   C     C_1   0.307276 0.344520 0.723553 -0.024800
C54   C     C_R   0.293299 0.303213 0.898728 0.020743
C55   C     C_1   0.764362 0.376192 0.612201 -0.014396
C56   C     C_R   0.713760 0.407400 0.568334 0.539745
C57   C     C_R   0.756820 0.431267 0.729447 0.303196
C58   C     C_R   0.770491 0.413829 0.775504 0.298228
C59   C     C_R   0.914910 0.229776 0.759701 -0.173875
C60   C     C_R   0.898324 0.245448 0.713829 -0.177895
C61   C     C_R   0.819233 0.345463 0.698486 -0.011289
C62   C     C_R   0.850328 0.312723 0.790528 -0.003034
C63   C     C_1   0.874527 0.296633 0.837815 -0.027616
C64   C     C_1   0.794899 0.358119 0.650956 -0.035916
C65   C     C_1   0.903765 0.283952 0.877017 -0.013269
C66   C     C_1   0.374451 0.759778 0.613335 -0.009270
C67   C     C_1   0.363536 0.363044 0.381235 -0.010359
C68   C     C_R   0.321303 0.750474 0.723565 0.310326
C69   C     C_R   0.317492 0.767686 0.770263 -0.106683
C70   C     C_R   0.371029 0.909127 0.770704 0.015299
C71   C     C_R   0.376402 0.889957 0.723839 -0.208274
C72   C     C_R   0.351931 0.811301 0.700328 0.023420
C73   C     C_R   0.339665 0.847713 0.793931 -0.009760
C74   C     C_1   0.318738 0.872408 0.840837 -0.000723
C75   C     C_1   0.363373 0.788284 0.652666 -0.032773
C76   C     C_1   0.295582 0.901592 0.879199 0.021492
C77   C     C_R   0.950528 0.273074 0.048236 0.519201
C78   C     C_R   0.244426 0.429709 0.270807 -0.151916
C79   C     C_R   0.275145 0.270145 0.065484 0.545070
C80   C     C_R   0.260555 0.954549 0.049056 0.542527
C81   C     C_R   0.951895 0.269390 0.922162 0.543012
C82   C     C_R   0.276147 0.266315 0.939407 0.546773
C83   C     C_R   0.261871 0.950535 0.923010 0.548670
C84   C     C_R   0.236391 0.424402 0.223835 -0.102800
Cr1   Cr    Cr6+3 0.581000 0.584320 0.508140 1.024078
Cr2   Cr    Cr6+3 0.339110 0.576430 0.496080 1.015272
Cr3   Cr    Cr6+3 0.579910 0.339270 0.495810 1.016396
Cr4   Cr    Cr6+3 0.082090 0.079210 0.982490 1.021726
Cr5   Cr    Cr6+3 0.082460 0.324610 0.994920 1.025570
Cr6   Cr    Cr6+3 0.323630 0.087860 0.996130 1.040764
H1    H     H_    0.189065 0.503268 0.289301 0.123625
H2    H     H_    0.954587 0.129816 0.177630 0.118604
H3    H     H_    0.985586 0.113455 0.098807 0.142485
H4    H     H_    0.742548 0.240060 0.300874 0.121420
H5    H     H_    0.174140 0.850182 0.086469 0.113939
H6    H     H_    0.207576 0.776934 0.385433 0.125418
H7    H     H_    0.517066 0.773411 0.408502 0.148262
H8    H     H_    0.462477 0.894515 0.185086 0.116791
H9    H     H_    0.430688 0.939850 0.107187 0.142562
H10   H     H_    0.173624 0.492968 0.206406 0.145285
H11   H     H_    0.499499 0.827057 0.332353 0.127793
H12   H     H_    0.130042 0.439937 0.892853 0.128335
H13   H     H_    0.140673 0.469884 0.815594 0.102082
H14   H     H_    0.169030 0.491931 0.665982 0.100310
H15   H     H_    0.209332 0.508623 0.591052 0.111853
H16   H     H_    0.510307 0.206929 0.602214 0.131358
H17   H     H_    0.468133 0.204920 0.815583 0.114243
H18   H     H_    0.458895 0.173408 0.892870 0.151617
H19   H     H_    0.469866 0.193054 0.677083 0.104463
H20   H     H_    0.442936 0.168121 0.203667 0.112184
H21   H     H_    0.977813 0.152418 0.771157 0.133477
H22   H     H_    0.946603 0.179282 0.690296 0.126297
H23   H     H_    0.294386 0.720077 0.787963 0.123191
H24   H     H_    0.401122 0.935429 0.705589 0.096545
H25   H     H_    0.779885 0.477952 0.176950 0.164080
H26   H     H_    0.681052 0.276457 0.375830 0.149526
O1    O     O_R   0.688580 0.499770 0.460490 -0.475410
O2    O     O_R   0.348600 0.476260 0.536540 -0.499574
O3    O     O_R   0.494840 0.313840 0.539010 -0.516798
O4    O     O_R   0.672120 0.351750 0.545910 -0.491886
O5    O     O_3   0.500010 0.500010 0.500010 -0.239269
O6    O     O_R   0.167510 0.972920 0.030390 -0.521508
O7    O     O_R   0.990840 0.178580 0.027590 -0.499940
O8    O     O_R   0.972840 0.345510 0.038590 -0.516090
O9    O     O_R   0.181550 0.320660 0.045200 -0.488667
O10   O     O_R   0.346150 0.177650 0.050510 -0.514112
O11   O     O_R   0.314200 0.996600 0.036060 -0.503133
O12   O     O_R   0.480400 0.672610 0.462660 -0.498216
O13   O     O_R   0.168690 0.969990 0.933130 -0.514310
O14   O     O_R   0.991920 0.175870 0.937430 -0.490087
O15   O     O_R   0.974010 0.342590 0.941330 -0.517181
O16   O     O_R   0.182630 0.317940 0.955040 -0.505903
O17   O     O_R   0.347320 0.174720 0.953250 -0.501224
O18   O     O_R   0.315290 0.993890 0.945900 -0.475416
O19   O     O_3   0.162730 0.163890 0.991180 -0.244546
O20   O     O_R   0.315310 0.685650 0.451800 -0.520808
O21   O     O_R   0.346220 0.474990 0.446280 -0.496548
O22   O     O_R   0.492270 0.312460 0.441630 -0.510023
O23   O     O_R   0.669740 0.350480 0.455640 -0.514321
O24   O     O_R   0.691150 0.501150 0.557860 -0.519196
O25   O     O_R   0.482790 0.673890 0.552920 -0.494270
O26   O     O_R   0.317880 0.687030 0.549170 -0.511791
C85   C     C_2   0.189386 0.786974 0.167827 0.225865
H27   H     H_    0.119641 0.790656 0.146539 0.090460
O27   O     O_2   0.211449 0.744776 0.203426 -0.467403
O28   O     O_3   0.170037 0.837009 0.298739 -0.527810
C86   C     C_3   0.071049 0.867336 0.317581 0.015539
H28   H     H_    0.004438 0.925885 0.295585 0.151404
H29   H     H_    0.063223 0.912233 0.351324 0.101992
C87   C     C_3   0.053820 0.767481 0.317422 -0.258177
H30   H     H_    0.039563 0.740032 0.282114 0.182274
H31   H     H_    0.127687 0.699241 0.332363 0.169377
C88   C     C_3   0.957113 0.792817 0.343702 -0.484146
H32   H     H_    0.971200 0.817622 0.379406 0.149739
H33   H     H_    0.946676 0.719085 0.342521 0.172697
H34   H     H_    0.881385 0.859048 0.328862 0.148614
O29   O     O_3   0.677712 0.531037 0.715098 -0.526894
C89   C     C_3   0.728154 0.590116 0.703605 0.009146
H35   H     H_    0.749362 0.567941 0.668048 0.146939
H36   H     H_    0.804002 0.574570 0.725208 0.091419
C90   C     C_3   0.648296 0.711557 0.708453 -0.244828
H37   H     H_    0.579153 0.729730 0.682817 0.182740
H38   H     H_    0.616612 0.733440 0.742387 0.181727
C91   C     C_3   0.701614 0.780630 0.701957 -0.495841
H39   H     H_    0.767710 0.767801 0.728701 0.140376
H40   H     H_    0.640003 0.868014 0.704090 0.142941
H41   H     H_    0.735585 0.759171 0.668496 0.149862
O30   O     O_3   0.697645 0.491539 0.804624 -0.535391
C92   C     C_3   0.737676 0.563156 0.824149 0.013924
H42   H     H_    0.772369 0.587744 0.799152 0.117264
H43   H     H_    0.801849 0.523748 0.851336 0.133536
C93   C     C_3   0.643688 0.665633 0.844304 -0.240812
H44   H     H_    0.576223 0.701279 0.817911 0.194640
H45   H     H_    0.612891 0.643803 0.871689 0.174033
C94   C     C_3   0.678833 0.750702 0.863063 -0.475300
H46   H     H_    0.746236 0.717136 0.889620 0.144993
H47   H     H_    0.608989 0.823089 0.877936 0.190410
H48   H     H_    0.706001 0.776605 0.835776 0.146409
O31   O     O_3   0.300732 0.669471 0.701179 -0.544503
C95   C     C_3   0.190921 0.715331 0.683527 0.013214
H49   H     H_    0.187721 0.665424 0.652319 0.159309
H50   H     H_    0.157699 0.800068 0.673406 0.113030
C96   C     C_3   0.118956 0.711772 0.717031 -0.277307
H51   H     H_    0.155837 0.628527 0.728781 0.177688
H52   H     H_    0.113202 0.769373 0.746683 0.149755
C97   C     C_3   0.004401 0.743007 0.695855 -0.490379
H53   H     H_    0.965185 0.826981 0.684745 0.151640
H54   H     H_    0.954728 0.739737 0.721044 0.142426
H55   H     H_    0.007002 0.685568 0.666540 0.136629
C98   C     C_2   0.399053 0.993473 0.793351 0.215816
H56   H     H_    0.413130 0.043998 0.773228 0.093024
O32   O     O_2   0.408822 0.006744 0.834228 -0.521609
O33   O     O_3   0.477749 0.159822 0.292183 -0.579570
C99   C     C_3   0.582036 0.148538 0.287908 0.007330
H57   H     H_    0.617827 0.157714 0.322201 0.149116
H58   H     H_    0.581812 0.210925 0.268020 0.119457
C100  C     C_3   0.654971 0.034890 0.266843 -0.259454
H59   H     H_    0.664043 0.972799 0.288999 0.173160
H60   H     H_    0.616902 0.021653 0.233666 0.164714
C101  C     C_3   0.767201 0.020546 0.260329 -0.492330
H61   H     H_    0.760412 0.078237 0.236425 0.152830
H62   H     H_    0.819602 0.936238 0.246520 0.157740
H63   H     H_    0.805941 0.035423 0.293013 0.133129
C102  C     C_2   0.787625 0.492517 0.088474 0.236683
H64   H     H_    0.783615 0.487716 0.052050 0.125942
O34   O     O_2   0.747251 0.582376 0.108667 -0.515985
O35   O     O_3   0.965992 0.395975 0.341135 -0.539537
C103  C     C_3   0.064568 0.305752 0.327347 0.010051
H65   H     H_    0.108439 0.337926 0.310720 0.161567
H66   H     H_    0.051997 0.247715 0.301944 0.127550
C104  C     C_3   0.137936 0.244467 0.367428 -0.285077
H67   H     H_    0.158266 0.300594 0.390979 0.172510
H68   H     H_    0.094690 0.213813 0.385317 0.141017
C105  C     C_3   0.242979 0.147071 0.352116 -0.467607
H69   H     H_    0.224438 0.087957 0.329876 0.155695
H70   H     H_    0.295160 0.105596 0.381874 0.155353
H71   H     H_    0.288501 0.173880 0.333634 0.187851
O36   O     O_3   0.881313 0.454730 0.424112 -0.525704
C106  C     C_3   0.949801 0.393422 0.459896 0.022700
H72   H     H_    0.032104 0.337612 0.448442 0.122131
H73   H     H_    0.918067 0.344417 0.473220 0.107581
C107  C     C_3   0.959372 0.471301 0.498216 -0.241262
H74   H     H_    0.992829 0.519716 0.485834 0.170487
H75   H     H_    0.877203 0.528252 0.509790 0.185112
C108  C     C_3   0.033360 0.410052 0.537898 -0.487578
H76   H     H_    0.000751 0.362045 0.551205 0.148315
H77   H     H_    0.037571 0.469142 0.565167 0.140800
H78   H     H_    0.116863 0.354561 0.527426 0.148331

loop_
_geom_bond_atom_site_label_1
_geom_bond_atom_site_label_2
_ccdc_geom_bond_type
C45   O2    A    
C58   C62   A    
C99   H58   S    
C55   C56   S    
C63   C65   T    
C34   O25   A    
C40   C41   A    
O29   C89   S    
Cr5   O19   S    
C61   C64   S    
C56   O4    A    
C41   C42   A    
C35   C36   A    
C1    O12   A    
Cr4   O14   S    
C43   C44   A    
C34   C66   S    
C90   H37   S    
C81   O14   A    
C94   H47   S    
Cr5   O9    S    
C93   H44   S    
C40   C46   A    
C80   O11   A    
C70   C98   S    
C26   C27   A    
C3    O33   S    
Cr5   O16   S    
C74   C76   T    
C18   C24   A    
C23   O23   A    
C91   H39   S    
C86   H29   S    
C42   H19   S    
C83   O13   A    
Cr4   O7    S    
C5    C6    S    
Cr6   O18   S    
C105  H70   S    
C81   O15   A    
C99   C100  S    
C49   C54   A    
C46   H15   S    
C108  H78   S    
C14   O35   S    
C85   O27   D    
C18   C19   A    
C73   C74   S    
C32   C39   A    
C100  H60   S    
C83   O18   A    
C30   H6    S    
C19   H2    S    
C89   C90   S    
C108  H77   S    
C68   C69   A    
C89   H36   S    
C34   O26   A    
C62   C63   S    
C31   C32   A    
C93   H45   S    
C101  H61   S    
C87   C88   S    
C8    C79   S    
C59   H21   S    
Cr6   O11   S    
C29   O28   S    
Cr1   O5    S    
C70   C71   A    
C88   H33   S    
C1    O20   A    
C58   O30   S    
C9    C10   A    
C31   C36   A    
Cr2   O21   S    
C95   C96   S    
C16   C20   A    
C45   O3    A    
C43   C53   S    
C99   H57   S    
C79   O9    A    
C59   C60   A    
C21   C22   T    
C1    C25   S    
C92   H43   S    
C82   O17   A    
C107  H74   S    
Cr4   O13   S    
Cr2   O5    S    
C4    C7    S    
C76   C83   S    
C90   H38   S    
C44   C46   A    
C108  H76   S    
C94   H48   S    
C57   C58   A    
C44   H14   S    
C40   C45   S    
C12   C67   S    
C17   C24   A    
C47   H13   S    
C41   H16   S    
C86   H28   S    
O35   C103  S    
C84   H10   S    
C47   C48   A    
C86   C87   S    
Cr4   O6    S    
C96   C97   S    
C103  H65   S    
C106  H72   S    
Cr3   O5    S    
C5    C84   A    
C105  H69   S    
C16   C17   A    
C82   O16   A    
C80   O6    A    
C107  C108  S    
C25   C26   A    
C7    C67   T    
C27   H11   S    
C51   C52   S    
C71   H24   S    
C60   C61   A    
C33   H9    S    
C100  C101  S    
C48   C54   A    
C96   H51   S    
C98   H56   S    
Cr3   O3    S    
C37   C38   T    
C60   H22   S    
C106  H73   S    
C96   H52   S    
C69   C73   A    
C65   C81   S    
C104  H67   S    
C28   C38   S    
C49   H18   S    
C68   C72   A    
C48   H12   S    
C55   C64   T    
C104  C105  S    
C70   C73   A    
C50   C51   A    
Cr6   O10   S    
Cr2   O2    S    
C92   H42   S    
C33   C39   A    
C102  H64   S    
C15   O36   S    
C107  H75   S    
Cr1   O24   S    
C97   H53   S    
C6    C8    T    
C11   H4    S    
C103  H66   S    
O30   C92   S    
C104  H68   S    
C79   O10   A    
C102  O34   D    
O33   C99   S    
C103  C104  S    
C89   H35   S    
C92   C93   S    
C12   O22   A    
Cr1   O1    S    
C42   C43   A    
Cr3   O22   S    
Cr1   O25   S    
C3    C4    A    
C35   H8    S    
C16   H25   S    
C54   C82   S    
C90   C91   S    
C10   H26   S    
C52   C53   T    
Cr2   O26   S    
O28   C86   S    
Cr2   O20   S    
C25   C30   A    
Cr6   O17   S    
C57   O29   S    
C28   C29   A    
C59   C62   A    
C98   O32   D    
C95   H50   S    
C87   H30   S    
C12   O21   A    
C91   H41   S    
C9    C23   S    
Cr4   O19   S    
Cr3   O23   S    
C105  H71   S    
C23   O1    A    
C47   C51   A    
C93   C94   S    
C57   C61   A    
Cr5   O8    S    
C78   H1    S    
C4    C78   A    
C68   O31   S    
Cr5   O15   S    
C39   C80   S    
C19   C20   A    
C91   H40   S    
C2    C3    A    
C9    C15   A    
C71   C72   A    
C94   H46   S    
C106  C107  S    
Cr6   O19   S    
C11   C13   A    
C72   C75   S    
O36   C106  S    
C50   H17   S    
C97   H55   S    
C101  H63   S    
C56   O24   A    
C66   C75   T    
C88   H34   S    
C33   C35   A    
C13   C22   S    
C87   H31   S    
C31   C85   S    
C100  H59   S    
C10   C11   A    
C26   H7    S    
C29   C30   A    
O31   C95   S    
C2    C5    A    
C78   C84   A    
C24   C77   S    
C69   H23   S    
C32   H5    S    
C20   C21   S    
C36   C37   S    
C49   C50   A    
C27   C28   A    
C77   O8    A    
C18   H3    S    
C14   C15   A    
Cr1   O12   S    
C88   H32   S    
C13   C14   A    
C97   H54   S    
C101  H62   S    
Cr3   O4    S    
C95   H49   S    
C85   H27   S    
C17   C102  S    
C77   O7    A    
C2    H20   S    
