data_mof_unit_65351.cif
_audit_creation_date              2012-12-10T17:19:59-0500
_audit_creation_method            fapswitch 2.2
_symmetry_space_group_name_H-M    P1
_symmetry_Int_Tables_number       1
_space_group_crystal_system       triclinic
_cell_length_a                    38.755902
_cell_length_b                    21.72002
_cell_length_c                    21.718672
_cell_angle_alpha                 89.999939
_cell_angle_beta                  124.298494
_cell_angle_gamma                 89.998695
_cell_volume                      15103.2652097

loop_
_atom_site_label
_atom_site_type_symbol
_atom_type_description
_atom_site_fract_x
_atom_site_fract_y
_atom_site_fract_z
_atom_type_partial_charge
C1    C     C_R   0.999379 0.999970 0.118029 0.862101
C2    C     C_R   0.000622 0.999970 0.881971 0.862067
C3    C     C_R   0.499379 0.499970 0.118030 0.862045
C4    C     C_R   0.500622 0.499970 0.881971 0.862019
C5    C     C_3   0.274281 0.966234 0.218621 -0.466572
C6    C     C_3   0.725689 0.960543 0.777392 -0.466148
C7    C     C_3   0.774297 0.463469 0.220445 -0.466328
C8    C     C_3   0.225687 0.460328 0.777224 -0.466204
C9    C     C_3   0.225787 0.964754 0.170434 -0.358901
C10   C     C_3   0.774181 0.959087 0.825448 -0.361929
C11   C     C_3   0.725804 0.461998 0.172321 -0.360391
C12   C     C_3   0.274179 0.458873 0.825275 -0.362092
C13   C     C_1   0.337440 0.001567 0.337399 -0.014404
C14   C     C_1   0.662559 0.001625 0.662710 -0.014478
C15   C     C_1   0.837441 0.501587 0.337352 -0.014449
C16   C     C_1   0.162559 0.501622 0.662712 -0.014519
C17   C     C_1   0.162506 0.000551 0.162809 -0.060420
C18   C     C_1   0.837493 0.000572 0.837266 -0.060378
C19   C     C_1   0.662506 0.500558 0.162772 -0.060394
C20   C     C_1   0.337494 0.500571 0.837271 -0.060379
C21   C     C_1   0.124811 0.000125 0.125269 -0.108807
C22   C     C_1   0.875188 0.000134 0.874761 -0.108890
C23   C     C_1   0.624811 0.500127 0.125254 -0.108842
C24   C     C_1   0.375188 0.500134 0.874764 -0.108862
C25   C     C_R   0.960529 0.995171 0.177945 0.425221
C26   C     C_R   0.039475 0.995232 0.822060 0.425389
C27   C     C_R   0.460529 0.495178 0.177945 0.425238
C28   C     C_R   0.539474 0.495210 0.822058 0.425303
C29   C     C_R   0.961463 0.995299 0.243050 -0.185019
C30   C     C_R   0.038542 0.995359 0.756955 -0.185160
C31   C     C_R   0.461462 0.495307 0.243050 -0.185070
C32   C     C_R   0.538540 0.495338 0.756953 -0.185080
C33   C     C_R   0.999540 0.999972 0.312950 -0.077674
C34   C     C_R   0.000460 0.999972 0.687051 -0.077520
C35   C     C_R   0.499540 0.499972 0.312950 -0.077559
C36   C     C_R   0.500460 0.499972 0.687050 -0.077504
C37   C     C_R   0.037035 0.004407 0.317680 -0.120904
C38   C     C_R   0.962962 0.004347 0.682319 -0.121111
C39   C     C_R   0.537036 0.504400 0.317680 -0.121036
C40   C     C_R   0.462963 0.504367 0.682319 -0.121135
C41   C     C_R   0.036436 0.004469 0.253196 -0.246506
C42   C     C_R   0.963561 0.004408 0.746802 -0.246817
C43   C     C_R   0.536436 0.504462 0.253197 -0.246640
C44   C     C_R   0.463562 0.504429 0.746802 -0.246761
C45   C     C_R   0.079941 0.000008 0.080408 0.862132
C46   C     C_R   0.920058 0.000010 0.919592 0.861944
C47   C     C_R   0.579942 0.500008 0.080408 0.862021
C48   C     C_R   0.420058 0.500010 0.919593 0.861938
C49   C     C_R   0.998479 0.999862 0.183637 -0.118981
C50   C     C_R   0.001522 0.999863 0.816364 -0.118794
C51   C     C_R   0.498479 0.499862 0.183637 -0.118881
C52   C     C_R   0.501522 0.499863 0.816363 -0.118772
C53   C     C_R   0.500005 0.186428 0.500005 -0.184934
C54   C     C_R   0.000003 0.686427 0.500003 -0.184681
C55   C     C_R   0.500000 0.881238 0.500000 0.760285
C56   C     C_R   1.000000 0.381238 0.500000 0.760291
C57   C     C_R   0.420034 0.000143 0.419957 0.818675
C58   C     C_R   0.579966 0.000142 0.580044 0.819503
C59   C     C_R   0.920034 0.500140 0.419957 0.819125
C60   C     C_R   0.079966 0.500140 0.580044 0.819563
C61   C     C_R   0.500002 0.119285 0.500002 0.865798
C62   C     C_R   0.000001 0.619285 0.500001 0.866305
C63   C     C_R   0.000000 0.881041 0.500001 0.985186
C64   C     C_R   0.500001 0.381041 0.500001 0.985257
C65   C     C_R   0.999921 0.000168 0.380583 0.876747
C66   C     C_R   0.000079 0.000168 0.619417 0.876680
C67   C     C_R   0.499921 0.500168 0.380583 0.876777
C68   C     C_R   0.500079 0.500168 0.619417 0.876723
C69   C     C_R   0.999999 0.119124 0.499999 0.753587
C70   C     C_R   0.499999 0.619125 0.499999 0.753624
C71   C     C_R   0.526799 0.782216 0.487375 -0.166584
C72   C     C_R   0.473199 0.782218 0.512622 -0.166420
C73   C     C_R   0.026799 0.282216 0.487376 -0.166597
C74   C     C_R   0.973199 0.282218 0.512621 -0.166535
C75   C     C_R   0.027320 0.218155 0.488681 -0.165914
C76   C     C_R   0.972677 0.218157 0.511316 -0.165987
C77   C     C_R   0.527320 0.718155 0.488680 -0.165927
C78   C     C_R   0.472678 0.718157 0.511316 -0.165945
C79   C     C_3   0.225974 0.972414 0.286280 -0.370394
C80   C     C_3   0.774026 0.979042 0.711110 -0.371333
C81   C     C_3   0.725973 0.475527 0.287609 -0.370826
C82   C     C_3   0.274028 0.479303 0.711026 -0.371364
C83   C     C_R   0.999999 0.186040 0.499998 -0.002951
C84   C     C_R   0.499999 0.686040 0.499998 -0.002960
C85   C     C_R   0.499999 0.814327 0.499999 -0.007233
C86   C     C_R   0.999999 0.314327 0.499999 -0.007197
C87   C     C_R   0.498778 0.218563 0.442940 -0.186447
C88   C     C_R   0.501234 0.218562 0.557072 -0.184813
C89   C     C_R   0.998761 0.718562 0.442924 -0.185787
C90   C     C_R   0.001246 0.718562 0.557083 -0.184826
C91   C     C_R   0.998729 0.782556 0.442285 0.383646
C92   C     C_R   0.001277 0.782556 0.557722 0.383489
C93   C     C_R   0.498745 0.282557 0.442300 0.383645
C94   C     C_R   0.501265 0.282556 0.557710 0.383374
C95   C     C_R   0.000002 0.814578 0.500003 -0.284693
C96   C     C_R   0.500003 0.314578 0.500004 -0.284713
C97   C     C_3   0.224845 0.068521 0.220685 -0.384300
C98   C     C_3   0.775183 0.067720 0.786622 -0.382068
C99   C     C_3   0.724831 0.568231 0.217199 -0.383235
C100  C     C_3   0.275183 0.567670 0.786903 -0.381951
C101  C     C_3   0.273573 0.069958 0.269547 0.320088
C102  C     C_3   0.726453 0.069185 0.737892 0.318819
C103  C     C_3   0.773560 0.569680 0.266004 0.319544
C104  C     C_3   0.226454 0.569134 0.738175 0.318740
C105  C     C_1   0.375151 0.000677 0.374886 -0.099344
C106  C     C_1   0.624848 0.000698 0.625133 -0.099499
C107  C     C_1   0.875152 0.500681 0.374879 -0.099423
C108  C     C_1   0.124848 0.500695 0.625132 -0.099543
C109  C     C_3   0.208595 0.001468 0.208823 0.208212
C110  C     C_3   0.791404 0.001509 0.791332 0.209214
C111  C     C_3   0.708596 0.501484 0.208749 0.208679
C112  C     C_3   0.291404 0.501508 0.791340 0.209276
C113  C     C_3   0.274416 0.970673 0.333712 -0.332871
C114  C     C_3   0.725583 0.977228 0.663463 -0.332387
C115  C     C_3   0.774416 0.473744 0.335144 -0.332613
C116  C     C_3   0.225584 0.477483 0.663368 -0.332367
C117  C     C_3   0.291296 0.002781 0.291912 0.156824
C118  C     C_3   0.708703 0.002895 0.708346 0.157191
C119  C     C_3   0.791297 0.502830 0.291795 0.156966
C120  C     C_3   0.208702 0.502894 0.708355 0.157265
Cu1   Cu    Cu3+1 0.000000 0.938160 0.000000 1.059855
Cu2   Cu    Cu3+1 0.500000 0.438160 0.000000 1.059875
Cu3   Cu    Cu3+1 0.000000 0.061840 0.000000 1.044733
Cu4   Cu    Cu3+1 0.500000 0.561840 0.000000 1.044915
Cu5   Cu    Cu3+1 0.500000 0.000210 0.561820 1.014528
Cu6   Cu    Cu3+1 0.500000 0.000210 0.438180 1.011547
Cu7   Cu    Cu3+1 0.000000 0.500210 0.561820 1.013487
Cu8   Cu    Cu3+1 0.000000 0.500210 0.438180 1.011899
Cu9   Cu    Cu3+1 0.958680 0.999890 0.458710 1.049399
Cu10  Cu    Cu3+1 0.041320 0.999890 0.541290 1.049834
Cu11  Cu    Cu3+1 0.458680 0.499890 0.458710 1.049342
Cu12  Cu    Cu3+1 0.541320 0.499890 0.541290 1.049660
H1    H     H_    0.287272 0.992384 0.388826 0.226444
H2    H     H_    0.712748 0.003335 0.610924 0.226398
H3    H     H_    0.787263 0.497576 0.389093 0.226429
H4    H     H_    0.212749 0.503752 0.610938 0.226390
H5    H     H_    0.213694 0.924792 0.279456 0.174465
H6    H     H_    0.786286 0.932269 0.712867 0.174104
H7    H     H_    0.713701 0.428244 0.283208 0.174297
H8    H     H_    0.286289 0.432575 0.712589 0.174089
H9    H     H_    0.285000 0.921855 0.345145 0.163550
H10   H     H_    0.714977 0.928785 0.646793 0.163665
H11   H     H_    0.785011 0.425034 0.349072 0.163581
H12   H     H_    0.214978 0.429065 0.646498 0.163676
H13   H     H_    0.285309 0.987730 0.186119 0.184965
H14   H     H_    0.714657 0.977273 0.811931 0.184821
H15   H     H_    0.785328 0.482728 0.186913 0.184924
H16   H     H_    0.214654 0.476871 0.811829 0.184752
H17   H     H_    0.932474 0.991682 0.239279 0.209196
H18   H     H_    0.067533 0.991787 0.760729 0.209192
H19   H     H_    0.432473 0.491694 0.239278 0.209154
H20   H     H_    0.567531 0.491750 0.760726 0.209189
H21   H     H_    0.066775 0.008021 0.371064 0.171373
H22   H     H_    0.933220 0.007913 0.628931 0.171064
H23   H     H_    0.566775 0.508008 0.371065 0.171216
H24   H     H_    0.433221 0.507950 0.628933 0.171045
H25   H     H_    0.065607 0.008019 0.257450 0.146424
H26   H     H_    0.934387 0.007911 0.742545 0.146033
H27   H     H_    0.565608 0.508007 0.257451 0.146236
H28   H     H_    0.434389 0.507948 0.742546 0.146023
H29   H     H_    0.547737 0.806720 0.477846 0.143080
H30   H     H_    0.452261 0.806724 0.522151 0.143330
H31   H     H_    0.047738 0.306720 0.477848 0.143081
H32   H     H_    0.952260 0.306724 0.522150 0.143179
H33   H     H_    0.048439 0.193655 0.479598 0.142413
H34   H     H_    0.951559 0.193659 0.520398 0.142336
H35   H     H_    0.548438 0.693655 0.479597 0.142362
H36   H     H_    0.451559 0.693659 0.520399 0.142380
H37   H     H_    0.497812 0.193727 0.398801 0.222379
H38   H     H_    0.502201 0.193726 0.601212 0.222634
H39   H     H_    0.997784 0.693727 0.398774 0.222363
H40   H     H_    0.002224 0.693726 0.601234 0.222506
H41   H     H_    0.215329 0.999502 0.316145 0.196376
H42   H     H_    0.784694 0.010293 0.684396 0.196224
H43   H     H_    0.715318 0.504640 0.316030 0.196294
H44   H     H_    0.284696 0.510710 0.684443 0.196231
H45   H     H_    0.213016 0.090244 0.165762 0.168419
H46   H     H_    0.787011 0.084715 0.843623 0.170404
H47   H     H_    0.713004 0.587732 0.161225 0.169367
H48   H     H_    0.287011 0.584477 0.843974 0.170478
H49   H     H_    0.211871 0.095846 0.246533 0.220040
H50   H     H_    0.788176 0.099026 0.763938 0.220480
H51   H     H_    0.711847 0.597492 0.241592 0.220236
H52   H     H_    0.288178 0.599124 0.764351 0.220524
H53   H     H_    0.283880 0.089603 0.235069 0.100040
H54   H     H_    0.716144 0.083941 0.774205 0.100564
H55   H     H_    0.783870 0.587027 0.230592 0.100289
H56   H     H_    0.216143 0.583698 0.774547 0.100563
H57   H     H_    0.214870 0.916163 0.161866 0.186291
H58   H     H_    0.785079 0.911019 0.828832 0.186037
H59   H     H_    0.714895 0.413587 0.166227 0.186156
H60   H     H_    0.285077 0.410837 0.828459 0.186016
H61   H     H_    0.213636 0.984621 0.114496 0.203108
H62   H     H_    0.786327 0.974169 0.883255 0.201114
H63   H     H_    0.713656 0.479614 0.115430 0.202253
H64   H     H_    0.286324 0.473766 0.883144 0.200978
H65   H     H_    0.286473 0.918235 0.231589 0.197212
H66   H     H_    0.713479 0.912905 0.759280 0.196447
H67   H     H_    0.786499 0.415573 0.235864 0.196855
H68   H     H_    0.213476 0.412716 0.758914 0.196397
O1    O     O_R   0.999990 0.947780 0.090170 -0.555275
O2    O     O_R   0.000010 0.947780 0.909830 -0.555331
O3    O     O_R   0.499990 0.447780 0.090170 -0.555303
O4    O     O_R   0.500010 0.447780 0.909830 -0.555304
O5    O     O_R   0.965120 0.999890 0.374970 -0.579639
O6    O     O_R   0.034880 0.999890 0.625030 -0.579615
O7    O     O_R   0.465120 0.499890 0.374970 -0.579657
O8    O     O_R   0.534880 0.499890 0.625030 -0.579626
O9    O     O_R   0.034900 0.999930 0.444740 -0.587299
O10   O     O_R   0.965100 0.999930 0.555260 -0.587456
O11   O     O_R   0.534900 0.499930 0.444740 -0.587354
O12   O     O_R   0.465100 0.499930 0.555260 -0.587429
O13   O     O_R   0.965090 0.090120 0.465150 -0.595621
O14   O     O_R   0.034910 0.090120 0.534850 -0.595581
O15   O     O_R   0.465090 0.590120 0.465150 -0.595611
O16   O     O_R   0.534910 0.590120 0.534850 -0.595599
O17   O     O_R   0.999990 0.052220 0.090220 -0.577920
O18   O     O_R   0.000010 0.052220 0.909780 -0.577949
O19   O     O_R   0.499990 0.552220 0.090220 -0.577914
O20   O     O_R   0.500010 0.552220 0.909780 -0.577906
O21   O     O_R   0.060280 0.947780 0.060280 -0.573313
O22   O     O_R   0.939720 0.947780 0.939720 -0.573354
O23   O     O_R   0.560280 0.447780 0.060280 -0.573332
O24   O     O_R   0.439720 0.447780 0.939720 -0.573348
O25   O     O_R   0.060280 0.052220 0.060320 -0.567186
O26   O     O_R   0.939720 0.052220 0.939680 -0.567109
O27   O     O_R   0.560280 0.552220 0.060320 -0.567134
O28   O     O_R   0.439720 0.552220 0.939680 -0.567073
O29   O     O_R   0.500000 0.909980 0.552210 -0.585374
O30   O     O_R   0.500000 0.909980 0.447790 -0.585398
O31   O     O_R   0.000000 0.409980 0.552210 -0.585451
O32   O     O_R   0.000000 0.409980 0.447790 -0.585416
O33   O     O_R   0.439710 0.000200 0.491930 -0.566543
O34   O     O_R   0.560290 0.000200 0.508070 -0.569030
O35   O     O_R   0.939710 0.500200 0.491930 -0.567770
O36   O     O_R   0.060290 0.500200 0.508070 -0.569140
O37   O     O_R   0.439720 0.000170 0.387560 -0.580232
O38   O     O_R   0.560280 0.000170 0.612440 -0.578939
O39   O     O_R   0.939720 0.500170 0.387560 -0.579617
O40   O     O_R   0.060280 0.500170 0.612440 -0.578905
O41   O     O_R   0.500000 0.090430 0.552220 -0.579449
O42   O     O_R   0.500000 0.090430 0.447780 -0.580333
O43   O     O_R   0.000000 0.590430 0.552220 -0.579659
O44   O     O_R   0.000000 0.590430 0.447780 -0.580170
O45   O     O_R   0.965130 0.909670 0.465120 -0.546837
O46   O     O_R   0.034870 0.909670 0.534880 -0.546650
O47   O     O_R   0.465130 0.409670 0.465120 -0.546901
O48   O     O_R   0.534870 0.409670 0.534880 -0.546653
S1    S     S_3+6 0.911837 0.989825 0.090689 -0.002752
O49   O     O_2   0.876605 0.986469 0.100913 -0.282830
O50   O     O_2   0.906046 0.045500 0.044703 -0.309860
O51   O     O_3   0.911434 0.926140 0.046306 -0.523552
H69   H     H_    0.882826 0.924128 0.000283 0.364128
S2    S     S_3+6 0.088171 0.989952 0.909321 -0.003069
O52   O     O_2   0.123407 0.986663 0.899101 -0.283102
O53   O     O_2   0.093921 0.045625 0.955281 -0.310316
O54   O     O_3   0.088620 0.926256 0.953733 -0.523443
H70   H     H_    0.117236 0.924265 0.999738 0.364150
S3    S     S_3+6 0.411836 0.489839 0.090689 -0.002823
O55   O     O_2   0.376604 0.486490 0.100912 -0.282984
O56   O     O_2   0.406049 0.545514 0.044705 -0.309794
O57   O     O_3   0.411429 0.426153 0.046302 -0.523629
H71   H     H_    0.382820 0.424142 0.000282 0.364101
S4    S     S_3+6 0.588168 0.489906 0.909317 -0.002870
O58   O     O_2   0.623403 0.486593 0.899096 -0.282922
O59   O     O_2   0.593932 0.545580 0.955286 -0.310080
O60   O     O_3   0.588602 0.426214 0.953720 -0.523447
H72   H     H_    0.617215 0.424215 0.999731 0.364154
S5    S     S_3+6 0.997233 0.821229 0.368964 0.009212
O61   O     O_2   0.958908 0.861081 0.327751 -0.291520
O62   O     O_2   0.035457 0.860898 0.401229 -0.301570
O63   O     O_3   0.995946 0.770541 0.309148 -0.518030
H73   H     H_    0.994961 0.796169 0.270453 0.388485
S6    S     S_3+6 0.002772 0.821227 0.631042 0.009443
O64   O     O_2   0.041095 0.861082 0.672252 -0.291090
O65   O     O_2   0.964546 0.860894 0.598776 -0.302000
O66   O     O_3   0.004064 0.770539 0.690862 -0.517623
H74   H     H_    0.005044 0.796166 0.729553 0.388507
S7    S     S_3+6 0.497266 0.321229 0.368996 0.008956
O67   O     O_2   0.458940 0.361079 0.327762 -0.291830
O68   O     O_2   0.535490 0.360901 0.401281 -0.301518
O69   O     O_3   0.495994 0.270542 0.309194 -0.518219
H75   H     H_    0.495017 0.296170 0.270506 0.388460
S8    S     S_3+6 0.502745 0.321227 0.631016 0.009422
O70   O     O_2   0.541068 0.361079 0.672245 -0.291142
O71   O     O_2   0.464519 0.360898 0.598733 -0.302052
O72   O     O_3   0.504022 0.270539 0.690822 -0.517458
H76   H     H_    0.504997 0.296166 0.729509 0.388528
S9    S     S_3+6 0.292582 0.122544 0.346755 -0.000969
O73   O     O_2   0.276581 0.104797 0.393260 -0.299792
O74   O     O_2   0.339509 0.123589 0.394738 -0.273578
O75   O     O_3   0.275088 0.193464 0.311898 -0.513746
H77   H     H_    0.286012 0.220273 0.356080 0.388360
S10   S     S_3+6 0.707477 0.127688 0.666654 -0.000243
O76   O     O_2   0.723497 0.116719 0.618643 -0.299399
O77   O     O_2   0.660550 0.128842 0.618752 -0.274247
O78   O     O_3   0.724980 0.196346 0.709013 -0.512316
H78   H     H_    0.714048 0.226560 0.667894 0.388806
S11   S     S_3+6 0.792550 0.625152 0.340454 -0.000683
O79   O     O_2   0.776531 0.610607 0.387751 -0.299677
O80   O     O_2   0.839477 0.626242 0.388414 -0.273957
O81   O     O_3   0.775057 0.695098 0.302001 -0.513098
H79   H     H_    0.785977 0.723564 0.344773 0.388535
S12   S     S_3+6 0.207480 0.627849 0.667179 -0.000169
O82   O     O_2   0.223506 0.617144 0.619132 -0.299330
O83   O     O_2   0.160553 0.629005 0.619274 -0.274277
O84   O     O_3   0.224981 0.696404 0.709822 -0.512186
H80   H     H_    0.214063 0.726739 0.668829 0.388894

loop_
_geom_bond_atom_site_label_1
_geom_bond_atom_site_label_2
_ccdc_geom_bond_type
Cu8   O36   S    
C99   C103  S    
Cu4   O20   S    
C79   H41   S    
C2    O2    A    
Cu9   O45   S    
C73   C75   A    
O69   H75   S    
C102  H54   S    
S8    O70   D    
C11   H63   S    
C26   C50   A    
C6    H14   S    
C9    H61   S    
C29   C33   A    
C100  C104  S    
S6    O64   D    
S2    O53   D    
C25   S1    S    
S12   O84   S    
O63   H73   S    
C76   H34   S    
Cu12  O16   S    
C70   C84   S    
C7    H15   S    
Cu7   O40   S    
C104  S12   S    
C113  H1    S    
C12   H64   S    
C9    H57   S    
C76   C83   A    
C41   C49   A    
C61   O41   A    
C12   H60   S    
C79   C109  S    
Cu11  O15   S    
C7    C119  S    
C28   C32   A    
C103  H55   S    
C98   C102  S    
C17   C21   T    
Cu2   O3    S    
C19   C23   T    
C90   C92   A    
C75   H33   S    
C45   O25   A    
C94   C96   A    
C89   H39   S    
C79   H5    S    
Cu3   O18   S    
S5    O62   D    
Cu8   O44   S    
Cu1   Cu3   S    
C47   O23   A    
C71   H29   S    
S8    O72   S    
C59   O35   A    
C69   O14   A    
S3    O56   D    
C17   C109  S    
C36   C68   S    
Cu3   O25   S    
C19   C111  S    
Cu7   O35   S    
C46   O22   A    
Cu1   O1    S    
C73   H31   S    
C74   H32   S    
Cu10  O14   S    
S7    O68   D    
C93   S7    S    
C29   H17   S    
C2    O18   A    
C57   O37   A    
Cu5   O38   S    
O51   H69   S    
Cu11  O7    S    
C34   C66   S    
C72   C85   A    
C62   O43   A    
Cu8   O39   S    
S1    O49   D    
C74   C76   A    
C32   C36   A    
C54   C90   A    
C43   H27   S    
C16   C120  S    
C48   O28   A    
C65   O5    A    
C15   C107  T    
C87   H37   S    
C31   H19   S    
O54   H70   S    
C72   C78   A    
C2    C50   S    
C116  H12   S    
C53   C61   S    
S4    O58   D    
C32   H20   S    
Cu6   O42   S    
C82   H8    S    
Cu1   O22   S    
C98   H46   S    
C99   H51   S    
C44   C52   A    
S12   O83   D    
O66   H74   S    
C104  H56   S    
C55   O30   A    
Cu12  O11   S    
C101  H53   S    
C27   C51   A    
C21   C45   S    
C63   O45   A    
C88   C94   A    
C5    H13   S    
C30   C34   A    
C24   C48   S    
Cu7   O43   S    
C64   C96   S    
C5    H65   S    
C48   O24   A    
C77   C84   A    
C59   C107  S    
C116  C120  S    
C56   O31   A    
C39   H23   S    
C5    C9    S    
Cu10  O6    S    
C97   C109  S    
C64   O48   A    
C35   C67   S    
C8    C12   S    
C99   C111  S    
S9    O73   D    
C114  H2    S    
C53   C87   A    
C67   O11   A    
C42   C50   A    
C60   O40   A    
S4    O59   D    
C26   C30   A    
C115  C119  S    
C79   C113  S    
C113  C117  S    
C8    H68   S    
Cu2   Cu4   S    
C100  H48   S    
C12   C112  S    
Cu4   O27   S    
Cu9   Cu10  S    
S1    O51   S    
C18   C22   T    
C82   H44   S    
O60   H72   S    
O57   H71   S    
C77   H35   S    
C78   H36   S    
C45   O21   A    
C23   C47   S    
S8    O71   D    
C115  H3    S    
S4    O60   S    
C80   H6    S    
C87   C93   A    
C15   C119  S    
C11   H59   S    
Cu9   O13   S    
Cu6   O34   S    
S11   O81   S    
C91   C95   A    
C40   C44   A    
C47   O27   A    
Cu8   O32   S    
C72   H30   S    
Cu10  O9    S    
Cu2   O24   S    
S6    O65   D    
C68   O12   A    
C98   C110  S    
S6    O66   S    
C3    O3    A    
C71   C77   A    
C1    O1    A    
C101  S9    S    
C102  S10   S    
C42   H26   S    
C103  S11   S    
C70   O15   A    
C81   H43   S    
C10   H62   S    
S10   O76   D    
C30   H18   S    
C63   C95   S    
S9    O75   S    
Cu2   O4    S    
C20   C112  S    
C4    O20   A    
C68   O8    A    
S7    O67   D    
C60   C108  S    
Cu3   O17   S    
Cu4   O19   S    
S5    O61   D    
C25   C29   A    
C8    H16   S    
C9    C109  S    
C88   H38   S    
C11   C111  S    
O84   H80   S    
C37   H21   S    
C69   O13   A    
S10   O78   S    
C13   C105  T    
C3    C51   S    
Cu12  O48   S    
C54   C62   S    
C27   C31   A    
C33   C37   A    
C82   C112  S    
C55   C85   S    
C35   C39   A    
S11   O79   D    
C99   H47   S    
S2    O52   D    
Cu9   O5    S    
C97   H45   S    
O72   H76   S    
Cu11  O47   S    
C41   H25   S    
C22   C46   S    
C100  C112  S    
Cu2   O23   S    
Cu5   Cu6   S    
C44   H28   S    
C31   C35   A    
Cu11  Cu12  S    
C61   O42   A    
C81   H7    S    
C18   C110  S    
C58   O34   A    
C6    C10   S    
C13   C117  S    
C62   O44   A    
C116  H4    S    
Cu5   O29   S    
C101  C117  S    
C82   C116  S    
C75   C83   A    
C43   C51   A    
C10   C110  S    
C100  H52   S    
C25   C49   A    
S2    O54   S    
C14   C106  T    
C3    O19   A    
S5    O63   S    
C90   H40   S    
Cu1   O21   S    
C1    O17   A    
Cu9   O10   S    
Cu6   O37   S    
C104  C120  S    
C57   C105  S    
C98   H50   S    
C80   H42   S    
O78   H78   S    
C55   O29   A    
C60   O36   A    
S3    O57   S    
Cu10  O46   S    
C33   C65   S    
Cu3   O26   S    
C7    C11   S    
C10   H58   S    
C4    C52   S    
C114  H10   S    
O75   H77   S    
Cu6   O30   S    
Cu1   O2    S    
C38   C42   A    
C66   O6    A    
C4    O4    A    
C56   O32   A    
S7    O69   S    
C71   C85   A    
C56   C86   S    
C81   C111  S    
C113  H9    S    
C14   C118  S    
Cu5   O41   S    
C65   O9    A    
C102  C118  S    
C37   C41   A    
Cu4   O28   S    
C115  H11   S    
S1    O50   D    
C20   C24   T    
C36   C40   A    
C54   C89   A    
C26   S2    S    
C6    H66   S    
C39   C43   A    
C28   S4    S    
C92   C95   A    
C5    C117  S    
C58   C106  S    
C59   O39   A    
C69   C83   S    
C81   C115  S    
Cu7   O31   S    
C46   O26   A    
C74   C86   A    
S11   O80   D    
C114  C118  S    
S12   O82   D    
C80   C114  S    
Cu12  O8    S    
C93   C96   A    
C66   O10   A    
C38   H22   S    
C92   S6    S    
S3    O55   D    
C67   O7    A    
C8    C120  S    
C94   S8    S    
C63   O46   A    
O81   H79   S    
C34   C38   A    
C103  C119  S    
C91   S5    S    
C57   O33   A    
C97   H49   S    
C27   S3    S    
C70   O16   A    
S10   O77   D    
C28   C52   A    
C64   O47   A    
S9    O74   D    
C53   C88   A    
C7    H67   S    
C73   C86   A    
Cu5   O33   S    
C16   C108  T    
C78   C84   A    
C89   C91   A    
C80   C110  S    
Cu11  O12   S    
C40   H24   S    
C58   O38   A    
C1    C49   S    
C6    C118  S    
C97   C101  S    
Cu7   Cu8   S    
