data_mof_unit_18046.cif
_audit_creation_date              2012-12-10T18:11:55-0500
_audit_creation_method            fapswitch 2.2
_symmetry_space_group_name_H-M    P1
_symmetry_Int_Tables_number       1
_space_group_crystal_system       triclinic
_cell_length_a                    15.86672
_cell_length_b                    10.737446
_cell_length_c                    9.417705
_cell_angle_alpha                 89.883123
_cell_angle_beta                  89.997138
_cell_angle_gamma                 90.116197
_cell_volume                      1604.4693887

loop_
_atom_site_label
_atom_site_type_symbol
_atom_type_description
_atom_site_fract_x
_atom_site_fract_y
_atom_site_fract_z
_atom_type_partial_charge
C1    C     C_R   0.500329 0.259844 0.500270 0.776030
C2    C     C_3   0.082887 0.500254 0.499836 0.134265
C3    C     C_3   0.972344 0.603186 0.567277 -0.216042
C4    C     C_3   0.917142 0.500248 0.501666 0.168891
C5    C     C_3   0.028343 0.602900 0.431955 -0.227604
C6    C     C_3   0.972559 0.499478 0.369733 0.456469
C7    C     C_1   0.174548 0.500211 0.499925 -0.061157
C8    C     C_1   0.825458 0.500186 0.500612 -0.021747
C9    C     C_3   0.505783 0.070950 0.655066 -0.396460
C10   C     C_3   0.505578 0.928362 0.654445 -0.463829
C11   C     C_3   0.417429 0.073309 0.432849 -0.338330
C12   C     C_R   0.339809 0.500011 0.500001 0.827350
C13   C     C_3   0.576202 0.072197 0.415157 -0.382366
C14   C     C_3   0.500020 0.122023 0.500931 0.095335
C15   C     C_3   0.499105 0.878407 0.499845 0.120972
C16   C     C_3   0.416038 0.929172 0.432649 0.269093
C17   C     C_3   0.575971 0.928545 0.415114 -0.345101
C18   C     C_3   0.559171 0.597513 0.084250 -0.187237
C19   C     C_3   0.558936 0.599087 0.916531 -0.190007
C20   C     C_3   0.529684 0.379505 0.082625 -0.192277
C21   C     C_3   0.416673 0.526047 0.084154 -0.181690
C22   C     C_3   0.528969 0.381171 0.915336 -0.183244
C23   C     C_R   0.499505 0.740268 0.500012 0.756632
C24   C     C_3   0.416296 0.528133 0.916973 -0.184972
C25   C     C_R   0.660191 0.500023 0.499999 0.828732
C26   C     C_3   0.972074 0.398110 0.569324 -0.215740
C27   C     C_3   0.028067 0.396813 0.434013 -0.226376
C28   C     C_1   0.250104 0.500130 0.500006 -0.210986
C29   C     C_1   0.749901 0.500111 0.500082 -0.196065
C30   C     C_3   0.028601 0.501047 0.635212 -0.131855
Cu1   Cu    Cu3+1 0.500040 0.499860 0.642410 0.891670
Cu2   Cu    Cu3+1 0.499960 0.500140 0.357590 0.901713
H1    H     H_    0.051631 0.313238 0.377425 0.135448
H2    H     H_    0.451488 0.894065 0.719085 0.169922
H3    H     H_    0.362151 0.108773 0.493227 0.103513
H4    H     H_    0.361476 0.897714 0.498895 0.049376
H5    H     H_    0.573476 0.106589 0.303656 0.170662
H6    H     H_    0.636116 0.106895 0.462322 0.152063
H7    H     H_    0.635511 0.893728 0.463337 0.138848
H8    H     H_    0.574122 0.894464 0.303643 0.194320
H9    H     H_    0.411573 0.109701 0.322462 0.191459
H10   H     H_    0.624567 0.582019 0.122649 0.151372
H11   H     H_    0.947860 0.314755 0.626216 0.142350
H12   H     H_    0.540236 0.690986 0.123195 0.160335
H13   H     H_    0.540109 0.693288 0.879294 0.142207
H14   H     H_    0.624137 0.583750 0.877177 0.148903
H15   H     H_    0.594012 0.356575 0.121601 0.144792
H16   H     H_    0.592816 0.358018 0.874459 0.142807
H17   H     H_    0.371422 0.453619 0.120984 0.142651
H18   H     H_    0.393188 0.616730 0.124979 0.149721
H19   H     H_    0.392902 0.619859 0.878618 0.141398
H20   H     H_    0.370751 0.456790 0.878856 0.144950
H21   H     H_    0.487458 0.303319 0.119647 0.142656
H22   H     H_    0.486006 0.306041 0.878436 0.140473
H23   H     H_    0.052134 0.685800 0.373705 0.135038
H24   H     H_    0.948350 0.687196 0.622497 0.142089
H25   H     H_    0.053331 0.501700 0.745479 0.134463
H26   H     H_    0.451422 0.104558 0.719126 0.169476
H27   H     H_    0.564480 0.105005 0.707071 0.174041
H28   H     H_    0.564429 0.894050 0.705599 0.181654
N1    N     N_3   0.501840 0.500250 0.143650 -0.117862
N2    N     N_3   0.501160 0.503300 0.856280 -0.115321
O1    O     O_R   0.500050 0.317570 0.620260 -0.598290
O2    O     O_R   0.499980 0.317810 0.379740 -0.598565
O3    O     O_R   0.379110 0.499870 0.620240 -0.586139
O4    O     O_R   0.379040 0.500110 0.379720 -0.591242
O5    O     O_R   0.500020 0.682190 0.620260 -0.601077
O6    O     O_R   0.499950 0.682430 0.379740 -0.572569
O7    O     O_R   0.620960 0.499890 0.620280 -0.586107
O8    O     O_R   0.620890 0.500130 0.379760 -0.578367
O9    O     O_3   0.406441 0.886896 0.292091 -0.745837
H29   H     H_    0.367280 0.814684 0.294495 0.312917
O10   O     O_3   0.940874 0.498659 0.231244 -0.740789
H30   H     H_    0.991128 0.498326 0.168722 0.308196

loop_
_geom_bond_atom_site_label_1
_geom_bond_atom_site_label_2
_ccdc_geom_bond_type
C24   H20   S    
C22   H16   S    
O10   H30   S    
C2    C7    S    
C4    C8    S    
C21   H17   S    
C19   H14   S    
C22   H22   S    
C27   H1    S    
Cu1   O5    S    
C26   C27   S    
C12   C28   S    
C8    C29   T    
Cu2   N1    S    
C9    H26   S    
C10   C15   S    
C18   H10   S    
C17   H7    S    
C5    C6    S    
C11   C14   S    
C19   N2    S    
C15   C16   S    
C30   H25   S    
C15   C17   S    
C18   C19   S    
C11   C16   S    
C23   O5    A    
C20   N1    S    
C6    C27   S    
C2    C27   S    
C9    C10   S    
C13   H5    S    
Cu2   O6    S    
C24   H19   S    
C15   C23   S    
C13   C14   S    
Cu1   N2    S    
C16   O9    S    
C1    O1    A    
C21   H18   S    
C26   H11   S    
C25   C29   S    
Cu1   O1    S    
Cu2   O2    S    
C4    C6    S    
Cu2   O8    S    
C12   O4    A    
C7    C28   T    
C9    H27   S    
C17   H8    S    
C23   O6    A    
C3    C30   S    
C10   H28   S    
C9    C14   S    
C18   H12   S    
C22   N2    S    
C3    H24   S    
Cu1   Cu2   S    
C10   H2    S    
C13   H6    S    
C20   C22   S    
C26   C30   S    
C2    C5    S    
C25   O7    A    
C3    C4    S    
C1    O2    A    
C6    O10   S    
Cu2   O4    S    
Cu1   O3    S    
C24   N2    S    
C21   N1    S    
C5    H23   S    
C20   H21   S    
C3    C5    S    
C4    C26   S    
C19   H13   S    
C18   N1    S    
C1    C14   S    
C12   O3    A    
C13   C17   S    
C2    C30   S    
C11   H3    S    
O9    H29   S    
C16   H4    S    
C11   H9    S    
C20   H15   S    
Cu1   O7    S    
C21   C24   S    
C25   O8    A    
