data_mof_unit_47735.cif
_audit_creation_date              2012-12-10T17:15:50-0500
_audit_creation_method            fapswitch 2.2
_symmetry_space_group_name_H-M    P1
_symmetry_Int_Tables_number       1
_space_group_crystal_system       triclinic
_cell_length_a                    10.141871
_cell_length_b                    10.631017
_cell_length_c                    10.739211
_cell_angle_alpha                 89.983346
_cell_angle_beta                  95.483881
_cell_angle_gamma                 81.58924
_cell_volume                      1140.06918539

loop_
_atom_site_label
_atom_site_type_symbol
_atom_type_description
_atom_site_fract_x
_atom_site_fract_y
_atom_site_fract_z
_atom_type_partial_charge
C1    C     C_R   0.443833 0.513249 0.266961 0.940333
C2    C     C_R   0.590061 0.053377 0.602771 0.087735
C3    C     C_R   0.501587 0.128122 0.513040 -0.094625
C4    C     C_R   0.412758 0.076463 0.428223 -0.202108
C5    C     C_R   0.414132 0.947777 0.427173 -0.197244
C6    C     C_R   0.504218 0.871157 0.511029 -0.092210
C7    C     C_2   0.412196 0.535558 0.134125 -0.377534
C8    C     C_2   0.509949 0.561169 0.067806 -0.111298
C9    C     C_2   0.589807 0.508591 0.866301 -0.014621
C10   C     C_2   0.491291 0.559283 0.933814 -0.199476
C11   C     C_2   0.072541 0.489454 0.489743 -0.112457
C12   C     C_R   0.500470 0.260519 0.503867 0.868750
C13   C     C_2   0.927481 0.510228 0.510692 -0.105897
C14   C     C_R   0.556444 0.495812 0.733268 0.859832
C15   C     C_R   0.501407 0.739260 0.503102 0.855507
C16   C     C_R   0.673687 0.106887 0.694909 -0.164124
C17   C     C_R   0.758037 0.029442 0.783091 -0.118016
C18   C     C_R   0.759509 0.898336 0.781977 -0.137715
C19   C     C_R   0.676594 0.844206 0.692729 -0.186519
C20   C     C_R   0.591505 0.921291 0.601687 0.094279
H1    H     H_    0.344598 0.135822 0.360800 0.151372
H2    H     H_    0.312906 0.526631 0.090255 0.163667
H3    H     H_    0.891871 0.578758 0.579306 0.167961
H4    H     H_    0.108130 0.420713 0.421327 0.165069
H5    H     H_    0.879675 0.384238 0.384442 0.177994
H6    H     H_    0.120335 0.615945 0.615421 0.169220
H7    H     H_    0.673260 0.208451 0.701066 0.162217
H8    H     H_    0.821454 0.071430 0.853237 0.161194
H9    H     H_    0.824105 0.838467 0.851224 0.153575
H10   H     H_    0.678656 0.742351 0.697175 0.151106
H11   H     H_    0.346548 0.907351 0.359293 0.155326
H12   H     H_    0.390176 0.590079 0.890734 0.178135
H13   H     H_    0.608311 0.572039 0.112378 0.215175
N1    N     N_2   0.157290 0.551390 0.551110 -0.191014
N2    N     N_2   0.842740 0.448550 0.448960 -0.188846
O1    O     O_R   0.568950 0.489660 0.307530 -0.595815
O2    O     O_R   0.348880 0.522640 0.340350 -0.609921
O3    O     O_R   0.610060 0.300270 0.483590 -0.606774
O4    O     O_R   0.389990 0.333260 0.516410 -0.606881
O5    O     O_R   0.651120 0.477360 0.659650 -0.598740
O6    O     O_R   0.431050 0.510340 0.692470 -0.617521
O7    O     O_R   0.610010 0.666740 0.483590 -0.618908
O8    O     O_R   0.389940 0.699730 0.516410 -0.607866
Zn1   Zn    Zn3+2 0.646940 0.477980 0.478090 0.962116
Zn2   Zn    Zn3+2 0.353060 0.522020 0.521910 0.950397
I1    I     I_    0.789681 0.442412 0.943474 -0.434830

loop_
_geom_bond_atom_site_label_1
_geom_bond_atom_site_label_2
_ccdc_geom_bond_type
C9    C14   S    
O3    Zn1   S    
C4    H1    S    
C7    H2    S    
C6    C20   A    
C9    C10   D    
C15   O7    A    
C19   C20   A    
C1    O2    A    
O4    Zn2   S    
C16   H7    S    
C17   C18   A    
C15   O8    A    
C7    C8    D    
C18   H9    S    
N2    Zn1   S    
O8    Zn2   S    
C19   H10   S    
O7    Zn1   S    
C12   O4    A    
C14   O6    A    
C13   N2    D    
H5    N2    S    
C2    C3    A    
C9    I1    S    
C8    H13   S    
C12   O3    A    
C5    C6    A    
O1    Zn1   S    
C11   C13   S    
O2    Zn2   S    
C3    C4    A    
C10   H12   S    
C11   H4    S    
O5    Zn1   S    
C2    C16   A    
C13   H3    S    
C8    C10   S    
C18   C19   A    
N1    Zn2   S    
C2    C20   A    
O6    Zn2   S    
C4    C5    A    
C3    C12   S    
C6    C15   S    
C1    C7    S    
C17   H8    S    
C14   O5    A    
H6    N1    S    
C11   N1    D    
C1    O1    A    
C16   C17   A    
C5    H11   S    
