data_mof_unit_44947.cif
_audit_creation_date              2012-12-11T17:22:09-0500
_audit_creation_method            fapswitch 2.2
_symmetry_space_group_name_H-M    P1
_symmetry_Int_Tables_number       1
_space_group_crystal_system       triclinic
_cell_length_a                    20.333561
_cell_length_b                    7.181801
_cell_length_c                    20.845292
_cell_angle_alpha                 90.005219
_cell_angle_beta                  102.231446
_cell_angle_gamma                 90.004313
_cell_volume                      2974.96995048

loop_
_atom_site_label
_atom_site_type_symbol
_atom_type_description
_atom_site_fract_x
_atom_site_fract_y
_atom_site_fract_z
_atom_type_partial_charge
O1    O     O_R   0.807340 0.614490 0.194100 -0.530475
O2    O     O_R   0.192660 0.385510 0.805900 -0.525942
O3    O     O_R   0.692660 0.114490 0.305900 -0.530408
O4    O     O_R   0.307340 0.885510 0.694100 -0.525733
O5    O     O_R   0.672910 0.282300 0.178070 -0.525349
O6    O     O_R   0.327090 0.717700 0.821930 -0.526218
O7    O     O_R   0.827090 0.782300 0.321930 -0.525147
O8    O     O_R   0.172910 0.217700 0.678070 -0.524570
C1    C     C_R   0.648852 0.453158 0.160954 0.781562
C2    C     C_R   0.351354 0.546499 0.838831 0.776665
C3    C     C_R   0.851151 0.953182 0.339039 0.781123
C4    C     C_R   0.148643 0.046475 0.661174 0.778091
O9    O     O_R   0.805620 0.284620 0.186180 -0.516029
O10   O     O_R   0.194380 0.715380 0.813820 -0.519486
O11   O     O_R   0.694380 0.784620 0.313820 -0.516162
O12   O     O_R   0.305620 0.215380 0.686180 -0.519592
O13   O     O_R   0.826310 0.116750 0.314070 -0.534392
O14   O     O_R   0.173690 0.883250 0.685930 -0.530593
O15   O     O_R   0.673690 0.616750 0.185930 -0.534480
O16   O     O_R   0.326310 0.383250 0.814070 -0.534260
C5    C     C_R   0.824967 0.453590 0.171643 0.720306
C6    C     C_R   0.175015 0.546459 0.828357 0.720945
C7    C     C_R   0.675034 0.953592 0.328357 0.720301
C8    C     C_R   0.324988 0.046459 0.671646 0.714362
O17   O     O_3   0.756630 0.448770 0.291950 -0.376367
O18   O     O_3   0.243370 0.551230 0.708050 -0.373238
O19   O     O_3   0.743370 0.948770 0.208050 -0.376447
O20   O     O_3   0.256630 0.051230 0.791950 -0.375837
V1    V     V_3+5 0.748770 0.172970 0.242220 1.676270
V2    V     V_3+5 0.251230 0.827030 0.757780 1.679262
V3    V     V_3+5 0.751230 0.672970 0.257780 1.676303
V4    V     V_3+5 0.248770 0.327030 0.742220 1.679771
C9    C     C_R   0.454853 0.154116 0.495280 0.471329
C10   C     C_R   0.545494 0.847594 0.504904 0.469777
C11   C     C_R   0.045169 0.654090 0.004737 0.471030
C12   C     C_R   0.954535 0.347505 0.995117 0.467875
C13   C     C_R   0.455373 0.015914 0.543898 -0.120274
C14   C     C_R   0.544903 0.985648 0.456241 -0.124549
C15   C     C_R   0.044652 0.515859 0.956121 -0.121535
C16   C     C_R   0.955114 0.485605 0.043771 -0.124577
C17   C     C_R   0.501158 0.865388 0.548926 -0.265322
C18   C     C_R   0.499167 0.136289 0.451226 -0.268044
C19   C     C_R   0.998877 0.365287 0.951099 -0.265362
C20   C     C_R   0.000848 0.636273 0.048786 -0.267847
C21   C     C_1   0.408695 0.026561 0.588847 0.150838
C22   C     C_1   0.591456 0.974488 0.411211 0.148541
C23   C     C_1   0.091322 0.526528 0.911168 0.150141
C24   C     C_1   0.908553 0.474461 0.088795 0.148533
C25   C     C_1   0.629755 0.964456 0.373652 0.007975
C26   C     C_1   0.370332 0.035951 0.626375 0.007019
C27   C     C_1   0.870250 0.464444 0.126350 0.008167
C28   C     C_1   0.129679 0.535940 0.873634 0.008025
C29   C     C_R   0.913786 0.960380 0.391881 -0.263657
C30   C     C_R   0.085734 0.033217 0.608772 -0.258892
C31   C     C_R   0.586217 0.460262 0.108108 -0.265724
C32   C     C_R   0.414252 0.533310 0.891251 -0.251758
C33   C     C_R   0.964176 0.974743 0.577156 0.334277
C34   C     C_R   0.034968 0.903978 0.429068 0.339527
C35   C     C_R   0.535840 0.475576 0.922857 0.274650
C36   C     C_R   0.465079 0.403118 0.070865 0.336844
C37   C     C_R   0.022244 0.019322 0.625989 0.303985
C38   C     C_R   0.977022 0.918569 0.377337 0.305824
C39   C     C_R   0.477767 0.520202 0.874057 0.269103
C40   C     C_R   0.523007 0.417876 0.122612 0.306335
C41   C     C_R   0.090296 0.007749 0.542669 -0.113817
C42   C     C_R   0.909286 0.992223 0.457670 -0.116880
C43   C     C_R   0.409679 0.507161 0.957320 -0.113365
C44   C     C_R   0.590700 0.492533 0.042340 -0.119082
C45   C     C_R   0.031770 0.965971 0.493375 -0.086560
C46   C     C_R   0.967651 0.980059 0.509562 -0.088716
C47   C     C_R   0.468233 0.465553 0.006601 -0.087539
C48   C     C_R   0.532345 0.480303 0.990440 -0.077723
C49   C     C_1   0.497923 0.272471 0.399943 0.583012
N1    N     N_1   0.497116 0.381850 0.359096 -0.124065
C50   C     C_1   0.502370 0.729136 0.600142 0.569688
N2    N     N_1   0.503151 0.619650 0.640934 -0.099918
C51   C     C_1   0.002082 0.772501 0.100060 0.582962
N3    N     N_1   0.002880 0.881920 0.140900 -0.123789
C52   C     C_1   0.997689 0.228964 0.899901 0.566628
N4    N     N_1   0.996930 0.119419 0.859124 -0.107668
S1    S     S_3+6 0.396607 0.344381 0.487867 0.054596
O21   O     O_2   0.331180 0.282738 0.445100 -0.274932
O22   O     O_2   0.384392 0.399841 0.553886 -0.326078
O23   O     O_3   0.424456 0.533296 0.454030 -0.500009
H1    H     H_    0.389069 0.628752 0.452925 0.379756
S2    S     S_3+6 0.603857 0.657535 0.512308 0.060735
O24   O     O_2   0.615376 0.600867 0.446153 -0.330205
O25   O     O_2   0.669555 0.720268 0.554307 -0.260817
O26   O     O_3   0.576668 0.469084 0.546961 -0.494182
H2    H     H_    0.611828 0.373326 0.547430 0.382641
S3    S     S_3+6 0.103424 0.844366 0.012162 0.054504
O27   O     O_2   0.168844 0.782747 0.054937 -0.274916
O28   O     O_2   0.115654 0.899798 0.946149 -0.326375
O29   O     O_3   0.075578 0.033296 0.045997 -0.499744
H3    H     H_    0.110974 0.128748 0.047115 0.379962
S4    S     S_3+6 0.896177 0.157411 0.987716 0.063280
O30   O     O_2   0.884659 0.100782 0.053872 -0.329917
O31   O     O_2   0.830479 0.220090 0.945717 -0.254170
O32   O     O_3   0.923365 0.968951 0.953064 -0.495400
H4    H     H_    0.888205 0.873177 0.952596 0.382260
C53   C     C_1   0.845925 0.061538 0.469580 0.450266
N5    N     N_1   0.795137 0.117791 0.478173 -0.247882
C54   C     C_1   0.154045 0.050808 0.525368 0.446975
N6    N     N_1   0.205156 0.086871 0.512356 -0.221485
C55   C     C_1   0.654013 0.562338 0.030465 0.449490
N7    N     N_1   0.704760 0.618973 0.021892 -0.246500
C56   C     C_1   0.345873 0.549438 0.974626 0.444866
N8    N     N_1   0.294714 0.584882 0.987642 -0.222240
S5    S     S_3+6 0.983305 0.897321 0.293558 0.083634
O33   O     O_2   0.961685 0.704914 0.269668 -0.298116
O34   O     O_2   0.937945 0.035983 0.251785 -0.343535
O35   O     O_3   0.062172 0.935056 0.283863 -0.408689
H5    H     H_    0.070494 0.069023 0.293695 0.367993
S6    S     S_3+6 0.016278 0.065465 0.708627 0.087619
O36   O     O_2   0.039323 0.896282 0.749678 -0.276614
O37   O     O_2   0.060857 0.226312 0.735699 -0.359690
O38   O     O_3   0.937396 0.119041 0.714743 -0.408885
H6    H     H_    0.928720 0.243256 0.694002 0.367849
S7    S     S_3+6 0.516713 0.396224 0.206374 0.083792
O39   O     O_2   0.538455 0.203864 0.230194 -0.298196
O40   O     O_2   0.561971 0.535018 0.248210 -0.343488
O41   O     O_3   0.437811 0.433403 0.216055 -0.408533
H7    H     H_    0.429393 0.567339 0.206251 0.367990
S8    S     S_3+6 0.483737 0.567281 0.791493 0.071333
O42   O     O_2   0.460474 0.398730 0.750160 -0.288952
O43   O     O_2   0.439308 0.728683 0.764744 -0.366269
O44   O     O_3   0.562643 0.620570 0.785384 -0.394751
H8    H     H_    0.571422 0.744619 0.806243 0.368846
S9    S     S_3+6 0.896454 0.850943 0.600433 0.113673
O45   O     O_2   0.843614 0.985314 0.612253 -0.261831
O46   O     O_2   0.865285 0.717365 0.547025 -0.313608
O47   O     O_3   0.924688 0.726682 0.669126 -0.432897
H9    H     H_    0.884148 0.666362 0.678983 0.399579
S10   S     S_3+6 0.102146 0.753073 0.419101 0.093086
O48   O     O_2   0.155472 0.862253 0.395502 -0.271172
O49   O     O_2   0.132826 0.661775 0.483416 -0.330906
O50   O     O_3   0.073400 0.583853 0.364596 -0.437712
H10   H     H_    0.113542 0.508508 0.361951 0.394394
S11   S     S_3+6 0.603572 0.351900 0.899515 0.141383
O51   O     O_2   0.656343 0.486360 0.887660 -0.228674
O52   O     O_2   0.635310 0.218595 0.952775 -0.312456
O53   O     O_3   0.575941 0.227764 0.830674 -0.396959
H11   H     H_    0.544303 0.135528 0.842571 0.343587
S12   S     S_3+6 0.398040 0.251553 0.080729 0.090867
O54   O     O_2   0.344603 0.360105 0.104379 -0.270344
O55   O     O_2   0.367462 0.160365 0.016358 -0.333756
O56   O     O_3   0.426937 0.082271 0.135142 -0.438088
H12   H     H_    0.386872 0.006472 0.137702 0.394359

loop_
_geom_bond_atom_site_label_1
_geom_bond_atom_site_label_2
_ccdc_geom_bond_type
C34   C38   A    
O1    C5    A    
C53   N5    T    
O19   V1    S    
O13   V1    S    
C49   N1    T    
C55   N7    T    
O3    C7    A    
O56   H12   S    
O15   V3    S    
S10   O50   S    
C39   S8    S    
C30   C41   A    
C51   N3    T    
C34   S10   S    
O7    C3    A    
C22   C25   T    
C40   S7    S    
C9    C18   A    
C33   S9    S    
C20   C51   S    
C14   C18   A    
S8    O43   D    
S5    O34   D    
O4    C8    A    
S11   O53   S    
S2    O25   D    
C7    C25   S    
S3    O28   D    
C19   C52   S    
S4    O32   S    
O1    V3    S    
O2    V4    S    
C10   S2    S    
O3    V1    S    
C54   N6    T    
C1    O15   A    
C24   C27   T    
C2    O16   A    
O47   H9    S    
S4    O31   D    
O2    C6    A    
C56   N8    T    
C1    C31   S    
C33   C46   A    
C2    C32   S    
C3    C29   S    
C44   C48   A    
C35   C48   A    
S9    O47   S    
O11   C7    A    
O12   C8    A    
S4    O30   D    
C42   C53   S    
C45   C46   A    
C10   C17   A    
O10   V2    S    
S12   O56   S    
O35   H5    S    
S1    O22   D    
S1    O21   D    
O5    V1    S    
S7    O40   D    
C8    C26   S    
O7    V3    S    
O8    V4    S    
C12   C16   A    
O23   H1    S    
S12   O55   D    
S5    O35   S    
S3    O27   D    
C31   C44   A    
S2    O24   D    
C15   C19   A    
C36   C47   A    
C15   C23   S    
C9    C13   A    
C11   C15   A    
C50   N2    T    
O5    C1    A    
C11   C20   A    
C17   C50   S    
C29   C38   A    
C12   S4    S    
O32   H4    S    
C35   S11   S    
O8    C4    A    
C31   C40   A    
C32   C39   A    
O9    C5    A    
S7    O39   D    
C33   C37   A    
C29   C42   A    
S10   O48   D    
S8    O44   S    
O14   V2    S    
O6    V2    S    
C44   C55   S    
C41   C54   S    
C13   C21   S    
O44   H8    S    
C5    C27   S    
S1    O23   S    
C6    C28   S    
S9    O45   D    
O16   V4    S    
S7    O41   S    
O9    V1    S    
C16   C24   S    
C3    O13   A    
C18   C49   S    
C10   C14   A    
O17   V3    S    
S12   O54   D    
S2    O26   S    
O6    C2    A    
S6    O37   D    
S11   O51   D    
C34   C45   A    
O11   V3    S    
C23   C28   T    
O18   V4    S    
C30   C37   A    
O12   V4    S    
C32   C43   A    
O50   H10   S    
C35   C39   A    
C36   C40   A    
O10   C6    A    
O20   V2    S    
O26   H2    S    
C47   C48   A    
O38   H6    S    
C36   S12   S    
S3    O29   S    
S11   O52   D    
C43   C56   S    
C42   C46   A    
C38   S5    S    
C21   C26   T    
C41   C45   A    
S10   O49   D    
C43   C47   A    
S6    O36   D    
C13   C17   A    
O29   H3    S    
C4    C30   S    
C14   C22   S    
S6    O38   S    
C52   N4    T    
C16   C20   A    
C4    O14   A    
C37   S6    S    
O53   H11   S    
C12   C19   A    
O41   H7    S    
S5    O33   D    
C9    S1    S    
O4    V2    S    
S8    O42   D    
S9    O46   D    
C11   S3    S    
