data_mof_unit_9526.cif
_audit_creation_date              2012-10-26T18:26:37-0400
_audit_creation_method            fapswitch 2.2
_symmetry_space_group_name_H-M    P1
_symmetry_Int_Tables_number       1
_space_group_crystal_system       triclinic
_cell_length_a                    15.840685
_cell_length_b                    8.692847
_cell_length_c                    7.455338
_cell_angle_alpha                 103.025969
_cell_angle_beta                  93.917561
_cell_angle_gamma                 92.22492
_cell_volume                      996.297463062

loop_
_atom_site_label
_atom_site_type_symbol
_atom_type_description
_atom_site_fract_x
_atom_site_fract_y
_atom_site_fract_z
_atom_type_partial_charge
C1    C     C_R   0.497483 0.199751 0.453266 0.547135
C2    C     C_3   0.976114 0.648081 0.565571 -0.137670
C3    C     C_1   0.250574 0.500407 0.508595 0.016618
C4    C     C_1   0.749426 0.499593 0.491405 0.016618
C5    C     C_3   0.031251 0.551933 0.674019 0.049196
C6    C     C_3   0.968749 0.448066 0.325981 0.049197
C7    C     C_3   0.083326 0.500649 0.507200 0.052251
C8    C     C_3   0.916674 0.499350 0.492799 0.052251
C9    C     C_1   0.175062 0.500623 0.509913 0.016523
C10   C     C_1   0.824937 0.499377 0.490087 0.016523
C11   C     C_2   0.936265 0.388379 0.128216 0.210901
C12   C     C_R   0.502517 0.800249 0.546733 0.547134
C13   C     C_2   0.063734 0.611620 0.871784 0.210899
C14   C     C_R   0.340006 0.499854 0.502737 0.549323
C15   C     C_R   0.659994 0.500146 0.497263 0.549323
C16   C     C_2   0.496273 0.031829 0.427053 -0.146211
C17   C     C_2   0.503726 0.968171 0.572947 -0.146210
C18   C     C_3   0.970756 0.403901 0.603533 -0.132348
C19   C     C_3   0.029244 0.596098 0.396467 -0.132350
C20   C     C_3   0.023886 0.351919 0.434429 -0.137666
Cu1   Cu    Cu3+1 0.509330 0.517380 0.684380 0.994210
Cu2   Cu    Cu3+1 0.490670 0.482620 0.315620 0.994210
H1    H     H_    0.044268 0.230613 0.379937 0.114837
H2    H     H_    0.019334 0.649440 0.975171 0.093410
H3    H     H_    0.955732 0.769386 0.620062 0.114837
H4    H     H_    0.945690 0.325024 0.687955 0.127288
H5    H     H_    0.054309 0.674975 0.312044 0.127288
H6    H     H_    0.489243 0.960219 0.286460 0.139370
H7    H     H_    0.510756 0.039781 0.713540 0.139370
H8    H     H_    0.434421 0.377630 0.948895 0.244010
H9    H     H_    0.565579 0.622370 0.051105 0.244009
H10   H     H_    0.980666 0.350569 0.024826 0.093412
N1    N     N_2   0.476600 0.456420 0.038510 -0.249628
N2    N     N_2   0.523400 0.543580 0.961490 -0.249628
O1    O     O_R   0.506070 0.286130 0.619780 -0.507756
O2    O     O_2   0.139448 0.618343 0.917560 -0.501948
O3    O     O_R   0.493930 0.713870 0.380220 -0.507756
O4    O     O_R   0.490300 0.256770 0.308360 -0.497370
O5    O     O_R   0.509700 0.743230 0.691640 -0.497370
O6    O     O_R   0.386960 0.514660 0.655680 -0.492306
O7    O     O_R   0.613040 0.485340 0.344320 -0.492306
O8    O     O_R   0.371190 0.485310 0.344260 -0.489838
O9    O     O_R   0.628810 0.514690 0.655740 -0.489838
O10   O     O_2   0.860551 0.381645 0.082443 -0.501947

loop_
_geom_bond_atom_site_label_1
_geom_bond_atom_site_label_2
_ccdc_geom_bond_type
C12   C17   S    
C16   H6    S    
Cu1   O1    S    
C6    C20   S    
C5    C13   S    
C18   H4    S    
C20   H1    S    
C14   O8    A    
C4    C15   S    
N1    N2    D    
H9    N2    S    
C15   O9    A    
C11   O10   D    
C1    C16   S    
Cu1   Cu2   S    
C6    C19   S    
Cu1   O6    S    
C1    O1    A    
Cu2   O8    S    
C3    C14   S    
C1    O4    A    
C12   O5    A    
C3    C9    T    
C11   H10   S    
C2    H3    S    
C18   C20   S    
C17   H7    S    
C2    C8    S    
Cu2   O7    S    
C4    C10   T    
C2    C5    S    
C7    C9    S    
C6    C11   S    
C19   H5    S    
C15   O7    A    
C13   O2    D    
C8    C10   S    
C7    C20   S    
C12   O3    A    
C5    C7    S    
Cu2   N1    S    
C7    C19   S    
C6    C8    S    
C5    C18   S    
H8    N1    S    
C2    C19   S    
Cu1   O9    S    
Cu2   O3    S    
C14   O6    A    
Cu1   O5    S    
Cu1   N2    S    
C8    C18   S    
C13   H2    S    
C16   C17   D    
Cu2   O4    S    
