data_mof_unit_28601.cif
_audit_creation_date              2012-12-10T19:07:00-0500
_audit_creation_method            fapswitch 2.2
_symmetry_space_group_name_H-M    P1
_symmetry_Int_Tables_number       1
_space_group_crystal_system       triclinic
_cell_length_a                    27.808571
_cell_length_b                    10.810759
_cell_length_c                    9.548878
_cell_angle_alpha                 89.868659
_cell_angle_beta                  90.327189
_cell_angle_gamma                 90.160125
_cell_volume                      2870.63053657

loop_
_atom_site_label
_atom_site_type_symbol
_atom_type_description
_atom_site_fract_x
_atom_site_fract_y
_atom_site_fract_z
_atom_type_partial_charge
C1    C     C_R   0.500965 0.262338 0.500077 0.796358
C2    C     C_R   0.278997 0.495417 0.625787 -0.101216
C3    C     C_R   0.253650 0.503112 0.499152 0.361154
C4    C     C_R   0.102037 0.507242 0.502692 -0.049695
C5    C     C_R   0.127450 0.394417 0.507247 -0.022196
C6    C     C_R   0.102316 0.282530 0.511738 -0.119390
C7    C     C_R   0.127889 0.620512 0.499431 -0.093727
C8    C     C_R   0.354484 0.500561 0.499187 -0.043236
C9    C     C_R   0.645172 0.499395 0.499095 -0.014927
C10   C     C_R   0.974687 0.390291 0.487380 0.044287
C11   C     C_R   0.974099 0.617608 0.508993 0.054233
C12   C     C_R   0.407462 0.500019 0.499660 0.801529
C13   C     C_R   0.949123 0.503308 0.497301 0.069324
C14   C     C_R   0.948159 0.279883 0.466088 -0.202872
C15   C     C_R   0.898216 0.280019 0.461733 -0.143570
C16   C     C_R   0.872692 0.390004 0.478369 -0.018063
C17   C     C_R   0.897989 0.501939 0.495983 -0.045744
C18   C     C_R   0.872041 0.612468 0.512592 -0.020777
C19   C     C_R   0.821576 0.608952 0.512954 0.536410
C20   C     C_R   0.822189 0.390816 0.476664 0.531983
C21   C     C_R   0.721142 0.431950 0.598497 -0.110085
C22   C     C_R   0.671006 0.432027 0.599806 -0.188384
C23   C     C_R   0.500931 0.737672 0.499842 0.805726
C24   C     C_R   0.670123 0.564694 0.395076 -0.228033
C25   C     C_R   0.720230 0.563647 0.392751 -0.098916
C26   C     C_R   0.746024 0.497952 0.495049 0.348024
C27   C     C_R   0.025676 0.391218 0.497909 0.038407
C28   C     C_R   0.050829 0.505996 0.501110 0.073364
C29   C     C_R   0.025228 0.619132 0.502391 0.028376
C30   C     C_R   0.052515 0.280684 0.507116 -0.189977
C31   C     C_R   0.101855 0.733099 0.499259 0.004205
C32   C     C_R   0.946802 0.726590 0.528605 -0.199952
C33   C     C_R   0.896877 0.723771 0.530243 -0.144400
C34   C     C_R   0.592423 0.499725 0.500104 0.797087
C35   C     C_R   0.051649 0.730653 0.497465 -0.246973
C36   C     C_R   0.508632 0.063347 0.625286 0.128004
C37   C     C_R   0.505979 0.129297 0.499673 -0.092156
C38   C     C_R   0.510324 0.064831 0.372640 -0.212128
C39   C     C_R   0.510187 0.935993 0.372495 -0.209609
C40   C     C_R   0.505877 0.870789 0.499370 -0.092965
C41   C     C_R   0.508584 0.936064 0.625127 0.120307
C42   C     C_3   0.477485 0.928935 0.751977 -0.454638
C43   C     C_3   0.477588 0.069397 0.752232 -0.475921
C44   C     C_R   0.516355 0.601001 0.074187 0.183286
C45   C     C_R   0.177776 0.395529 0.507951 0.542032
C46   C     C_R   0.478170 0.408034 0.074232 -0.088450
C47   C     C_R   0.477866 0.408545 0.925370 -0.095533
C48   C     C_R   0.518030 0.598300 0.926922 0.142266
C49   C     C_3   0.568313 0.649319 0.928365 0.273465
C50   C     C_3   0.564740 0.660399 0.087386 -0.576906
C51   C     C_R   0.178773 0.615613 0.491945 0.559126
C52   C     C_R   0.278567 0.509281 0.372425 -0.097725
C53   C     C_R   0.328730 0.507846 0.372254 -0.209541
C54   C     C_R   0.329119 0.494285 0.626016 -0.213059
Cu1   Cu    Cu3+1 0.500000 0.499980 0.640670 0.957279
Cu2   Cu    Cu3+1 0.500000 0.500020 0.359330 0.940762
H1    H     H_    0.347936 0.488433 0.725408 0.160389
H2    H     H_    0.259011 0.515160 0.274263 0.140503
H3    H     H_    0.962775 0.815955 0.546841 0.140213
H4    H     H_    0.650954 0.618089 0.317035 0.140886
H5    H     H_    0.877783 0.809872 0.545589 0.188524
H6    H     H_    0.739060 0.614443 0.311920 0.148472
H7    H     H_    0.034070 0.819192 0.492164 0.148395
H8    H     H_    0.511254 0.113153 0.273184 0.159929
H9    H     H_    0.510847 0.888295 0.272995 0.159502
H10   H     H_    0.441521 0.888062 0.729497 0.208070
H11   H     H_    0.259780 0.490619 0.723970 0.139962
H12   H     H_    0.496716 0.888299 0.843411 0.181969
H13   H     H_    0.441675 0.110276 0.730072 0.201989
H14   H     H_    0.496988 0.109468 0.843663 0.189120
H15   H     H_    0.461354 0.332225 0.129638 0.143598
H16   H     H_    0.460557 0.333593 0.869663 0.142337
H17   H     H_    0.569967 0.741191 0.876130 0.107068
H18   H     H_    0.590937 0.605556 0.148628 0.218236
H19   H     H_    0.561920 0.757884 0.122808 0.159355
H20   H     H_    0.121117 0.195033 0.518255 0.206108
H21   H     H_    0.652494 0.377259 0.677254 0.140865
H22   H     H_    0.740682 0.380439 0.677711 0.145844
H23   H     H_    0.879661 0.192914 0.445520 0.187931
H24   H     H_    0.964928 0.191564 0.448942 0.142312
H25   H     H_    0.036096 0.190559 0.514312 0.149446
H26   H     H_    0.347276 0.512857 0.272980 0.161358
N1    N     N_R   0.202152 0.504786 0.499596 -0.471984
N2    N     N_R   0.797689 0.499228 0.494641 -0.466726
N3    N     N_R   0.500300 0.500930 0.147930 -0.174805
N4    N     N_R   0.500310 0.500890 0.852020 -0.180681
O1    O     O_R   0.500000 0.319640 0.618810 -0.590848
O2    O     O_2   0.797759 0.284257 0.456231 -0.540531
O3    O     O_2   0.204965 0.719537 0.474453 -0.497178
O4    O     O_2   0.796563 0.714231 0.532810 -0.533981
O5    O     O_R   0.500010 0.319680 0.381230 -0.591959
O6    O     O_R   0.430260 0.500000 0.618780 -0.582821
O7    O     O_R   0.430270 0.500040 0.381190 -0.577643
O8    O     O_R   0.499990 0.680320 0.618770 -0.583159
O9    O     O_R   0.500000 0.680360 0.381190 -0.577865
O10   O     O_R   0.569730 0.499960 0.618810 -0.540407
O11   O     O_R   0.569740 0.500000 0.381220 -0.593437
O12   O     O_2   0.202319 0.288101 0.515317 -0.529145
C55   C     C_2   0.124843 0.856668 0.508722 0.918088
O13   O     O_2   0.115510 0.935836 0.421083 -0.601253
O14   O     O_R   0.155161 0.884455 0.621735 -0.712868
H27   H     H_    0.167971 0.972290 0.617730 0.348944
O15   O     O_3   0.604879 0.569105 0.876542 -0.562169
C56   C     C_3   0.608288 0.450886 0.941693 0.124482
H28   H     H_    0.601933 0.378853 0.861213 0.147589
H29   H     H_    0.581381 0.431852 0.023846 0.140631
C57   C     C_3   0.658784 0.435124 0.003541 -0.377258
H30   H     H_    0.685698 0.437499 0.918047 0.226953
H31   H     H_    0.666818 0.512850 0.075917 0.225777
C58   C     C_3   0.663480 0.313510 0.083782 -0.885399
H32   H     H_    0.637980 0.311357 0.172944 0.262304
H33   H     H_    0.700622 0.304657 0.125866 0.276934
H34   H     H_    0.655978 0.234063 0.013323 0.251804

loop_
_geom_bond_atom_site_label_1
_geom_bond_atom_site_label_2
_ccdc_geom_bond_type
C10   C27   A    
C1    O1    A    
Cu2   O9    S    
C21   C26   A    
C40   C41   A    
O14   H27   S    
C57   H31   S    
C41   C42   S    
Cu1   Cu2   S    
C56   H29   S    
Cu1   O6    S    
C28   C29   A    
C34   O10   A    
C45   O12   S    
C4    C7    A    
C5    C6    A    
C9    C22   A    
C15   C16   A    
C19   N2    A    
C34   O11   A    
C18   C19   A    
C58   H32   S    
Cu2   O5    S    
C15   H23   S    
C16   C17   A    
C21   H22   S    
C57   H30   S    
C14   H24   S    
C16   C20   A    
C46   N3    A    
C1    O5    A    
C21   C22   A    
C27   C30   A    
C42   H12   S    
C39   H9    S    
C36   C41   A    
C45   N1    A    
Cu2   O11   S    
Cu1   O8    S    
C56   H28   S    
C4    C28   A    
C38   H8    S    
Cu2   O7    S    
C7    C31   A    
C47   N4    A    
C24   C25   A    
C2    H11   S    
C10   C14   A    
C8    C54   A    
C39   C40   A    
Cu1   O10   S    
C48   N4    A    
C25   C26   A    
C5    C45   A    
C53   H26   S    
C37   C38   A    
C55   O13   D    
C8    C12   S    
C17   C18   A    
C58   H34   S    
C46   H15   S    
C52   H2    S    
C48   C49   S    
C6    C30   A    
C11   C32   A    
C43   H14   S    
C31   C55   S    
C20   N2    A    
C2    C54   A    
C9    C34   S    
C57   C58   S    
C31   C35   A    
C12   O7    A    
C42   C43   S    
C44   N3    A    
C51   N1    A    
O15   C56   S    
C52   C53   A    
C44   C50   S    
C46   C47   A    
C36   C37   A    
C26   N2    S    
C55   O14   S    
C12   O6    A    
C22   H21   S    
C4    C5    A    
C10   C13   A    
C8    C53   A    
C49   O15   S    
C3    C52   A    
C9    C24   A    
C6    H20   S    
C1    C37   S    
C29   C35   A    
C23   O8    A    
C13   C17   A    
C32   C33   A    
C30   H25   S    
C50   H18   S    
C2    C3    A    
C7    C51   A    
C19   O4    S    
C50   H19   S    
C51   O3    S    
C3    N1    S    
C11   C13   A    
Cu2   N3    S    
C38   C39   A    
Cu1   N4    S    
C20   O2    S    
C23   O9    A    
C49   H17   S    
C25   H6    S    
Cu1   O1    S    
C18   C33   A    
C58   H33   S    
C47   H16   S    
C44   C48   A    
C11   C29   A    
C33   H5    S    
C49   C50   S    
C27   C28   A    
C42   H10   S    
C14   C15   A    
C36   C43   S    
C35   H7    S    
C24   H4    S    
C32   H3    S    
C43   H13   S    
C56   C57   S    
C23   C40   S    
C54   H1    S    
