data_mof_unit_17698.cif
_audit_creation_date              2012-12-11T14:48:12-0500
_audit_creation_method            fapswitch 2.2
_symmetry_space_group_name_H-M    P1
_symmetry_Int_Tables_number       1
_space_group_crystal_system       triclinic
_cell_length_a                    11.528748
_cell_length_b                    11.562373
_cell_length_c                    19.574163
_cell_angle_alpha                 90.198132
_cell_angle_beta                  90.025175
_cell_angle_gamma                 59.990727
_cell_volume                      2259.43206027

loop_
_atom_site_label
_atom_site_type_symbol
_atom_type_description
_atom_site_fract_x
_atom_site_fract_y
_atom_site_fract_z
_atom_type_partial_charge
C1    C     C_R   0.640507 0.116850 0.599358 0.568192
C2    C     C_1   0.653419 0.148843 0.668695 0.012816
C3    C     C_R   0.610442 0.602192 0.310916 0.009393
C4    C     C_R   0.612617 0.745814 0.598624 0.561967
C5    C     C_R   0.585274 0.616223 0.240970 -0.058698
C6    C     C_R   0.663708 0.651718 0.198221 -0.071893
C7    C     C_R   0.750526 0.690820 0.227006 -0.052759
C8    C     C_R   0.754801 0.699894 0.297883 -0.079299
C9    C     C_R   0.674388 0.665979 0.339182 0.002559
C10   C     C_R   0.093839 0.290293 0.311394 0.012449
C11   C     C_R   0.068785 0.312458 0.242099 -0.151938
C12   C     C_1   0.641386 0.703764 0.668000 0.014224
C13   C     C_R   0.130882 0.207297 0.194811 0.007721
C14   C     C_R   0.217831 0.076416 0.216897 -0.017122
C15   C     C_R   0.229524 0.051962 0.287381 -0.105718
C16   C     C_R   0.241271 0.144965 0.598243 0.566720
C17   C     C_R   0.179776 0.160015 0.334356 0.005478
C18   C     C_R   0.782586 0.116025 0.308939 0.012182
C19   C     C_R   0.797731 0.095758 0.238503 -0.084977
C20   C     C_R   0.684262 0.172309 0.195238 -0.038927
C21   C     C_R   0.554365 0.227518 0.221744 0.034052
C22   C     C_R   0.538451 0.237153 0.293489 -0.059105
C23   C     C_1   0.126250 0.199835 0.859214 0.011826
C24   C     C_R   0.654675 0.167047 0.336057 -0.017732
C25   C     C_R   0.081240 0.231870 0.928477 0.564086
C26   C     C_R   0.683755 0.604785 0.929460 0.545985
C27   C     C_R   0.708225 0.207275 0.930026 0.552623
C28   C     C_R   0.642629 0.115329 0.402538 0.594353
C29   C     C_R   0.082353 0.237211 0.125283 0.612278
C30   C     C_R   0.682543 0.609335 0.126827 0.531380
C31   C     C_R   0.709270 0.208126 0.126714 0.592706
C32   C     C_R   0.621348 0.735170 0.403896 0.583322
C33   C     C_R   0.242763 0.139909 0.401646 0.595843
C34   C     C_1   0.171632 0.170110 0.727741 -0.025384
C35   C     C_1   0.670283 0.646733 0.860066 0.010596
C36   C     C_1   0.654861 0.683644 0.728419 -0.026589
C37   C     C_1   0.663425 0.666806 0.799641 -0.026874
C38   C     C_2   0.559785 0.533878 0.356283 0.295104
C39   C     C_2   0.920125 0.973845 0.211846 0.281143
C40   C     C_2   0.439613 0.255027 0.175743 0.318175
C41   C     C_2   0.406532 0.339034 0.324051 0.285832
C42   C     C_2   0.471372 0.602986 0.213942 0.286813
C43   C     C_2   0.830575 0.729330 0.182517 0.236144
C44   C     C_1   0.841261 0.745551 0.326699 0.270932
C45   C     C_1   0.149921 0.182934 0.798933 -0.026211
C46   C     C_2   0.027471 0.405251 0.358458 0.286925
C47   C     C_2   0.306767 0.967210 0.168895 0.241493
C48   C     C_1   0.272918 0.917937 0.310610 0.232527
C49   C     C_2   0.896703 0.096305 0.353253 0.324402
C50   C     C_1   0.195600 0.160273 0.667443 0.014444
C51   C     C_1   0.678189 0.192222 0.860661 0.010993
C52   C     C_1   0.658839 0.166815 0.729004 -0.025936
C53   C     C_1   0.665546 0.181368 0.800264 -0.025975
Cr1   Cr    Cr6+3 0.404720 0.198220 0.499960 1.065880
Cr2   Cr    Cr6+3 0.698290 0.897110 0.500380 1.094083
Cr3   Cr    Cr6+3 0.396970 0.904720 0.499610 1.088589
Cr4   Cr    Cr6+3 0.926180 0.152240 0.028110 1.078549
Cr5   Cr    Cr6+3 0.921340 0.452070 0.027460 1.079551
Cr6   Cr    Cr6+3 0.626260 0.447120 0.028700 1.110110
H1    H     H_    0.997891 0.412641 0.225010 0.162819
H2    H     H_    0.993611 0.065985 0.331576 0.155892
H3    H     H_    0.464099 0.540961 0.347156 0.156184
H4    H     H_    0.915400 0.928005 0.164380 0.171275
H5    H     H_    0.353095 0.253354 0.195769 0.156072
H6    H     H_    0.402549 0.379184 0.374569 0.152159
H7    H     H_    0.398722 0.677726 0.179872 0.156483
H8    H     H_    0.785255 0.789413 0.137337 0.100452
H9    H     H_    0.013826 0.500365 0.342701 0.143651
H10   H     H_    0.386878 0.875239 0.189293 0.077221
N1    N     N_1   0.912633 0.779414 0.348874 -0.188854
N2    N     N_1   0.302765 0.811791 0.329013 -0.252881
O1    O     O_R   0.267740 0.231990 0.575440 -0.492371
O2    O     O_R   0.596140 0.579600 0.952720 -0.496747
O3    O     O_R   0.639070 0.321380 0.958660 -0.484268
O4    O     O_R   0.527280 0.186680 0.570530 -0.492424
O5    O     O_R   0.821240 0.124490 0.104360 -0.560825
O6    O     O_R   0.036900 0.167320 0.097830 -0.456146
O7    O     O_R   0.056190 0.349890 0.102870 -0.490465
O8    O     O_R   0.797670 0.565150 0.097930 -0.497295
O9    O     O_R   0.595880 0.584540 0.104260 -0.510391
O10   O     O_R   0.638830 0.325960 0.099140 -0.416567
O11   O     O_3   0.824590 0.350480 0.028090 -0.293251
O12   O     O_R   0.685970 0.784630 0.430010 -0.508016
O13   O     O_R   0.728090 0.003480 0.576380 -0.489710
O14   O     O_R   0.682970 0.789220 0.570490 -0.492621
O15   O     O_R   0.499290 0.771920 0.575530 -0.495137
O16   O     O_R   0.285330 0.030900 0.569730 -0.490506
O17   O     O_R   0.270980 0.227040 0.423900 -0.487114
O18   O     O_R   0.530280 0.182090 0.430050 -0.538135
O19   O     O_R   0.731330 0.998530 0.424830 -0.455886
O20   O     O_2   0.625200 0.470412 0.405648 -0.469333
O21   O     O_2   0.025046 0.917208 0.243486 -0.491753
O22   O     O_2   0.442382 0.271706 0.114398 -0.477320
O23   O     O_R   0.502530 0.766960 0.423990 -0.484582
O24   O     O_2   0.301478 0.387982 0.292479 -0.506329
O25   O     O_2   0.460663 0.505946 0.226492 -0.490187
O26   O     O_2   0.948921 0.688417 0.194072 -0.464550
O27   O     O_2   0.987416 0.394472 0.414504 -0.457558
O28   O     O_2   0.298092 0.980361 0.106958 -0.485752
O29   O     O_2   0.881592 0.123710 0.414091 -0.450534
O30   O     O_R   0.288330 0.026310 0.429250 -0.493744
O31   O     O_3   0.499990 0.000020 0.499980 -0.294275
O32   O     O_R   0.821500 0.119550 0.952820 -0.507093
O33   O     O_R   0.037130 0.162750 0.957360 -0.484082
O34   O     O_R   0.056440 0.344950 0.951330 -0.495371
O35   O     O_R   0.797900 0.560570 0.957460 -0.499437

loop_
_geom_bond_atom_site_label_1
_geom_bond_atom_site_label_2
_ccdc_geom_bond_type
C32   O23   A    
C5    C42   S    
C23   C45   T    
C19   C20   A    
C16   O1    A    
Cr6   O11   S    
C40   O22   D    
C26   O35   A    
Cr6   O10   S    
C25   O34   A    
C7    C8    A    
C1    O13   A    
Cr3   O23   S    
Cr2   O31   S    
C33   O30   A    
C19   C39   S    
Cr4   O5    S    
C13   C29   S    
C36   C37   S    
C35   C37   T    
C33   O17   A    
C16   C50   S    
Cr3   O30   S    
C18   C19   A    
Cr2   O19   S    
Cr5   O11   S    
C5    C6    A    
C22   C41   S    
C4    O15   A    
C10   C17   A    
C26   O2    A    
C47   O28   D    
C1    C2    S    
Cr4   O33   S    
C47   H10   S    
C9    C32   S    
C29   O7    A    
C3    C38   S    
C8    C9    A    
C10   C46   S    
C16   O16   A    
C44   N1    T    
C28   O18   A    
C18   C24   A    
C7    C43   S    
C12   C36   T    
C27   O3    A    
Cr6   O2    S    
C30   O9    A    
C46   O27   D    
C13   C14   A    
C17   C33   S    
C15   C48   S    
C27   C51   S    
Cr4   O32   S    
C34   C50   T    
C49   H2    S    
C1    O4    A    
Cr4   O6    S    
Cr1   O18   S    
Cr3   O16   S    
C41   H6    S    
C4    O14   A    
C38   O20   D    
Cr5   O35   S    
Cr2   O14   S    
C46   H9    S    
C3    C9    A    
Cr3   O15   S    
C29   O6    A    
C34   C45   S    
Cr6   O3    S    
C8    C44   S    
C6    C7    A    
C2    C52   T    
Cr5   O8    S    
C30   O8    A    
C6    C30   S    
C42   O25   D    
C4    C12   S    
C48   N2    T    
Cr2   O12   S    
C11   H1    S    
C39   O21   D    
C52   C53   S    
C15   C17   A    
C32   O12   A    
C14   C15   A    
Cr1   O31   S    
C24   C28   S    
C3    C5    A    
C31   O10   A    
Cr6   O9    S    
C25   O33   A    
C14   C47   S    
C39   H4    S    
C40   H5    S    
Cr5   O34   S    
Cr3   O31   S    
C49   O29   D    
Cr1   O17   S    
C11   C13   A    
C31   O5    A    
C41   O24   D    
C21   C40   S    
C27   O32   A    
C22   C24   A    
C23   C25   S    
C10   C11   A    
Cr5   O7    S    
Cr1   O4    S    
C26   C35   S    
Cr1   O1    S    
C20   C21   A    
C43   H8    S    
C43   O26   D    
C42   H7    S    
Cr4   O11   S    
C28   O19   A    
C51   C53   T    
Cr2   O13   S    
C21   C22   A    
C18   C49   S    
C38   H3    S    
C20   C31   S    
