data_mof_unit_13956.cif
_audit_creation_date              2013-03-05T15:42:26-0500
_audit_creation_method            fapswitch 2.2
_symmetry_space_group_name_H-M    P1
_symmetry_Int_Tables_number       1
_space_group_crystal_system       triclinic
_cell_length_a                    10.915072
_cell_length_b                    10.980245
_cell_length_c                    18.840571
_cell_angle_alpha                 90.159453
_cell_angle_beta                  89.798236
_cell_angle_gamma                 60.275719
_cell_volume                      1960.8963983

loop_
_atom_site_label
_atom_site_type_symbol
_atom_site_description
_atom_site_fract_x
_atom_site_fract_y
_atom_site_fract_z
_atom_type_partial_charge
O1    O     O_R   0.507340 0.255690 0.581430 -0.501006
O2    O     O_R   0.280360 0.527380 0.578910 -0.515732
C1    C     C_R   0.236848 0.644798 0.610143 0.530667
O3    O     O_R   0.260600 0.739610 0.584580 -0.532062
O4    O     O_R   0.532370 0.695050 0.573830 -0.485314
C2    C     C_R   0.650536 0.617225 0.603330 0.562008
O5    O     O_R   0.744850 0.503430 0.576380 -0.531455
O6    O     O_R   0.699080 0.276500 0.571950 -0.521645
C3    C     C_R   0.632668 0.220990 0.600200 0.560747
O7    O     O_R   0.498860 0.256520 0.419860 -0.494426
O8    O     O_R   0.272490 0.528150 0.429140 -0.518196
C4    C     C_R   0.220632 0.648443 0.402549 0.535380
O9    O     O_R   0.252110 0.740440 0.423010 -0.527587
O10   O     O_R   0.524510 0.695820 0.424050 -0.466353
C5    C     C_R   0.641696 0.623691 0.392276 0.583849
O11   O     O_R   0.736370 0.504260 0.414810 -0.538108
O12   O     O_R   0.691220 0.277270 0.422180 -0.525586
C6    C     C_R   0.617648 0.230118 0.394823 0.596070
Cr1   Cr    Cr6+3 0.392940 0.397950 0.502230 1.032107
Cr2   Cr    Cr6+3 0.398400 0.708500 0.501260 1.049233
Cr3   Cr    Cr6+3 0.708640 0.393530 0.496460 0.998848
O13   O     O_3   0.499990 0.499990 0.499980 -0.262177
C7    C     C_3   0.541287 0.770880 0.792076 -0.241333
H1    H     H_    0.509209 0.880231 0.806506 0.123099
H2    H     H_    0.467300 0.744973 0.820173 0.124798
C8    C     C_3   0.526874 0.761127 0.711457 -0.234012
H3    H     H_    0.438339 0.741445 0.700909 0.144533
H4    H     H_    0.501057 0.862673 0.686304 0.124448
H5    H     H_    0.782844 0.800469 0.780330 0.120637
H6    H     H_    0.760207 0.773108 0.661675 0.133689
C9    C     C_3   0.800360 0.693461 0.770053 -0.219726
C10   C     C_3   0.723813 0.517249 0.799736 -0.242269
C11   C     C_3   0.695086 0.667326 0.814909 0.056154
H7    H     H_    0.651689 0.494460 0.831757 0.122956
C12   C     C_3   0.665765 0.640304 0.679388 0.044909
C13   C     C_3   0.784664 0.675125 0.690309 -0.245311
C14   C     C_3   0.702270 0.502719 0.720291 -0.220192
H8    H     H_    0.616413 0.476833 0.713374 0.126772
H9    H     H_    0.800767 0.413378 0.698748 0.164624
H10   H     H_    0.910889 0.618776 0.785787 0.148681
H11   H     H_    0.885947 0.589299 0.668592 0.129695
H12   H     H_    0.510722 0.105466 0.676197 0.145088
C15   C     C_R   0.719596 0.089242 0.812615 -0.004945
C16   C     C_R   0.819592 0.113716 0.775489 0.022153
C17   C     C_R   0.809724 0.126384 0.700189 0.019364
C18   C     C_R   0.599138 0.105282 0.702172 -0.152286
C19   C     C_R   0.613884 0.081964 0.773802 -0.161990
C20   C     C_R   0.926801 0.129191 0.809297 -0.116868
C21   C     C_R   0.028729 0.140706 0.769754 -0.161526
C22   C     C_R   0.027978 0.135027 0.696152 -0.148011
C23   C     C_R   0.920629 0.126415 0.661561 -0.094615
C24   C     C_R   0.688424 0.139716 0.665737 -0.001240
H13   H     H_    0.934791 0.135379 0.865768 0.155726
H14   H     H_    0.537792 0.061227 0.799300 0.135050
H15   H     H_    0.111268 0.135254 0.665222 0.106884
H16   H     H_    0.927915 0.115909 0.604431 0.138963
H17   H     H_    0.178262 0.859407 0.694471 0.155158
C25   C     C_R   0.184699 0.668116 0.835149 -0.008759
C26   C     C_R   0.211342 0.543090 0.800693 0.016366
C27   C     C_R   0.203963 0.540170 0.725371 0.017464
C28   C     C_R   0.180755 0.772500 0.722287 -0.165165
C29   C     C_R   0.179441 0.777322 0.795198 -0.162131
C30   C     C_R   0.245834 0.420897 0.839793 -0.076515
C31   C     C_R   0.261494 0.301389 0.806155 -0.124466
C32   C     C_R   0.240560 0.302365 0.733520 -0.136319
C33   C     C_R   0.208451 0.421012 0.693595 -0.088794
C34   C     C_R   0.193826 0.655796 0.685580 -0.008809
H18   H     H_    0.265240 0.415471 0.896289 0.135676
H19   H     H_    0.168142 0.870830 0.820449 0.151767
H20   H     H_    0.289157 0.207995 0.836690 0.103358
H21   H     H_    0.252630 0.209338 0.707671 0.094542
H22   H     H_    0.184206 0.417431 0.638515 0.141958
C35   C     C_R   0.672695 0.654223 0.170616 0.007369
C36   C     C_R   0.792219 0.563663 0.213455 -0.007133
C37   C     C_R   0.786923 0.590460 0.286318 0.011332
C38   C     C_R   0.530849 0.720938 0.276493 -0.156438
C39   C     C_R   0.540175 0.725879 0.202534 0.190240
C40   C     C_R   0.914974 0.443727 0.187149 -0.079734
C41   C     C_R   0.035590 0.374785 0.228009 -0.150121
C42   C     C_R   0.034570 0.414692 0.297871 -0.126961
C43   C     C_R   0.913279 0.526939 0.326019 -0.059045
C44   C     C_R   0.653810 0.660452 0.319019 -0.018230
H23   H     H_    0.918269 0.396137 0.136364 0.140734
H24   H     H_    0.128760 0.288702 0.205088 0.100975
H25   H     H_    0.127297 0.357831 0.330451 0.119752
H26   H     H_    0.746257 0.307412 0.299223 0.148537
C45   C     C_R   0.635968 0.162651 0.176353 0.014761
C46   C     C_R   0.554609 0.124283 0.221394 -0.014096
C47   C     C_R   0.586696 0.105837 0.294052 0.011187
C48   C     C_R   0.704359 0.243675 0.278075 -0.153528
C49   C     C_R   0.707226 0.225766 0.205530 -0.143939
C50   C     C_R   0.438670 0.110571 0.198290 -0.086924
C51   C     C_R   0.368496 0.067276 0.245076 -0.169149
C52   C     C_R   0.416711 0.027975 0.313700 -0.125859
C53   C     C_R   0.532947 0.036656 0.337328 0.239430
C54   C     C_R   0.651026 0.178142 0.322821 0.027099
H27   H     H_    0.392940 0.143204 0.146340 0.170346
H28   H     H_    0.763448 0.262349 0.172224 0.122046
H29   H     H_    0.278494 0.059710 0.227603 0.158440
H30   H     H_    0.365398 0.987386 0.347799 0.151031
H31   H     H_    0.281071 0.444073 0.308681 0.143553
C55   C     C_R   0.122304 0.699619 0.189532 0.061948
C56   C     C_R   0.084430 0.819346 0.235191 0.045273
C57   C     C_R   0.076992 0.801648 0.308234 0.020644
C58   C     C_R   0.212216 0.549111 0.289233 -0.146377
C59   C     C_R   0.186391 0.565733 0.217536 -0.125003
C60   C     C_R   0.063721 0.952534 0.213333 -0.058208
C61   C     C_R   0.024486 0.061811 0.261634 -0.163364
C62   C     C_R   0.997143 0.046671 0.331791 -0.116760
C63   C     C_R   0.016008 0.918971 0.354407 -0.049733
C64   C     C_R   0.154630 0.666295 0.334781 0.003854
H32   H     H_    0.088066 0.975542 0.161533 0.192352
H33   H     H_    0.224032 0.474244 0.183487 0.129216
H34   H     H_    0.010213 0.160476 0.243696 0.113790
H35   H     H_    0.962727 0.133423 0.368682 0.132516
H36   H     H_    0.996910 0.908290 0.409910 0.153990
O14   O     O_R   0.089570 0.825450 0.930590 -0.519382
O15   O     O_R   0.818700 0.054260 0.929860 -0.517795
C65   C     C_R   0.725483 0.051416 0.888366 0.547417
O16   O     O_R   0.606310 0.077010 0.915520 -0.526119
O17   O     O_R   0.646730 0.806540 0.917560 -0.519570
C66   C     C_R   0.719975 0.684965 0.890072 0.540393
O18   O     O_R   0.837290 0.593240 0.915240 -0.526822
O19   O     O_R   0.065320 0.635310 0.931580 -0.510843
C67   C     C_R   0.120589 0.705185 0.906300 0.541757
O20   O     O_R   0.068470 0.828620 0.091850 -0.506857
O21   O     O_R   0.799150 0.057200 0.079350 -0.508085
C68   C     C_R   0.672637 0.106911 0.104358 0.555746
O22   O     O_R   0.585220 0.080180 0.076770 -0.523407
O23   O     O_R   0.627170 0.809480 0.067050 -0.439599
C69   C     C_R   0.697234 0.686463 0.097472 0.587794
O24   O     O_R   0.816200 0.596410 0.076500 -0.549392
O25   O     O_R   0.045770 0.638240 0.081070 -0.508349
C70   C     C_R   0.084671 0.716638 0.115106 0.592210
Cr4   Cr    Cr6+3 0.937880 0.938320 0.007620 1.021696
Cr5   Cr    Cr6+3 0.625560 0.937220 0.994510 1.043290
Cr6   Cr    Cr6+3 0.938080 0.625010 0.001190 1.003343
O26   O     O_3   0.833840 0.833520 0.001110 -0.274221
H37   H     H_    0.111478 0.148880 0.796728 0.110754
H38   H     H_    0.427556 0.759422 0.300346 0.148401
N1    N     N_R   0.417219 0.771510 0.159808 0.059156
O27   O     O_R   0.387817 0.677206 0.136957 -0.365870
O28   O     O_R   0.365166 0.889947 0.126220 -0.374768
H39   H     H_    0.916059 0.557275 0.380487 0.150312
N2    N     N_R   0.595478 0.975673 0.404505 0.077658
O29   O     O_R   0.730606 0.921851 0.413760 -0.391596
O30   O     O_R   0.520046 0.963424 0.454656 -0.346093
H40   H     H_    0.833868 0.438852 0.814403 0.150537

loop_
_geom_bond_atom_site_label_1
_geom_bond_atom_site_label_2
_geom_bond_distance
_ccdc_geom_bond_type
C25   C29   1.394563 A    
Cr4   O26   1.981129 S    
C45   C46   1.433156 A    
C35   C69   1.479962 S    
O25   Cr6   1.961715 S    
O11   Cr3   2.075672 S    
C45   C49   1.386651 A    
C6    C54   1.443842 S    
C35   C36   1.437935 A    
C12   C13   1.538267 S    
C53   N2    1.440017 S    
C68   O22   1.243830 A    
C42   H25   1.082058 S    
N2    O29   1.301188 A    
O4    Cr2   1.957182 S    
C61   C62   1.382560 A    
O8    Cr1   1.956642 S    
C8    H3    1.108274 S    
C51   C52   1.384731 A    
O4    C2    1.271779 A    
C12   C14   1.564173 S    
O21   Cr4   1.959306 S    
N1    O28   1.299565 A    
C41   H24   1.074964 S    
C17   C23   1.410414 A    
C5    O11   1.276786 A    
C18   C24   1.387829 A    
C2    C12   1.478756 S    
C23   H16   1.080647 S    
H12   C18   1.082712 S    
C7    C8    1.536500 S    
C61   H34   1.071082 S    
O15   C65   1.297833 A    
C9    H10   1.112935 S    
C18   C19   1.369426 A    
C40   H23   1.080827 S    
C43   H39   1.083184 S    
C33   H22   1.077260 S    
C46   C50   1.416343 A    
C27   C34   1.432733 A    
O6    C3    1.271810 A    
C7    C11   1.552735 S    
C60   C61   1.390283 A    
C9    C11   1.561551 S    
O21   C68   1.293577 A    
C31   H20   1.082231 S    
C51   H29   1.078600 S    
C58   C64   1.405405 A    
C27   C33   1.415833 A    
C26   C27   1.422852 A    
C49   H28   1.083909 S    
Cr3   O13   1.978902 S    
C13   H11   1.113206 S    
C52   C53   1.393054 A    
C3    C24   1.471144 S    
C45   C68   1.457159 S    
N2    O30   1.301471 A    
C50   H27   1.078691 S    
O12   C6    1.261870 A    
C5    C44   1.462902 S    
C38   H38   1.083798 S    
H31   C58   1.083522 S    
C20   H13   1.072538 S    
O23   Cr5   1.954965 S    
O1    Cr1   2.077898 S    
C36   C37   1.398133 A    
C59   H33   1.083856 S    
C55   C56   1.446174 A    
O10   Cr2   1.955746 S    
O19   Cr6   1.950747 S    
Cr1   O13   1.980051 S    
O1    C3    1.276256 A    
C38   C39   1.399942 A    
Cr5   O26   1.978910 S    
H26   C48   1.083889 S    
C38   C44   1.418081 A    
C40   C41   1.386012 A    
C37   C43   1.415752 A    
C17   C24   1.417785 A    
O24   Cr6   2.070046 S    
C32   H21   1.077603 S    
O12   Cr3   1.963908 S    
C41   C42   1.384367 A    
C29   H19   1.080295 S    
O16   Cr5   2.076064 S    
C10   H7    1.113176 S    
C47   C53   1.424091 A    
C15   C16   1.428044 A    
C55   C70   1.448895 S    
C14   H8    1.113900 S    
O22   Cr5   2.087138 S    
C28   C34   1.397781 A    
O23   C69   1.311843 A    
C52   H30   1.082437 S    
O7    Cr1   2.085708 S    
C7    H1    1.103991 S    
C22   C23   1.386185 A    
C60   H32   1.073789 S    
C10   C14   1.536054 S    
C4    O9    1.276711 A    
H17   C28   1.078492 S    
O17   C66   1.274475 A    
C19   H14   1.076003 S    
C20   C21   1.393905 A    
Cr2   O13   1.988438 S    
O20   Cr4   2.079666 S    
C21   C22   1.388165 A    
C21   H37   1.079584 S    
O25   C70   1.301480 A    
C1    O3    1.285508 A    
O14   Cr4   2.078889 S    
C63   H36   1.083554 S    
C16   C17   1.425105 A    
Cr6   O26   1.988253 S    
C30   H18   1.082056 S    
O9    Cr2   2.076119 S    
O2    Cr1   1.964981 S    
C9    C13   1.536715 S    
C8    H4    1.113341 S    
C1    C34   1.480955 S    
C42   C43   1.387924 A    
O6    Cr3   1.956305 S    
C57   C64   1.391147 A    
C65   O16   1.290253 A    
C37   C44   1.401790 A    
C48   C54   1.408088 A    
C2    O5    1.263346 A    
C10   H40   1.112932 S    
C58   C59   1.374954 A    
O18   Cr6   2.084282 S    
C26   C30   1.411078 A    
C22   H15   1.079177 S    
H6    C13   1.113223 S    
C10   C11   1.542692 S    
C47   C54   1.403655 A    
O2    C1    1.273061 A    
C25   C26   1.410117 A    
H5    C9    1.109187 S    
O5    Cr3   2.084872 S    
C62   C63   1.381191 A    
C31   C32   1.387414 A    
C57   C63   1.413763 A    
C48   C49   1.378347 A    
C11   C66   1.473122 S    
O14   C67   1.272812 A    
O7    C6    1.268807 A    
C50   C51   1.395832 A    
C55   C59   1.384213 A    
C7    H2    1.113078 S    
O17   Cr5   1.967603 S    
C28   C29   1.374302 A    
C39   N1    1.429418 S    
C62   H35   1.082228 S    
C30   C31   1.387442 A    
O3    Cr2   2.077050 S    
C16   C20   1.416254 A    
C8    C12   1.554993 S    
C46   C47   1.404346 A    
O20   C70   1.234124 A    
C25   C67   1.469787 S    
C14   H9    1.109849 S    
C32   C33   1.392980 A    
C36   C40   1.420251 A    
C56   C57   1.398068 A    
C35   C39   1.391271 A    
O10   C5    1.268503 A    
C56   C60   1.426735 A    
C66   O18   1.267648 A    
N1    O27   1.299457 A    
C15   C19   1.403415 A    
C4    C64   1.433691 S    
O15   Cr4   1.959798 S    
C69   O24   1.241353 A    
O8    C4    1.257097 A    
C15   C65   1.480195 S    
O19   C67   1.280020 A    
