data_mof_unit_38527.cif
_audit_creation_date              2012-12-10T20:28:39-0500
_audit_creation_method            fapswitch 2.2
_symmetry_space_group_name_H-M    P1
_symmetry_Int_Tables_number       1
_space_group_crystal_system       triclinic
_cell_length_a                    10.687627
_cell_length_b                    10.702978
_cell_length_c                    9.92795
_cell_angle_alpha                 85.658861
_cell_angle_beta                  89.756569
_cell_angle_gamma                 92.08754
_cell_volume                      1131.61497086

loop_
_atom_site_label
_atom_site_type_symbol
_atom_type_description
_atom_site_fract_x
_atom_site_fract_y
_atom_site_fract_z
_atom_type_partial_charge
C1    C     C_R   0.504676 0.259697 0.503925 0.868749
C2    C     C_R   0.053893 0.495804 0.621752 0.056675
C3    C     C_R   0.124410 0.520495 0.500623 -0.175994
C4    C     C_R   0.066485 0.578738 0.384669 0.210364
C5    C     C_R   0.936891 0.585306 0.383924 -0.306086
C6    C     C_R   0.870140 0.557319 0.503624 -0.148184
C7    C     C_R   0.410488 0.053842 0.561323 -0.016331
C8    C     C_R   0.512790 0.126002 0.508444 -0.178870
C9    C     C_R   0.598006 0.071125 0.422303 0.287805
C10   C     C_R   0.589134 0.941617 0.412466 -0.264222
C11   C     C_R   0.493454 0.870765 0.480945 -0.113551
C12   C     C_R   0.258688 0.501884 0.500191 0.884924
C13   C     C_R   0.397523 0.928460 0.542591 0.006579
C14   C     C_3   0.333691 0.894007 0.674383 -0.450781
C15   C     C_3   0.360812 0.030567 0.702864 0.414643
C16   C     C_R   0.477522 0.391807 0.080906 0.171112
C17   C     C_R   0.536096 0.604159 0.063092 -0.160539
C18   C     C_R   0.537294 0.603699 0.919638 -0.140241
C19   C     C_R   0.475331 0.391746 0.939112 0.148396
C20   C     C_3   0.356041 0.313161 0.951458 -0.740000
C21   C     C_3   0.368160 0.303459 0.105190 0.692073
C22   C     C_R   0.499164 0.739347 0.494880 0.867927
C23   C     C_R   0.737912 0.522291 0.499192 0.875531
C24   C     C_R   0.094761 0.423580 0.736318 -0.205123
C25   C     C_R   0.028912 0.418231 0.858525 -0.196838
C26   C     C_R   0.923129 0.490555 0.870424 0.287296
C27   C     C_R   0.879529 0.556323 0.754383 -0.210591
C28   C     C_R   0.934591 0.542072 0.626913 0.080607
H1    H     H_    0.379421 0.822045 0.740622 0.214796
H2    H     H_    0.563471 0.689024 0.109681 0.145349
H3    H     H_    0.567814 0.687370 0.859367 0.146866
H4    H     H_    0.276640 0.369094 0.916631 0.185694
H5    H     H_    0.360480 0.223377 0.907843 0.239696
H6    H     H_    0.173783 0.366284 0.730076 0.161739
H7    H     H_    0.062641 0.359646 0.942962 0.143991
H8    H     H_    0.798080 0.612523 0.763242 0.149264
H9    H     H_    0.888684 0.613112 0.291281 0.168844
H10   H     H_    0.661039 0.895697 0.359099 0.150844
H11   H     H_    0.233006 0.870143 0.658147 0.186758
N1    N     N_R   0.499160 0.499140 0.142800 -0.130612
N2    N     N_R   0.499160 0.499180 0.857150 -0.085783
O1    O     O_R   0.500020 0.316790 0.614690 -0.636611
O2    O     O_R   0.500000 0.316760 0.385350 -0.553815
O3    O     O_R   0.316770 0.500020 0.614690 -0.624620
O4    O     O_R   0.316760 0.499980 0.385350 -0.559773
O5    O     O_R   0.500000 0.683240 0.614650 -0.639553
O6    O     O_R   0.499980 0.683210 0.385310 -0.629955
O7    O     O_R   0.683240 0.500020 0.614650 -0.615445
O8    O     O_R   0.683230 0.499980 0.385310 -0.635446
Zn1   Zn    Zn3+2 0.500010 0.500020 0.653130 0.934412
Zn2   Zn    Zn3+2 0.499990 0.499980 0.346870 0.965172
N3    N     N_2   0.136587 0.628618 0.269202 -0.284610
H12   H     H_    0.089410 0.624922 0.179128 0.214375
C29   C     C_3   0.192244 0.752218 0.282910 -0.748088
H13   H     H_    0.118085 0.822165 0.285652 0.219310
H14   H     H_    0.255282 0.778874 0.195418 0.227373
H15   H     H_    0.248174 0.753661 0.376690 0.242673
N4    N     N_2   0.248530 0.099521 0.719853 -0.309615
H16   H     H_    0.260676 0.194888 0.702525 0.212772
C30   C     C_3   0.161908 0.054761 0.826908 -0.824746
H17   H     H_    0.128528 0.134865 0.880341 0.229534
H18   H     H_    0.206091 0.987150 0.900927 0.246219
H19   H     H_    0.079796 0.007098 0.782361 0.251869
N5    N     N_2   0.456770 0.054679 0.804019 -0.306730
H20   H     H_    0.500719 0.141736 0.788579 0.249398
C31   C     C_3   0.545280 0.960351 0.846171 -0.867857
H21   H     H_    0.619142 0.002174 0.909091 0.241830
H22   H     H_    0.591049 0.923835 0.757280 0.258835
H23   H     H_    0.497185 0.883890 0.910425 0.235614
N6    N     N_2   0.267277 0.359255 0.176934 -0.263765
H24   H     H_    0.233194 0.439904 0.129219 0.201663
C32   C     C_3   0.171451 0.277806 0.244213 -0.754530
H25   H     H_    0.110279 0.333656 0.304797 0.229884
H26   H     H_    0.213830 0.206971 0.315810 0.267572
H27   H     H_    0.112370 0.232259 0.168976 0.206162
O9    O     O_3   0.411753 0.190443 0.170550 -0.574703
C33   C     C_3   0.344245 0.081662 0.136315 -0.348399
H28   H     H_    0.251728 0.099670 0.090523 0.166313
H29   H     H_    0.328509 0.018973 0.229475 0.194012
H30   H     H_    0.401309 0.030946 0.066715 0.210194
N7    N     N_2   0.852240 0.491111 0.992556 -0.307194
H31   H     H_    0.816030 0.575840 0.012555 0.213406
C34   C     C_3   0.885155 0.409880 0.108756 -0.841709
H32   H     H_    0.813389 0.413778 0.189045 0.273724
H33   H     H_    0.977095 0.440348 0.147659 0.240343
H34   H     H_    0.888671 0.311643 0.081135 0.247528
N8    N     N_2   0.697602 0.142378 0.353739 -0.305744
H35   H     H_    0.722682 0.228615 0.387124 0.225070
C35   C     C_3   0.708015 0.133556 0.209113 -0.711962
H36   H     H_    0.806255 0.114791 0.183138 0.212227
H37   H     H_    0.680776 0.222913 0.155210 0.256997
H38   H     H_    0.646501 0.057413 0.172675 0.247614

loop_
_geom_bond_atom_site_label_1
_geom_bond_atom_site_label_2
_ccdc_geom_bond_type
C31   H22   S    
N8    H35   S    
C16   C21   S    
C5    H9    S    
C1    C8    S    
C19   C20   S    
N7    H31   S    
C7    C8    A    
C33   H28   S    
C21   O9    S    
C26   C27   A    
C4    N3    S    
C30   H19   S    
C5    C6    A    
C23   O8    A    
C31   H23   S    
O4    Zn2   S    
N4    C30   S    
C30   H18   S    
C3    C12   S    
C14   H11   S    
C1    O2    A    
C6    C28   A    
C8    C9    A    
O8    Zn2   S    
C15   N5    S    
N6    H24   S    
C35   H37   S    
C9    C10   A    
O7    Zn1   S    
C31   H21   S    
C13   C14   S    
C17   H2    S    
C32   H27   S    
N7    C34   S    
N3    C29   S    
C33   H29   S    
C29   H14   S    
O9    C33   S    
C32   H26   S    
C18   N2    A    
C25   H7    S    
C32   H25   S    
O6    Zn2   S    
N4    H16   S    
C24   H6    S    
C30   H17   S    
C17   N1    A    
N5    C31   S    
C34   H32   S    
C17   C18   A    
C24   C25   A    
C35   H38   S    
C16   N1    A    
C20   H5    S    
C34   H33   S    
O1    Zn1   S    
C26   N7    S    
N8    C35   S    
C2    C24   A    
C15   N4    S    
C14   H1    S    
C3    C4    A    
N2    Zn1   S    
N3    H12   S    
C20   H4    S    
C33   H30   S    
O3    Zn1   S    
C29   H13   S    
C23   O7    A    
C22   O5    A    
C4    C5    A    
N6    C32   S    
C12   O4    A    
C27   H8    S    
N1    Zn2   S    
O5    Zn1   S    
C11   C22   S    
C21   N6    S    
C10   H10   S    
N5    H20   S    
C2    C3    A    
C25   C26   A    
C12   O3    A    
C9    N8    S    
C11   C13   A    
O2    Zn2   S    
C16   C19   A    
C6    C23   S    
C7    C15   S    
C22   O6    A    
C10   C11   A    
C1    O1    A    
C7    C13   A    
C34   H34   S    
C20   C21   S    
C27   C28   A    
C14   C15   S    
C2    C28   A    
C18   H3    S    
C35   H36   S    
C19   N2    A    
C29   H15   S    
