data_mof_unit_55134.cif
_audit_creation_date              2012-12-11T18:13:28-0500
_audit_creation_method            fapswitch 2.2
_symmetry_space_group_name_H-M    P1
_symmetry_Int_Tables_number       1
_space_group_crystal_system       triclinic
_cell_length_a                    8.23306
_cell_length_b                    12.673778
_cell_length_c                    18.710842
_cell_angle_alpha                 99.582702
_cell_angle_beta                  91.337295
_cell_angle_gamma                 98.282342
_cell_volume                      1902.80112409

loop_
_atom_site_label
_atom_site_type_symbol
_atom_type_description
_atom_site_fract_x
_atom_site_fract_y
_atom_site_fract_z
_atom_type_partial_charge
Ba1   Ba    Ba6+2 0.852780 0.548340 0.465070 1.421086
Ba2   Ba    Ba6+2 0.337060 0.451750 0.534940 1.238868
C1    C     C_3   0.513350 0.849790 0.212668 0.257472
C2    C     C_R   0.891809 0.401252 0.095768 0.040887
C3    C     C_R   0.729146 0.356406 0.073027 -0.083823
C4    C     C_3   0.097348 0.753992 0.265493 0.261884
C5    C     C_R   0.668442 0.361233 0.003449 -0.099063
C6    C     C_R   0.769887 0.409701 0.954973 0.035541
C7    C     C_R   0.932954 0.455664 0.977308 0.026625
C8    C     C_R   0.710986 0.411095 0.884339 -0.121001
C9    C     C_R   0.813713 0.455232 0.833983 -0.044799
C10   C     C_R   0.976345 0.505068 0.856892 0.003833
C11   C     C_R   0.035094 0.504986 0.928904 -0.009545
C12   C     C_3   0.582822 0.808876 0.277917 1.143674
C13   C     C_R   0.760026 0.448712 0.760891 0.002523
C14   C     C_R   0.868317 0.488540 0.711710 -0.294541
C15   C     C_R   0.025301 0.544369 0.733855 0.053875
C16   C     C_3   0.067547 0.776517 0.189180 -0.336419
C17   C     C_R   0.080633 0.554109 0.807986 -0.055400
C18   C     C_R   0.156050 0.497957 0.071328 -0.008733
C19   C     C_R   0.214455 0.497709 0.143459 -0.011090
C20   C     C_R   0.109028 0.450865 0.192810 -0.049757
C21   C     C_R   0.952238 0.397701 0.165865 -0.032579
C22   C     C_R   0.237757 0.608569 0.834712 -0.038103
C23   C     C_3   0.438499 0.275400 0.314510 0.300194
C24   C     C_R   0.298999 0.603127 0.904630 0.029962
C25   C     C_R   0.197514 0.551343 0.952015 0.017844
C26   C     C_R   0.258575 0.546624 0.022794 -0.000063
C27   C     C_R   0.461998 0.647055 0.927527 -0.067234
C28   C     C_3   0.236894 0.787046 0.619997 0.290605
C29   C     C_R   0.523612 0.639802 0.996607 -0.090025
C30   C     C_R   0.422383 0.590673 0.044893 0.053174
C31   C     C_R   0.377953 0.544443 0.165933 -0.070715
C32   C     C_R   0.482023 0.586700 0.115139 -0.101849
C33   C     C_R   0.430862 0.549915 0.239074 0.026073
C34   C     C_3   0.368273 0.229926 0.237499 -0.388686
C35   C     C_R   0.322402 0.511688 0.288707 -0.263960
C36   C     C_R   0.163495 0.459953 0.267242 0.049320
C37   C     C_R   0.768456 0.180845 0.523556 -0.263164
C38   C     C_R   0.428546 0.807857 0.470756 -0.229311
C39   C     C_R   0.402021 0.984273 0.444507 -0.068103
C40   C     C_3   0.251442 0.909549 0.636007 -0.399410
C41   C     C_R   0.337553 0.876151 0.441660 0.046897
C42   C     C_R   0.577748 0.848569 0.509512 0.049046
C43   C     C_R   0.642727 0.960425 0.516142 -0.047584
C44   C     C_R   0.554398 0.028106 0.481347 -0.039369
C45   C     C_3   0.062912 0.241444 0.735100 0.326639
C46   C     C_R   0.619521 0.138336 0.485374 0.042480
C47   C     C_R   0.857945 0.115655 0.556750 0.018079
C48   C     C_R   0.793650 0.006623 0.554863 -0.085149
C49   C     C_3   0.890277 0.192145 0.325396 0.271302
C50   C     C_3   0.780201 0.167929 0.255854 -0.348589
C51   C     C_3   0.729462 0.707896 0.682960 0.293976
C52   C     C_3   0.751528 0.746607 0.764524 -0.406281
C53   C     C_2   0.941163 0.089650 0.342721 0.908732
C54   C     C_3   0.084250 0.219225 0.811925 -0.352445
C55   C     C_3   0.561857 0.180374 0.700910 0.318537
C56   C     C_3   0.614213 0.099366 0.744959 -0.386914
C57   C     C_R   0.993613 0.451981 0.048210 -0.006403
H1    H     H_    0.335406 0.941822 0.684211 0.128888
H2    H     H_    0.453447 0.922343 0.231016 0.035382
H3    H     H_    0.856771 0.813331 0.776858 0.133686
H4    H     H_    0.775506 0.679562 0.792533 0.060501
H5    H     H_    0.638311 0.776398 0.785432 0.125712
H6    H     H_    0.477522 0.769548 0.304986 -0.741992
H7    H     H_    0.418324 0.785625 0.183230 0.013544
H8    H     H_    0.341554 0.310250 0.346334 0.070083
H9    H     H_    0.542818 0.340970 0.312807 0.031992
H10   H     H_    0.259541 0.167472 0.238812 0.168071
H11   H     H_    0.331600 0.295262 0.210971 0.057714
H12   H     H_    0.300860 0.944862 0.589330 0.081613
H13   H     H_    0.460066 0.191803 0.203879 0.107377
H14   H     H_    0.076356 0.703194 0.148683 0.064898
H15   H     H_    0.146737 0.316562 0.730358 0.110940
H16   H     H_    0.933915 0.253622 0.725807 -0.056485
H17   H     H_    0.214593 0.212425 0.824092 0.150431
H18   H     H_    0.048173 0.286181 0.851441 0.071993
H19   H     H_    0.006011 0.142509 0.817963 0.111311
H20   H     H_    0.671983 0.214455 0.674328 -0.047902
H21   H     H_    0.469762 0.137425 0.657619 0.085943
H22   H     H_    0.710512 0.140884 0.786758 0.110450
H23   H     H_    0.128760 0.933560 0.646957 0.159995
H24   H     H_    0.663931 0.034097 0.708805 0.091218
H25   H     H_    0.999769 0.689567 0.275593 0.117934
H26   H     H_    0.507863 0.063279 0.772772 0.127664
H27   H     H_    0.648325 0.318260 0.109310 0.059498
H28   H     H_    0.542303 0.326197 0.987340 0.076169
H29   H     H_    0.826671 0.480170 0.655498 0.084146
H30   H     H_    0.585087 0.375611 0.869103 0.117459
H31   H     H_    0.872013 0.357000 0.199719 0.091670
H32   H     H_    0.316801 0.652702 0.801031 0.102411
H33   H     H_    0.542708 0.685978 0.891660 0.063301
H34   H     H_    0.826277 0.230917 0.371836 -0.050712
H35   H     H_    0.650213 0.673793 0.012574 0.098424
H36   H     H_    0.608946 0.619960 0.130089 0.114005
H37   H     H_    0.216896 0.724626 0.268714 0.077493
H38   H     H_    0.365028 0.518226 0.344637 0.083658
H39   H     H_    0.329674 0.033013 0.418644 0.143265
H40   H     H_    0.864295 0.959435 0.582883 0.107951
H41   H     H_    0.818671 0.264999 0.525092 0.076249
H42   H     H_    0.377782 0.723360 0.466991 0.074168
H43   H     H_    0.943797 0.799469 0.182976 0.202279
H44   H     H_    0.159471 0.844241 0.178247 0.116291
H45   H     H_    0.725421 0.239950 0.249168 0.095563
H46   H     H_    0.358401 0.764047 0.607107 0.015142
H47   H     H_    0.148319 0.756777 0.572903 0.080257
H48   H     H_    0.706675 0.866581 0.368042 0.331679
H49   H     H_    0.037182 0.164130 0.440043 0.272376
H50   H     H_    0.709162 0.938157 0.187944 0.333605
H51   H     H_    0.678440 0.101472 0.258840 0.122252
H52   H     H_    0.851716 0.144603 0.207592 0.109206
H53   H     H_    0.845504 0.683372 0.662378 0.030094
H54   H     H_    0.629196 0.637810 0.672263 0.081030
O1    O     O_2   0.873090 0.425890 0.325140 -0.471236
O2    O     O_2   0.198592 0.121631 0.554303 -0.457171
O3    O     O_3   0.101494 0.153226 0.685881 -0.594998
O4    O     O_3   0.122420 0.434370 0.414380 -0.455903
O5    O     O_3   0.578370 0.633800 0.536380 -0.475478
O6    O     O_2   0.341510 0.231850 0.465510 -0.441272
O7    O     O_3   0.492424 0.191551 0.344662 -0.641673
O8    O     O_2   0.419994 0.453906 0.757148 -0.490914
O9    O     O_3   0.489257 0.258145 0.747059 -0.590565
O10   O     O_3   0.659500 0.627100 0.368810 -0.439221
O11   O     O_2   0.769059 0.544663 0.242938 -0.518618
O12   O     O_3   0.690399 0.793288 0.650534 -0.638852
O13   O     O_3   0.036914 0.254950 0.313958 -0.675915
O14   O     O_3   0.699033 0.740512 0.253906 -0.603369
O15   O     O_2   0.848200 0.768190 0.534530 -0.465727
O16   O     O_3   0.081160 0.685950 0.404810 -0.500477
O17   O     O_2   0.001399 0.879968 0.449148 -0.434628
O18   O     O_3   0.659518 0.897064 0.328112 -0.737398
O19   O     O_2   0.932135 0.009366 0.295895 -0.545426
O20   O     O_R   0.018433 0.089370 0.409523 -0.711450
O21   O     O_3   0.635116 0.872685 0.163945 -0.743506
O22   O     O_3   0.094906 0.849091 0.315805 -0.524009
O23   O     O_2   0.316610 0.574140 0.674900 -0.461567
O24   O     O_3   0.067290 0.565720 0.585630 -0.478687
O25   O     O_3   0.530210 0.372990 0.631200 -0.456460
O26   O     O_3   0.184321 0.746828 0.682017 -0.632350
O27   O     O_3   0.611340 0.366290 0.463630 -0.462958
O28   O     O_3   0.108550 0.314140 0.595200 -0.472019
P1    P     P_3+3 0.041040 0.394770 0.336330 0.991381
P2    P     P_3+3 0.672880 0.754030 0.556100 0.982520
P3    P     P_3+3 0.128770 0.823693 0.403672 1.048636
P4    P     P_3+3 0.148670 0.605320 0.663680 0.983241
P5    P     P_3+3 0.065167 0.175188 0.597344 0.977947
P6    P     P_3+3 0.638521 0.612055 0.275098 0.995523
P7    P     P_3+3 0.520419 0.230454 0.438695 0.966065
P8    P     P_3+3 0.550715 0.386300 0.724998 0.967620

loop_
_geom_bond_atom_site_label_1
_geom_bond_atom_site_label_2
_ccdc_geom_bond_type
C23   O7    S    
C54   H17   S    
C39   C41   A    
C55   H20   S    
C23   H8    S    
Ba1   O15   S    
O27   P7    S    
C35   H38   S    
Ba2   O5    S    
C5    C6    A    
O16   P3    S    
C51   C52   S    
C42   C43   A    
Ba2   P4    S    
O2    P5    D    
C48   H40   S    
C35   C36   A    
O1    P1    D    
O24   P4    S    
C33   C35   A    
C22   C24   A    
Ba1   O16   S    
C19   C31   A    
C52   H4    S    
C13   C14   A    
C20   C36   A    
C54   H19   S    
C2    C57   A    
Ba1   Ba2   S    
C16   H43   S    
C7    C11   A    
Ba1   P1    S    
C31   C33   A    
C55   O9    S    
C9    C13   A    
C38   C41   A    
C5    H28   S    
C8    H30   S    
C34   H11   S    
C6    C7    A    
C40   H23   S    
C39   C44   A    
O17   P3    D    
O23   P4    D    
C16   H44   S    
C38   H42   S    
C19   C20   A    
C28   H47   S    
C36   P1    S    
C55   H21   S    
C41   P3    S    
C23   H9    S    
Ba2   O4    S    
C51   H54   S    
C55   C56   S    
C12   O18   S    
C1    H2    S    
O25   P8    S    
C45   O3    S    
C4    C16   S    
O11   P6    D    
C44   C46   A    
C4    H25   S    
C49   C50   S    
Ba2   O25   S    
O9    P8    S    
C26   C30   A    
C32   H36   S    
H48   O18   S    
O5    P2    S    
C56   H22   S    
C40   H1    S    
C3    C5    A    
C2    C21   A    
C14   C15   A    
C33   P6    S    
C52   H3    S    
C50   H52   S    
O6    P7    D    
C43   C44   A    
O13   P1    S    
Ba2   O23   S    
C12   O14   S    
C7    C57   A    
C30   C32   A    
C15   P4    S    
Ba1   O10   S    
C4    O22   S    
Ba1   P2    S    
C29   C30   A    
C53   O19   D    
C50   H51   S    
Ba2   O6    S    
C31   C32   A    
C24   C25   A    
C21   H31   S    
Ba1   O4    S    
C10   C11   A    
C18   C57   A    
Ba1   O27   S    
C1    C12   S    
C51   O12   S    
O28   P5    S    
C49   H34   S    
C3    H27   S    
C51   H53   S    
O22   P3    S    
C37   C47   A    
C45   C54   S    
O10   P6    S    
O7    P7    S    
C16   H14   S    
C4    H37   S    
C28   H46   S    
C50   H45   S    
C1    H7    S    
Ba1   O1    S    
C56   H26   S    
C13   P8    S    
Ba1   O24   S    
C34   H10   S    
O26   P4    S    
C28   O26   S    
H50   O21   S    
C39   H39   S    
C49   O13   S    
C28   C40   S    
C45   H15   S    
C2    C3    A    
C9    C10   A    
Ba2   O24   S    
C29   H35   S    
C18   C26   A    
C1    O21   S    
Ba2   O27   S    
C17   C22   A    
C45   H16   S    
H49   O20   S    
C27   C29   A    
C53   O20   S    
C56   H24   S    
O3    P5    S    
C37   H41   S    
C52   H5    S    
C43   C48   A    
O12   P2    S    
C42   P2    S    
C46   P7    S    
C10   C17   A    
C40   H12   S    
C15   C17   A    
C12   H6    S    
O8    P8    D    
C47   P5    S    
O4    P1    S    
C49   C53   S    
Ba1   O5    S    
O15   P2    D    
C8    C9    A    
C54   H18   S    
C23   C34   S    
C22   H32   S    
C38   C42   A    
C18   C19   A    
C24   C27   A    
C6    C8    A    
C47   C48   A    
C25   C26   A    
C14   H29   S    
Ba2   O28   S    
C20   C21   A    
C11   C25   A    
C27   H33   S    
C34   H13   S    
O14   P6    S    
C37   C46   A    
