data_mof_unit_17228.cif
_audit_creation_date              2013-03-05T15:45:05-0500
_audit_creation_method            fapswitch 2.2
_symmetry_space_group_name_H-M    P1
_symmetry_Int_Tables_number       1
_space_group_crystal_system       triclinic
_cell_length_a                    7.222278
_cell_length_b                    19.174521
_cell_length_c                    19.03444
_cell_angle_alpha                 89.999717
_cell_angle_beta                  86.646375
_cell_angle_gamma                 90.000068
_cell_volume                      2631.44600878

loop_
_atom_site_label
_atom_site_type_symbol
_atom_site_description
_atom_site_fract_x
_atom_site_fract_y
_atom_site_fract_z
_atom_type_partial_charge
O1    O     O_R   0.350610 0.187000 0.656530 -0.575292
O2    O     O_R   0.649390 0.813000 0.343470 -0.575341
O3    O     O_R   0.149390 0.687000 0.343470 -0.575469
O4    O     O_R   0.850610 0.313000 0.656530 -0.575361
O5    O     O_R   0.655920 0.179060 0.799470 -0.575915
O6    O     O_R   0.344080 0.820940 0.200530 -0.575925
O7    O     O_R   0.844080 0.679060 0.200530 -0.575917
O8    O     O_R   0.155920 0.320940 0.799470 -0.575911
O9    O     O_R   0.826150 0.314000 0.799910 -0.566478
O10   O     O_R   0.173850 0.686000 0.200090 -0.566554
O11   O     O_R   0.673850 0.814000 0.200090 -0.566529
O12   O     O_R   0.326150 0.186000 0.799910 -0.566471
C1    C     C_R   0.484637 0.161595 0.822885 0.976067
C2    C     C_R   0.515363 0.838405 0.177115 0.976209
C3    C     C_R   0.015363 0.661596 0.177114 0.976554
C4    C     C_R   0.984637 0.338404 0.822885 0.976273
O13   O     O_R   0.680230 0.178680 0.657050 -0.581797
O14   O     O_R   0.319770 0.821320 0.342950 -0.581788
O15   O     O_R   0.819770 0.678680 0.342950 -0.581871
O16   O     O_R   0.180230 0.321320 0.657050 -0.581867
C5    C     C_R   0.516024 0.163179 0.632794 0.981564
C6    C     C_R   0.483981 0.836829 0.367196 0.981729
C7    C     C_R   0.983971 0.663179 0.367200 0.982039
C8    C     C_R   0.016032 0.336814 0.632789 0.981747
O17   O     O_3   0.504860 0.294770 0.728200 -0.256225
O18   O     O_3   0.495140 0.705230 0.271800 -0.256232
O19   O     O_3   0.995140 0.794770 0.271800 -0.256162
O20   O     O_3   0.004860 0.205230 0.728200 -0.256157
V1    V     V_3+5 0.779710 0.242290 0.728230 1.291623
V2    V     V_3+5 0.220290 0.757710 0.271770 1.291619
V3    V     V_3+5 0.720290 0.742290 0.271770 1.291619
V4    V     V_3+5 0.279710 0.257710 0.728230 1.291608
C9    C     C_1   0.030077 0.611194 0.119367 -0.146156
C10   C     C_1   0.969923 0.388806 0.880633 -0.146392
C11   C     C_1   0.469921 0.111194 0.880633 -0.146536
C12   C     C_1   0.530079 0.888807 0.119367 -0.146394
C13   C     C_2   0.068589 0.522574 0.009321 0.151251
C14   C     C_2   0.931412 0.477425 0.990680 0.151258
C15   C     C_2   0.431411 0.022575 0.990679 0.151229
C16   C     C_2   0.568589 0.977425 0.009321 0.151227
C17   C     C_1   0.956277 0.429753 0.929903 0.164042
C18   C     C_1   0.043723 0.570247 0.070097 0.164060
C19   C     C_1   0.543725 0.929754 0.070097 0.164025
C20   C     C_1   0.456275 0.070247 0.929903 0.164019
C21   C     C_R   0.021271 0.387916 0.573514 -0.354997
C22   C     C_R   0.978784 0.612059 0.426451 -0.354643
C23   C     C_R   0.478795 0.887939 0.426459 -0.354790
C24   C     C_R   0.521253 0.112081 0.573515 -0.355062
C25   C     C_R   0.827960 0.566879 0.535548 0.393068
C26   C     C_R   0.172456 0.433134 0.464485 0.392959
C27   C     C_R   0.672759 0.066784 0.464584 0.393294
C28   C     C_R   0.327542 0.933205 0.535440 0.393367
C29   C     C_R   0.854138 0.621470 0.485831 0.058267
C30   C     C_R   0.146198 0.378545 0.514205 0.059034
C31   C     C_R   0.646366 0.121406 0.514257 0.059401
C32   C     C_R   0.353885 0.878584 0.485767 0.058959
C33   C     C_R   0.093717 0.552512 0.421935 0.325634
C34   C     C_R   0.906164 0.447417 0.577935 0.325672
C35   C     C_R   0.405907 0.052639 0.577863 0.325689
C36   C     C_R   0.594039 0.947408 0.422053 0.325655
C37   C     C_R   0.068493 0.496563 0.471498 -0.183972
C38   C     C_R   0.931683 0.503405 0.528440 -0.183380
C39   C     C_R   0.431490 0.996631 0.528396 -0.183432
C40   C     C_R   0.568645 0.003390 0.471564 -0.183825
N1    N     N_R   0.760037 0.449027 0.632283 0.261643
O21   O     O_R   0.592339 0.432206 0.617236 -0.338303
O22   O     O_R   0.799530 0.454684 0.697902 -0.341696
N2    N     N_R   0.238910 0.550716 0.367240 0.261630
O23   O     O_R   0.198095 0.544851 0.301779 -0.342327
O24   O     O_R   0.406864 0.567769 0.381747 -0.337612
N3    N     N_R   0.739983 0.949025 0.367640 0.261685
O25   O     O_R   0.907594 0.931926 0.382544 -0.338143
O26   O     O_R   0.700226 0.954840 0.302063 -0.341865
N4    N     N_R   0.259410 0.051130 0.632069 0.261691
O27   O     O_R   0.298382 0.045453 0.697740 -0.341488
O28   O     O_R   0.091933 0.068054 0.616840 -0.338548
N5    N     N_R   0.754254 0.474591 0.029992 0.264163
O29   O     O_R   0.653441 0.418457 0.027809 -0.304265
O30   O     O_R   0.682264 0.529800 0.060538 -0.332857
N6    N     N_R   0.245746 0.525407 0.970009 0.264145
O31   O     O_R   0.346560 0.581541 0.972192 -0.304325
O32   O     O_R   0.317738 0.470198 0.939464 -0.332874
N7    N     N_R   0.745746 0.974595 0.970008 0.264128
O33   O     O_R   0.846561 0.918460 0.972191 -0.304343
O34   O     O_R   0.817736 0.029804 0.939463 -0.332912
N8    N     N_R   0.254254 0.025406 0.029993 0.264138
O35   O     O_R   0.153439 0.081541 0.027809 -0.304300
O36   O     O_R   0.182265 0.970198 0.060538 -0.332904
N9    N     N_R   0.698322 0.577885 0.594478 0.252045
O37   O     O_R   0.758238 0.592851 0.655871 -0.319311
O38   O     O_R   0.521333 0.580441 0.585250 -0.356921
N10   N     N_R   0.302879 0.422241 0.405780 0.252041
O39   O     O_R   0.479731 0.420013 0.415331 -0.356991
O40   O     O_R   0.243918 0.407012 0.344302 -0.319041
N11   N     N_R   0.803378 0.077628 0.405929 0.252003
O41   O     O_R   0.744638 0.092749 0.344393 -0.319305
O42   O     O_R   0.980178 0.079891 0.415571 -0.356959
N12   N     N_R   0.197431 0.922285 0.594240 0.252007
O43   O     O_R   0.020541 0.919805 0.584807 -0.356925
O44   O     O_R   0.256788 0.907342 0.655724 -0.319461
C41   C     C_3   0.247061 0.308847 0.501469 -0.353855
C42   C     C_3   0.193771 0.272483 0.433860 -0.771915
H1    H     H_    0.051560 0.287077 0.420548 0.269286
H2    H     H_    0.292470 0.286021 0.389216 0.302155
H3    H     H_    0.199977 0.214958 0.440381 0.252319
H4    H     H_    0.399109 0.317320 0.500264 0.229790
H5    H     H_    0.215918 0.270595 0.543922 0.185970
C43   C     C_3   0.753439 0.691193 0.498613 -0.354310
C44   C     C_3   0.806927 0.727531 0.566211 -0.771251
H6    H     H_    0.708438 0.713940 0.610906 0.302195
H7    H     H_    0.949230 0.712964 0.579427 0.269222
H8    H     H_    0.800575 0.785057 0.559729 0.252271
H9    H     H_    0.784548 0.729440 0.456152 0.185907
H10   H     H_    0.601377 0.682752 0.499864 0.229651
C45   C     C_3   0.253248 0.808857 0.498573 -0.354068
C46   C     C_3   0.306816 0.772572 0.566188 -0.772047
H11   H     H_    0.449154 0.787142 0.579362 0.269205
H12   H     H_    0.208395 0.786204 0.610889 0.302271
H13   H     H_    0.300444 0.715042 0.559753 0.252335
H14   H     H_    0.101179 0.817268 0.499813 0.229837
H15   H     H_    0.284419 0.770590 0.456135 0.185888
C47   C     C_3   0.747163 0.191109 0.501493 -0.353694
C48   C     C_3   0.693844 0.227412 0.433855 -0.772405
H16   H     H_    0.792489 0.213820 0.389212 0.302217
H17   H     H_    0.551604 0.212817 0.420577 0.269252
H18   H     H_    0.700090 0.284942 0.440320 0.252368
H19   H     H_    0.715935 0.229385 0.543918 0.185937
H20   H     H_    0.899216 0.182664 0.500311 0.229906

loop_
_geom_bond_atom_site_label_1
_geom_bond_atom_site_label_2
_geom_bond_distance
_ccdc_geom_bond_type
C34   C38   1.433077 A    
C24   C31   1.414744 A    
C41   H5    1.104667 S    
C41   C42   1.532443 S    
C45   H15   1.104686 S    
O13   V1    1.988320 S    
C30   C41   1.534536 S    
O3    C7    1.332971 A    
N11   O41   1.301602 A    
O15   V3    1.988316 S    
C48   H16   1.107589 S    
N5    O29   1.301504 A    
C43   C44   1.532466 S    
O1    C5    1.332982 A    
C26   C30   1.416403 A    
N4    O28   1.301303 A    
C8    C21   1.493165 S    
O20   V1    1.774556 S    
O9    C4    1.333785 A    
C1    C11   1.462811 S    
O10   C3    1.333786 A    
C44   H7    1.108072 S    
C2    C12   1.462810 S    
O4    C8    1.333011 A    
O11   C2    1.333783 A    
N8    O36   1.301392 A    
C48   H17   1.108110 S    
C45   C46   1.532445 S    
N12   O43   1.301332 A    
C13   C18   1.477090 S    
C46   H11   1.108099 S    
C42   H3    1.111161 S    
C43   H10   1.108969 S    
C47   H19   1.104683 S    
C4    C10   1.462820 S    
C23   C36   1.411334 A    
C16   C19   1.477071 S    
O16   C8    1.331125 A    
N2    O23   1.301936 A    
N1    O22   1.301875 A    
O2    C6    1.332943 A    
O14   V2    1.988324 S    
N9    O38   1.301343 A    
O5    C1    1.332887 A    
O4    V1    1.970100 S    
O9    V1    1.979458 S    
C5    C24   1.493177 S    
O17   V4    1.774554 S    
O7    C3    1.332886 A    
C6    C23   1.493105 S    
C31   C47   1.534475 S    
O11   V3    1.979449 S    
O18   V3    1.774553 S    
O8    C4    1.332886 A    
C7    C22   1.493056 S    
O12   V4    1.979448 S    
O19   V2    1.774554 S    
C16   N7    1.444977 S    
C42   H1    1.108094 S    
C10   C17   1.222648 T    
O5    V1    1.991523 S    
N5    O30   1.301414 A    
C13   N6    1.444973 S    
C21   C34   1.411275 A    
O7    V3    1.991530 S    
N4    O27   1.301831 A    
O8    V4    1.991532 S    
C14   C17   1.477091 S    
N6    O32   1.301417 A    
C44   H8    1.111154 S    
C15   C16   1.377713 D    
N3    O26   1.301868 A    
N8    O35   1.301521 A    
C48   H18   1.111161 S    
C36   N3    1.434211 S    
O1    V4    1.970109 S    
O13   C5    1.331170 A    
O2    V3    1.970113 S    
C43   H9    1.104670 S    
O3    V2    1.970101 S    
O15   C7    1.331096 A    
C13   C14   1.377704 D    
O6    C2    1.332888 A    
O10   V2    1.979456 S    
C34   N1    1.434290 S    
N7    O33   1.301521 A    
N10   O40   1.301637 A    
C42   H2    1.107599 S    
C11   C20   1.222652 T    
C35   N4    1.434267 S    
C26   N10   1.434012 S    
O6    V2    1.991520 S    
C21   C30   1.414784 A    
N1    O21   1.301358 A    
N12   O44   1.301611 A    
C22   C33   1.411296 A    
C9    C18   1.222649 T    
C33   N2    1.434204 S    
C24   C35   1.411325 A    
O16   V4    1.988313 S    
C41   H4    1.108994 S    
C25   C38   1.431402 A    
N7    O34   1.301391 A    
O14   C6    1.331165 A    
C27   C40   1.431415 A    
C25   N9    1.434056 S    
N6    O31   1.301502 A    
C28   C39   1.431383 A    
N11   O42   1.301329 A    
C33   C37   1.433160 A    
C15   C20   1.477072 S    
C14   N5    1.444973 S    
C35   C39   1.433066 A    
C46   H13   1.111148 S    
C36   C40   1.433120 A    
C47   C48   1.532432 S    
N3    O25   1.301366 A    
C44   H6    1.107627 S    
C29   C43   1.534517 S    
C25   C29   1.416356 A    
C22   C29   1.414713 A    
C28   N12   1.434041 S    
N10   O39   1.301334 A    
C32   C45   1.534440 S    
C46   H12   1.107598 S    
C27   C31   1.416386 A    
C47   H20   1.108968 S    
C37   C38   1.429323 A    
C39   C40   1.429293 A    
O12   C1    1.333784 A    
N2    O24   1.301441 A    
C45   H14   1.108944 S    
C26   C37   1.431463 A    
C12   C19   1.222651 T    
C15   N8    1.444977 S    
N9    O37   1.301658 A    
C3    C9    1.462818 S    
C28   C32   1.416348 A    
C27   N11   1.434013 S    
C23   C32   1.414677 A    
