data_mof_unit_21345.cif
_audit_creation_date              2012-12-11T14:30:46-0500
_audit_creation_method            fapswitch 2.2
_symmetry_space_group_name_H-M    P1
_symmetry_Int_Tables_number       1
_space_group_crystal_system       triclinic
_cell_length_a                    17.539208
_cell_length_b                    24.498311
_cell_length_c                    14.923966
_cell_angle_alpha                 90.32588
_cell_angle_beta                  125.357952
_cell_angle_gamma                 89.779214
_cell_volume                      5229.68190006

loop_
_atom_site_label
_atom_site_type_symbol
_atom_type_description
_atom_site_fract_x
_atom_site_fract_y
_atom_site_fract_z
_atom_type_partial_charge
C1    C     C_R   0.853609 0.652918 0.907158 -0.162335
C2    C     C_R   0.966208 0.501236 0.650708 0.142339
C3    C     C_3   0.551993 0.667272 0.894496 -0.948429
C4    C     C_3   0.701615 0.404062 0.658225 -0.470748
C5    C     C_3   0.775754 0.382868 0.642664 -0.233305
C6    C     C_3   0.746455 0.328523 0.581047 -0.969975
C7    C     C_3   0.276658 0.403106 0.358921 -0.472102
C8    C     C_3   0.188777 0.377293 0.339302 -0.231295
C9    C     C_3   0.210754 0.322346 0.397011 -0.967546
C10   C     C_3   0.201615 0.904062 0.658225 -0.470748
C11   C     C_3   0.275754 0.882868 0.642664 -0.233303
C12   C     C_3   0.246455 0.828523 0.581047 -0.969974
C13   C     C_R   0.450084 0.001965 0.271918 0.146869
C14   C     C_3   0.776658 0.903106 0.358921 -0.472101
C15   C     C_3   0.688777 0.877293 0.339302 -0.231296
C16   C     C_3   0.710754 0.822345 0.397011 -0.967545
C17   C     C_R   0.466208 0.001236 0.650708 0.142338
C18   C     C_R   0.675660 0.501756 0.701016 -0.030117
C19   C     C_R   0.309839 0.504315 0.354255 -0.025692
C20   C     C_R   0.175660 0.001756 0.701016 -0.030117
C21   C     C_R   0.809839 0.004315 0.354256 -0.025693
C22   C     C_3   0.508155 0.457630 0.586925 -0.185727
C23   C     C_3   0.474375 0.464984 0.466687 -0.179798
C24   C     C_3   0.008155 0.957630 0.586925 -0.185727
C25   C     C_R   0.152529 0.651212 0.093337 -0.153262
C26   C     C_3   0.974375 0.964984 0.466687 -0.179798
C27   C     C_3   0.435677 0.499697 0.571508 -0.150289
C28   C     C_3   0.543454 0.511948 0.498813 -0.144794
C29   C     C_3   0.935677 0.999697 0.571508 -0.150289
C30   C     C_3   0.043454 0.011948 0.498813 -0.144794
C31   C     C_3   0.403285 0.506697 0.452631 0.200893
C32   C     C_3   0.576755 0.504405 0.617866 0.200446
C33   C     C_3   0.903285 0.006697 0.452631 0.200893
C34   C     C_3   0.076755 0.004405 0.617866 0.200446
C35   C     C_3   0.471538 0.553914 0.483908 -0.152143
C36   C     C_R   0.353609 0.152918 0.907158 -0.162335
C37   C     C_3   0.506555 0.546720 0.604991 -0.150379
C38   C     C_3   0.971538 0.053914 0.483908 -0.152143
C39   C     C_3   0.006555 0.046720 0.604991 -0.150378
C40   C     C_2   0.146222 0.752770 0.912230 -0.131113
C41   C     C_2   0.874470 0.763287 0.084212 -0.126019
C42   C     C_2   0.646222 0.252770 0.912230 -0.131113
C43   C     C_2   0.374470 0.263287 0.084213 -0.126020
C44   C     C_2   0.153816 0.735831 0.001436 -0.202611
C45   C     C_2   0.867382 0.742219 0.997450 -0.204017
C46   C     C_2   0.653816 0.235831 0.001436 -0.202611
C47   C     C_R   0.652528 0.151212 0.093337 -0.153263
C48   C     C_2   0.367382 0.242219 0.997450 -0.204016
C49   C     C_2   0.714184 0.290383 0.924391 -0.199897
C50   C     C_2   0.306455 0.303303 0.067051 -0.202780
C51   C     C_2   0.214184 0.790383 0.924391 -0.199897
C52   C     C_2   0.806456 0.803303 0.067051 -0.202780
C53   C     C_R   0.934482 0.354178 0.093074 -0.167231
C54   C     C_R   0.076689 0.361206 0.904357 -0.146819
C55   C     C_R   0.434482 0.854178 0.093074 -0.167232
C56   C     C_R   0.576689 0.861206 0.904357 -0.146817
C57   C     C_2   0.807572 0.282512 0.994552 0.125495
C58   C     C_R   0.863406 0.327299 0.001045 0.095449
C59   C     C_2   0.213003 0.295039 0.998931 0.124800
C60   C     C_2   0.307572 0.782512 0.994552 0.125495
C61   C     C_2   0.713003 0.795039 0.998931 0.124800
C62   C     C_2   0.891366 0.459142 0.367062 -0.110043
C63   C     C_2   0.896342 0.462523 0.468203 -0.124940
C64   C     C_2   0.391366 0.959143 0.367062 -0.110043
C65   C     C_2   0.396342 0.962523 0.468203 -0.124941
C66   C     C_2   0.901115 0.503969 0.323871 -0.196377
C67   C     C_2   0.946267 0.502159 0.542201 -0.200134
C68   C     C_2   0.401115 0.003969 0.323871 -0.196378
C69   C     C_R   0.155841 0.338570 0.995676 0.091435
C70   C     C_2   0.446266 0.002159 0.542200 -0.200133
C71   C     C_R   0.980078 0.547289 0.245949 -0.151024
C72   C     C_R   0.970334 0.546958 0.707924 -0.145380
C73   C     C_R   0.480078 0.047289 0.245949 -0.151024
C74   C     C_R   0.470334 0.046958 0.707924 -0.145379
C75   C     C_R   0.731253 0.455678 0.727136 0.168126
C76   C     C_R   0.258987 0.457501 0.301937 0.159012
C77   C     C_R   0.231253 0.955678 0.727136 0.168126
C78   C     C_R   0.758987 0.957501 0.301937 0.159012
C79   C     C_R   0.983105 0.456093 0.249617 -0.142528
C80   C     C_R   0.363406 0.827299 0.001045 0.095449
C81   C     C_R   0.968013 0.455599 0.705963 -0.152668
C82   C     C_R   0.483105 0.956092 0.249617 -0.142528
C83   C     C_R   0.468013 0.955599 0.705963 -0.152668
C84   C     C_R   0.731185 0.547408 0.739486 -0.171060
C85   C     C_R   0.260541 0.548666 0.294171 -0.170097
C86   C     C_R   0.231185 0.047408 0.739486 -0.171060
C87   C     C_R   0.760541 0.048666 0.294171 -0.170096
C88   C     C_R   0.844707 0.354272 0.910775 -0.183783
C89   C     C_R   0.169726 0.361674 0.088165 -0.180516
C90   C     C_R   0.344708 0.854272 0.910775 -0.183783
C91   C     C_R   0.655841 0.838570 0.995676 0.091434
C92   C     C_R   0.669727 0.861674 0.088165 -0.180516
C93   C     C_R   0.945442 0.652885 0.089629 -0.123535
C94   C     C_R   0.060156 0.650647 0.909903 -0.111849
C95   C     C_R   0.445442 0.152885 0.089629 -0.123535
C96   C     C_R   0.560156 0.150647 0.909903 -0.111849
C97   C     C_R   0.887451 0.684797 0.998671 0.127499
C98   C     C_R   0.123137 0.681447 0.001278 0.128219
C99   C     C_R   0.387451 0.184797 0.998671 0.127499
C100  C     C_R   0.623137 0.181447 0.001278 0.128219
C101  C     C_3   0.855763 0.231795 0.063569 -0.405257
C102  C     C_R   0.950084 0.501965 0.271918 0.146868
C103  C     C_3   0.929980 0.210171 0.048380 -0.260752
C104  C     C_3   0.976074 0.158358 0.114957 -0.932436
C105  C     C_3   0.164410 0.243251 0.932866 -0.406322
C106  C     C_3   0.096871 0.220350 0.957488 -0.252586
C107  C     C_3   0.051992 0.167272 0.894494 -0.948426
C108  C     C_3   0.355763 0.731795 0.063569 -0.405258
C109  C     C_3   0.429981 0.710172 0.048381 -0.260752
C110  C     C_3   0.476074 0.658358 0.114958 -0.932437
C111  C     C_3   0.664410 0.743251 0.932866 -0.406323
C112  C     C_3   0.596874 0.720349 0.957491 -0.252586
H1    H     H_    0.816503 0.667200 0.823394 0.092055
H2    H     H_    0.523106 0.579920 0.664636 0.112640
H3    H     H_    0.135448 0.370482 0.250662 0.205895
H4    H     H_    0.312507 0.375070 0.336152 0.175435
H5    H     H_    0.326333 0.409088 0.448967 0.200019
H6    H     H_    0.238572 0.797061 0.628456 0.263865
H7    H     H_    0.179213 0.833084 0.498864 0.266124
H8    H     H_    0.300820 0.814688 0.569853 0.248050
H9    H     H_    0.284614 0.913226 0.594304 0.195598
H10   H     H_    0.344211 0.877267 0.722680 0.199045
H11   H     H_    0.179582 0.872831 0.692217 0.176387
H12   H     H_    0.139259 0.912481 0.574402 0.200345
H13   H     H_    0.954533 0.093327 0.439808 0.105649
H14   H     H_    0.738755 0.793501 0.364975 0.264539
H15   H     H_    0.762770 0.827464 0.487059 0.266174
H16   H     H_    0.645807 0.804780 0.381471 0.248191
H17   H     H_    0.659758 0.904972 0.371760 0.201044
H18   H     H_    0.635448 0.870482 0.250662 0.205895
H19   H     H_    0.812507 0.875069 0.336152 0.175435
H20   H     H_    0.826332 0.909088 0.448967 0.200019
H21   H     H_    0.023106 0.079920 0.664636 0.112639
H22   H     H_    0.099205 0.734209 0.831962 0.127358
H23   H     H_    0.917143 0.744730 0.164870 0.126728
H24   H     H_    0.599205 0.234209 0.831962 0.127357
H25   H     H_    0.417144 0.244730 0.164870 0.126728
H26   H     H_    0.201522 0.755998 0.080213 0.140639
H27   H     H_    0.823509 0.762072 0.917901 0.142185
H28   H     H_    0.701522 0.255998 0.080213 0.140639
H29   H     H_    0.193486 0.665514 0.177530 0.090845
H30   H     H_    0.323508 0.262072 0.917901 0.142185
H31   H     H_    0.685495 0.326580 0.873142 0.127083
H32   H     H_    0.334476 0.340182 0.116849 0.127939
H33   H     H_    0.185495 0.826580 0.873142 0.127083
H34   H     H_    0.834476 0.840182 0.116848 0.127939
H35   H     H_    0.896372 0.418659 0.341109 0.117827
H36   H     H_    0.869339 0.428381 0.487954 0.120828
H37   H     H_    0.396371 0.918659 0.341109 0.117827
H38   H     H_    0.369339 0.928381 0.487954 0.120829
H39   H     H_    0.888950 0.544152 0.344513 0.130094
H40   H     H_    0.316502 0.167200 0.823394 0.092055
H41   H     H_    0.975809 0.535905 0.525042 0.133057
H42   H     H_    0.388950 0.044152 0.344513 0.130095
H43   H     H_    0.475810 0.035905 0.525042 0.133057
H44   H     H_    0.972874 0.339813 0.176779 0.095902
H45   H     H_    0.042218 0.349213 0.819471 0.096346
H46   H     H_    0.472875 0.839813 0.176779 0.095902
H47   H     H_    0.542218 0.849213 0.819471 0.096346
H48   H     H_    0.966747 0.589525 0.253739 0.097690
H49   H     H_    0.958979 0.588862 0.680475 0.092069
H50   H     H_    0.466747 0.089525 0.253739 0.097690
H51   H     H_    0.693486 0.165514 0.177530 0.090845
H52   H     H_    0.458979 0.088863 0.680475 0.092068
H53   H     H_    0.974429 0.414213 0.263227 0.093517
H54   H     H_    0.956396 0.413732 0.677891 0.088932
H55   H     H_    0.474429 0.914213 0.263227 0.093517
H56   H     H_    0.456396 0.913732 0.677891 0.088932
H57   H     H_    0.709618 0.589709 0.724000 0.112883
H58   H     H_    0.275880 0.591222 0.317384 0.104447
H59   H     H_    0.209618 0.089709 0.724000 0.112883
H60   H     H_    0.775880 0.091222 0.317384 0.104447
H61   H     H_    0.804734 0.337952 0.829048 0.122727
H62   H     H_    0.524481 0.418341 0.631250 0.113932
H63   H     H_    0.219350 0.348381 0.170843 0.116012
H64   H     H_    0.304734 0.837952 0.829048 0.122727
H65   H     H_    0.719350 0.848381 0.170843 0.116012
H66   H     H_    0.993609 0.667093 0.173242 0.084008
H67   H     H_    0.014881 0.664172 0.825659 0.081799
H68   H     H_    0.493609 0.167094 0.173242 0.084008
H69   H     H_    0.514881 0.164172 0.825659 0.081798
H70   H     H_    0.388398 0.494881 0.597748 0.114127
H71   H     H_    0.589971 0.516736 0.471434 0.116669
H72   H     H_    0.888398 0.994881 0.597748 0.114127
H73   H     H_    0.460396 0.431641 0.408296 0.112484
H74   H     H_    0.089971 0.016736 0.471434 0.116669
H75   H     H_    0.010112 0.166538 0.203724 0.261045
H76   H     H_    0.923277 0.125512 0.087045 0.265603
H77   H     H_    0.030209 0.144199 0.103637 0.254611
H78   H     H_    0.896816 0.201098 0.960030 0.202206
H79   H     H_    0.985304 0.241352 0.075681 0.200002
H80   H     H_    0.889519 0.242350 0.151419 0.172393
H81   H     H_    0.805636 0.198171 0.041250 0.213143
H82   H     H_    0.012500 0.174293 0.804645 0.260005
H83   H     H_    0.106352 0.135661 0.919417 0.266610
H84   H     H_    0.024481 0.918341 0.631250 0.113932
H85   H     H_    0.002779 0.152002 0.912607 0.256439
H86   H     H_    0.135467 0.212376 0.047011 0.201996
H87   H     H_    0.040295 0.250245 0.933443 0.199360
H88   H     H_    0.124956 0.252984 0.843989 0.172171
H89   H     H_    0.214128 0.210186 0.950540 0.213597
H90   H     H_    0.510111 0.666537 0.203725 0.261045
H91   H     H_    0.423277 0.625512 0.087044 0.265603
H92   H     H_    0.530210 0.644200 0.103640 0.254611
H93   H     H_    0.396818 0.701099 0.960031 0.202207
H94   H     H_    0.485305 0.741352 0.075685 0.200001
H95   H     H_    0.960396 0.931641 0.408296 0.112484
H96   H     H_    0.389518 0.742350 0.151419 0.172394
H97   H     H_    0.305636 0.698171 0.041249 0.213143
H98   H     H_    0.512498 0.674294 0.804647 0.260006
H99   H     H_    0.606352 0.635661 0.919414 0.266610
H100  H     H_    0.502783 0.652001 0.912612 0.256441
H101  H     H_    0.635472 0.712375 0.047014 0.201996
H102  H     H_    0.540299 0.750245 0.933450 0.199360
H103  H     H_    0.624954 0.752985 0.843989 0.172171
H104  H     H_    0.714128 0.710187 0.950537 0.213596
H105  H     H_    0.738572 0.297061 0.628457 0.263865
H106  H     H_    0.454533 0.593327 0.439808 0.105649
H107  H     H_    0.679213 0.333084 0.498864 0.266124
H108  H     H_    0.800820 0.314688 0.569853 0.248051
H109  H     H_    0.784614 0.413226 0.594304 0.195598
H110  H     H_    0.844211 0.377267 0.722680 0.199045
H111  H     H_    0.679583 0.372831 0.692217 0.176387
H112  H     H_    0.639258 0.412481 0.574402 0.200345
H113  H     H_    0.238754 0.293501 0.364975 0.264539
H114  H     H_    0.262771 0.327464 0.487060 0.266174
H115  H     H_    0.145807 0.304780 0.381472 0.248191
H116  H     H_    0.159758 0.404972 0.371760 0.201044
N1    N     N_R   0.892320 0.603520 0.941090 -0.035410
N2    N     N_R   0.973240 0.529450 0.794410 -0.039849
N3    N     N_R   0.526760 0.029450 0.205590 -0.040820
N4    N     N_R   0.473240 0.029450 0.794410 -0.039849
N5    N     N_R   0.819350 0.473090 0.793940 -0.053917
N6    N     N_R   0.180650 0.473090 0.206060 -0.052860
N7    N     N_R   0.319350 0.973090 0.793940 -0.053917
N8    N     N_R   0.680650 0.973090 0.206060 -0.052860
N9    N     N_R   0.027860 0.473090 0.206590 -0.051544
N10   N     N_R   0.972140 0.473090 0.793410 -0.045467
N11   N     N_R   0.527860 0.973090 0.206590 -0.051544
N12   N     N_R   0.107680 0.603520 0.058910 -0.037544
N13   N     N_R   0.472140 0.973090 0.793410 -0.045467
N14   N     N_R   0.818250 0.529450 0.792940 -0.047334
N15   N     N_R   0.181750 0.529450 0.207060 -0.046078
N16   N     N_R   0.318250 0.029450 0.792940 -0.047334
N17   N     N_R   0.681750 0.029450 0.207060 -0.046078
N18   N     N_R   0.896320 0.399020 0.944720 -0.035399
N19   N     N_R   0.103680 0.399020 0.055280 -0.039404
N20   N     N_R   0.396320 0.899020 0.944720 -0.035399
N21   N     N_R   0.603680 0.899020 0.055280 -0.039404
N22   N     N_R   0.949790 0.603520 0.054810 -0.040676
N23   N     N_R   0.392320 0.103520 0.941090 -0.035410
N24   N     N_R   0.050210 0.603520 0.945190 -0.042137
N25   N     N_R   0.449790 0.103520 0.054810 -0.040676
N26   N     N_R   0.550210 0.103520 0.945190 -0.042137
N27   N     N_R   0.607680 0.103520 0.058910 -0.037544
N28   N     N_R   0.953790 0.399020 0.058440 -0.037587
N29   N     N_R   0.046210 0.399020 0.941560 -0.039045
N30   N     N_R   0.453790 0.899020 0.058440 -0.037587
N31   N     N_R   0.546210 0.899020 0.941560 -0.039045
N32   N     N_R   0.026760 0.529450 0.205590 -0.040820
Ni1   Ni    Ni4+2 0.934100 0.565890 0.869590 0.206541
Ni2   Ni    Ni4+2 0.065900 0.565890 0.130410 0.207082
Ni3   Ni    Ni4+2 0.434100 0.065890 0.869590 0.206541
Ni4   Ni    Ni4+2 0.565900 0.065890 0.130410 0.207082
Ni5   Ni    Ni4+2 0.068420 0.436630 0.132700 0.201487
Ni6   Ni    Ni4+2 0.931580 0.436630 0.867300 0.200729
Ni7   Ni    Ni4+2 0.568420 0.936630 0.132700 0.201487
Ni8   Ni    Ni4+2 0.431580 0.936630 0.867300 0.200730

loop_
_geom_bond_atom_site_label_1
_geom_bond_atom_site_label_2
_ccdc_geom_bond_type
C5    H109  S    
N3    Ni4   S    
C21   C87   A    
C18   C75   A    
N4    Ni3   S    
C29   C33   S    
C82   H55   S    
C41   C45   D    
C7    H5    S    
C111  C112  S    
C45   H27   S    
C96   H69   S    
C108  H96   S    
C101  H80   S    
C19   C31   S    
C107  H83   S    
C108  H97   S    
C8    H116  S    
C18   C32   S    
C83   H56   S    
C7    C8    S    
C94   C98   A    
C14   H20   S    
C92   N21   A    
C81   N10   A    
C71   H48   S    
C54   C69   A    
N26   N27   A    
N7    Ni8   S    
C72   N2    A    
C20   C77   A    
C67   H41   S    
C50   C59   D    
C64   C68   D    
N9    Ni5   S    
C19   C76   A    
C29   H72   S    
C28   H71   S    
C111  H103  S    
C56   H47   S    
C68   H42   S    
C52   C61   D    
C38   C39   S    
C95   C99   A    
N23   N25   A    
C41   H23   S    
C21   C33   S    
C106  C107  S    
C51   H33   S    
C15   C16   S    
C12   H7    S    
C90   H64   S    
C85   N15   A    
C36   N23   A    
C49   C57   D    
C108  C109  S    
C30   C38   S    
C42   H24   S    
C42   C46   D    
C20   C34   S    
C65   H38   S    
C48   C99   S    
C66   C102  S    
C24   C29   S    
N22   Ni2   S    
C4    C75   S    
C2    C67   S    
N31   Ni8   S    
C8    H3    S    
C22   H62   S    
N5    Ni6   S    
C12   H8    S    
C44   C98   S    
C105  H88   S    
C26   H95   S    
C28   C35   S    
C101  H81   S    
C8    C9    S    
C90   N20   A    
C21   C78   A    
N8    Ni7   S    
C52   H34   S    
C81   H54   S    
C2    C81   A    
C79   C102  A    
C75   N5    A    
C9    H114  S    
N15   Ni2   S    
C112  H102  S    
N12   N24   A    
C43   C48   D    
C95   N25   A    
C41   C52   S    
N1    N22   A    
C60   C108  S    
N6    N15   A    
C106  H86   S    
C47   H51   S    
C3    H98   S    
C5    H110  S    
C49   H31   S    
N2    Ni1   S    
C17   C70   S    
C101  C103  S    
C55   H46   S    
C16   H14   S    
C11   H9    S    
C1    H1    S    
N21   N31   A    
C2    C72   A    
N30   Ni7   S    
N19   N29   A    
C10   C77   S    
C50   H32   S    
C87   N17   A    
C40   C44   D    
C14   H19   S    
C56   C91   A    
C3    H99   S    
C104  H76   S    
C63   C67   D    
N19   Ni5   S    
C62   C66   D    
C46   H28   S    
C27   C31   S    
C34   C39   S    
C66   H39   S    
C28   C32   S    
C111  H104  S    
N32   Ni2   S    
C10   H11   S    
C92   H65   S    
C1    C97   A    
C91   C92   A    
C107  H85   S    
C30   C34   S    
C36   H40   S    
N6    Ni5   S    
C37   H2    S    
C25   N12   A    
C71   N32   A    
C4    H112  S    
C40   H22   S    
C13   C82   A    
C95   H68   S    
C24   C34   S    
C88   H61   S    
C70   H43   S    
C20   C86   A    
C110  H91   S    
C17   C83   A    
C23   C31   S    
C7    H4    S    
C104  H77   S    
C47   N27   A    
C62   C63   S    
C6    H105  S    
N5    N14   A    
C26   C33   S    
C105  H89   S    
C15   H17   S    
N10   Ni6   S    
C3    C112  S    
C72   H49   S    
C82   N11   A    
C29   C39   S    
N9    N32   A    
N13   Ni8   S    
N11   Ni7   S    
C9    H115  S    
N16   Ni3   S    
C59   C105  S    
C32   C37   S    
C79   H53   S    
C109  H93   S    
C4    C5    S    
C16   H16   S    
C93   H66   S    
N24   Ni1   S    
C59   C69   S    
C77   N7    A    
C12   H6    S    
C18   C84   A    
N25   Ni4   S    
C74   N4    A    
C53   N28   A    
C71   C102  A    
C13   C73   A    
N26   Ni3   S    
C84   H57   S    
C62   H35   S    
C17   C74   A    
C61   C91   S    
C6    H108  S    
N2    N10   A    
C11   H10   S    
C23   C28   S    
C89   H63   S    
C40   C51   S    
C35   H106  S    
C93   C97   A    
C63   H36   S    
C73   N3    A    
C38   H13   S    
C93   N22   A    
C103  H78   S    
C23   H73   S    
N27   Ni4   S    
C39   H21   S    
C3    H100  S    
C104  H75   S    
C46   C100  S    
C60   C80   S    
C110  H92   S    
C44   H26   S    
C35   C37   S    
C22   C23   S    
N8    N17   A    
C25   H29   S    
N29   Ni6   S    
C24   C26   S    
N12   Ni2   S    
N3    N11   A    
C19   C85   A    
C79   N9    A    
C94   N24   A    
C76   N6    A    
C53   C58   A    
C78   N8    A    
C43   C50   S    
C26   C30   S    
C7    C76   S    
N20   Ni8   S    
N1    Ni1   S    
C69   C89   A    
C4    H111  S    
C57   C101  S    
C105  C106  S    
N20   N30   A    
C10   H12   S    
C85   H58   S    
C22   C32   S    
C110  H90   S    
C64   H37   S    
C22   C27   S    
C55   N30   A    
C64   C65   S    
N21   Ni7   S    
C73   H50   S    
C27   H70   S    
C96   N26   A    
N4    N13   A    
C45   C97   S    
C109  C110  S    
C54   H45   S    
C74   H52   S    
C55   C80   A    
C112  H101  S    
C57   C58   S    
C5    C6    S    
C15   H18   S    
N18   N28   A    
C27   C37   S    
C87   H60   S    
C96   C100  A    
N14   Ni1   S    
C43   H25   S    
C36   C99   A    
C31   C35   S    
C94   H67   S    
C14   C78   S    
C80   C90   A    
C109  H94   S    
C16   H15   S    
C89   N19   A    
N7    N16   A    
C10   C11   S    
C47   C100  A    
C42   C49   S    
C88   N18   A    
C86   H59   S    
C56   N31   A    
C1    N1    A    
C25   C98   A    
C48   H30   S    
C103  H79   S    
C6    H107  S    
C53   H44   S    
C86   N16   A    
C103  C104  S    
C30   H74   S    
C54   N29   A    
C24   H84   S    
C14   C15   S    
C106  H87   S    
C33   C38   S    
C84   N14   A    
C51   C60   D    
C9    H113  S    
C83   N13   A    
N18   Ni6   S    
N17   Ni4   S    
C58   C88   A    
C107  H82   S    
C65   C70   D    
C11   C12   S    
N23   Ni3   S    
N28   Ni5   S    
C13   C68   S    
C61   C111  S    
