data_mof_unit_64607.cif
_audit_creation_date              2012-12-10T19:31:50-0500
_audit_creation_method            fapswitch 2.2
_symmetry_space_group_name_H-M    P1
_symmetry_Int_Tables_number       1
_space_group_crystal_system       triclinic
_cell_length_a                    18.71432
_cell_length_b                    18.694569
_cell_length_c                    18.729118
_cell_angle_alpha                 109.344723
_cell_angle_beta                  109.597966
_cell_angle_gamma                 109.360853
_cell_volume                      5050.93481835

loop_
_atom_site_label
_atom_site_type_symbol
_atom_type_description
_atom_site_fract_x
_atom_site_fract_y
_atom_site_fract_z
_atom_type_partial_charge
C1    C     C_R   0.380243 0.379893 0.500481 0.872534
C2    C     C_R   0.201894 0.167368 0.432946 0.110501
C3    C     C_3   0.179534 0.095923 0.349169 -0.067057
C4    C     C_R   0.618019 0.497482 0.620743 0.853212
C5    C     C_3   0.251354 0.167042 0.349185 -0.467413
C6    C     C_R   0.237496 0.425685 0.248606 0.118654
C7    C     C_R   0.315076 0.501468 0.313930 -0.097682
C8    C     C_R   0.328141 0.580526 0.315171 -0.218237
C9    C     C_R   0.263344 0.580495 0.249958 -0.211046
C10   C     C_R   0.184613 0.501754 0.185197 -0.095507
C11   C     C_R   0.174329 0.425987 0.187659 0.083374
C12   C     C_3   0.808242 0.501960 0.811219 0.141961
C13   C     C_3   0.113499 0.330198 0.143680 -0.482301
C14   C     C_3   0.185869 0.330016 0.214404 -0.044293
C15   C     C_R   0.769339 0.699086 0.533493 0.096682
C16   C     C_R   0.619447 0.620124 0.499591 0.881093
C17   C     C_R   0.685340 0.687228 0.501311 -0.073094
C18   C     C_R   0.668788 0.748680 0.482853 -0.220838
C19   C     C_R   0.733325 0.813652 0.483639 -0.219183
C20   C     C_R   0.814623 0.817893 0.505250 -0.104711
C21   C     C_R   0.833596 0.764177 0.535914 0.152532
C22   C     C_3   0.871172 0.707948 0.508898 -0.480918
C23   C     C_3   0.847768 0.573563 0.789115 -0.371776
C24   C     C_3   0.799948 0.636003 0.506106 -0.497585
C25   C     C_R   0.997562 0.380023 0.877420 0.901441
C26   C     C_R   0.876685 0.501025 0.877490 0.855051
C27   C     C_R   0.997406 0.620483 0.117513 0.877157
C28   C     C_R   0.379444 0.499928 0.379429 0.887394
C29   C     C_R   0.118048 0.500227 0.118208 0.888630
C30   C     C_R   0.000137 0.120450 0.619186 0.890314
C31   C     C_R   0.119669 0.119238 0.499571 0.871119
C32   C     C_R   0.999907 0.879598 0.380485 0.876197
C33   C     C_R   0.879865 0.880063 0.500418 0.872889
C34   C     C_3   0.743714 0.516087 0.842491 0.021271
C35   C     C_R   0.973831 0.233013 0.800740 0.136882
C36   C     C_R   0.997557 0.315361 0.810575 -0.159135
C37   C     C_R   0.024631 0.335132 0.754463 -0.232094
C38   C     C_R   0.027192 0.272057 0.690265 0.173344
C39   C     C_R   0.002745 0.188830 0.683913 -0.095233
C40   C     C_3   0.688390 0.411404 0.652975 -0.377788
C41   C     C_R   0.977649 0.173027 0.741001 0.072172
C42   C     C_3   0.946400 0.105742 0.765667 -0.497899
C43   C     C_3   0.942951 0.175121 0.835175 -0.457067
C44   C     C_R   0.919883 0.676721 0.181862 0.120119
C45   C     C_R   0.265026 0.228972 0.433679 0.087161
C46   C     C_R   0.997552 0.687962 0.182456 -0.133823
C47   C     C_R   0.075316 0.768291 0.243288 -0.201671
C48   C     C_R   0.076719 0.831789 0.309666 -0.225753
C49   C     C_R   0.999962 0.815278 0.313518 -0.076556
C50   C     C_R   0.921057 0.740516 0.246435 0.091559
C51   C     C_3   0.854725 0.675380 0.252836 -0.523856
C52   C     C_3   0.756493 0.411644 0.726912 -0.481601
C53   C     C_3   0.853575 0.604649 0.181696 0.000547
C54   C     C_3   0.774195 0.575064 0.722507 -0.484737
C55   C     C_3   0.667672 0.509510 0.768075 0.032713
C56   C     C_R   0.314835 0.314651 0.501728 -0.109391
C57   C     C_3   0.684668 0.497148 0.689361 0.142199
C58   C     C_3   0.788554 0.602815 0.928300 -0.991793
C59   C     C_3   0.086849 0.057509 0.275667 -0.844661
C60   C     C_3   0.161598 0.309898 0.278477 -0.872096
C61   C     C_3   0.057818 0.297137 0.632851 -0.904446
C62   C     C_3   0.766562 0.548459 0.095498 -0.878285
C63   C     C_3   0.578181 0.437404 0.742307 -0.989479
C64   C     C_R   0.298671 0.336038 0.572262 -0.202632
C65   C     C_R   0.234043 0.271156 0.572190 -0.223952
C66   C     C_R   0.184817 0.185671 0.500998 -0.083185
H1    H     H_    0.707162 0.406290 0.601758 0.189780
H2    H     H_    0.274120 0.641478 0.250835 0.158630
H3    H     H_    0.052888 0.315752 0.147888 0.217024
H4    H     H_    0.102750 0.294795 0.076956 0.170121
H5    H     H_    0.215811 0.293289 0.188559 0.169234
H6    H     H_    0.605139 0.743707 0.463873 0.143968
H7    H     H_    0.718996 0.858430 0.465041 0.165142
H8    H     H_    0.864454 0.692977 0.443651 0.192007
H9    H     H_    0.937907 0.732536 0.561492 0.205942
H10   H     H_    0.751786 0.579232 0.439165 0.218603
H11   H     H_    0.722792 0.359009 0.738670 0.183869
H12   H     H_    0.775540 0.637995 0.753533 0.177319
H13   H     H_    0.825572 0.619109 0.557118 0.193450
H14   H     H_    0.043539 0.399137 0.760284 0.173489
H15   H     H_    0.880967 0.048856 0.712845 0.201662
H16   H     H_    0.997246 0.089489 0.793680 0.211543
H17   H     H_    0.992201 0.199390 0.903364 0.192804
H18   H     H_    0.135548 0.780075 0.242168 0.161098
H19   H     H_    0.137379 0.892441 0.358555 0.142919
H20   H     H_    0.882276 0.678069 0.316873 0.170286
H21   H     H_    0.801678 0.396575 0.706642 0.170217
H22   H     H_    0.793072 0.678161 0.232972 0.216495
H23   H     H_    0.891457 0.639223 0.848709 0.184642
H24   H     H_    0.879689 0.566041 0.204394 0.175833
H25   H     H_    0.785545 0.571800 0.667081 0.171379
H26   H     H_    0.666291 0.571832 0.792599 0.187906
H27   H     H_    0.716624 0.463252 0.856940 0.183683
H28   H     H_    0.814890 0.660180 0.919920 0.252832
H29   H     H_    0.740193 0.606079 0.949126 0.251620
H30   H     H_    0.842527 0.607353 0.981410 0.253215
H31   H     H_    0.072252 0.109821 0.272881 0.247103
H32   H     H_    0.079702 0.017247 0.212177 0.241807
H33   H     H_    0.038910 0.015019 0.286474 0.254528
H34   H     H_    0.336217 0.401876 0.627422 0.168391
H35   H     H_    0.308857 0.157975 0.357837 0.183826
H36   H     H_    0.220921 0.325220 0.334800 0.237717
H37   H     H_    0.133177 0.349135 0.303304 0.254078
H38   H     H_    0.113142 0.239438 0.245259 0.241711
H39   H     H_    0.062566 0.245283 0.587768 0.243946
H40   H     H_    0.011787 0.311945 0.593341 0.245131
H41   H     H_    0.123767 0.356341 0.674318 0.232614
H42   H     H_    0.875551 0.157997 0.822910 0.206364
H43   H     H_    0.742844 0.589589 0.075469 0.247285
H44   H     H_    0.774612 0.508163 0.043284 0.257105
H45   H     H_    0.222523 0.287491 0.626880 0.149247
H46   H     H_    0.716759 0.504134 0.103151 0.242309
H47   H     H_    0.888455 0.559288 0.760941 0.181264
H48   H     H_    0.567851 0.453842 0.799363 0.252933
H49   H     H_    0.523894 0.432019 0.688705 0.253394
H50   H     H_    0.574767 0.372893 0.721471 0.249855
H51   H     H_    0.195714 0.046141 0.357744 0.157453
H52   H     H_    0.227056 0.182807 0.296847 0.210695
H53   H     H_    0.388134 0.641313 0.365380 0.148141
H54   H     H_    0.623346 0.352843 0.621610 0.174872
O1    O     O_R   0.408690 0.356690 0.448570 -0.623421
O2    O     O_R   0.947510 0.091650 0.539220 -0.619920
O3    O     O_R   0.143610 0.091630 0.552030 -0.623297
O4    O     O_R   0.408080 0.460090 0.551420 -0.627638
O5    O     O_R   0.039620 0.091690 0.448080 -0.622108
O6    O     O_R   0.052490 0.908450 0.460880 -0.623774
O7    O     O_R   0.948500 0.908500 0.356930 -0.623392
O8    O     O_R   0.960380 0.908410 0.552020 -0.622093
O9    O     O_R   0.856390 0.908470 0.448070 -0.624777
O10   O     O_R   0.592400 0.448300 0.540680 -0.631928
O11   O     O_R   0.591790 0.551700 0.643540 -0.636221
O12   O     O_R   0.049530 0.460080 0.906210 -0.626668
O13   O     O_R   0.591920 0.539910 0.448580 -0.622060
O14   O     O_R   0.591310 0.643310 0.551430 -0.622626
O15   O     O_R   0.408210 0.448300 0.356460 -0.626839
O16   O     O_R   0.407600 0.551700 0.459320 -0.619166
O17   O     O_R   0.946090 0.356720 0.906270 -0.622116
O18   O     O_R   0.853510 0.448360 0.905260 -0.640223
O19   O     O_R   0.956950 0.551730 0.905200 -0.630593
O20   O     O_R   0.945130 0.540000 0.088470 -0.628231
O21   O     O_R   0.048570 0.643360 0.088400 -0.623274
O22   O     O_R   0.037700 0.448350 0.089480 -0.621917
O23   O     O_R   0.141150 0.551720 0.089410 -0.626135
O24   O     O_R   0.051500 0.091600 0.643170 -0.622930
Zn1   Zn    Zn3+2 0.500410 0.430960 0.431320 0.932893
Zn2   Zn    Zn3+2 0.499590 0.569040 0.568680 0.942173
Zn3   Zn    Zn3+2 0.928260 0.431020 0.997380 0.927976
Zn4   Zn    Zn3+2 0.066400 0.569060 0.997290 0.937197
Zn5   Zn    Zn3+2 0.069430 0.000010 0.569450 0.946107
Zn6   Zn    Zn3+2 0.930570 0.000090 0.430650 0.946594

loop_
_geom_bond_atom_site_label_1
_geom_bond_atom_site_label_2
_ccdc_geom_bond_type
C31   C66   S    
O3    Zn5   S    
C28   O15   A    
C43   H17   S    
C14   H5    S    
C35   C36   A    
C42   H16   S    
C34   H27   S    
C16   O14   A    
C7    C8    A    
C39   C41   A    
C12   C23   S    
C37   C38   A    
C13   H3    S    
O2    Zn6   S    
C32   O7    A    
C36   C37   A    
C1    C56   S    
O7    Zn6   S    
C38   C39   A    
O6    Zn5   S    
C23   H47   S    
C13   H4    S    
C29   O22   A    
C44   C50   A    
C29   O23   A    
C30   O24   A    
C51   H20   S    
O11   Zn2   S    
C18   C19   A    
C41   C42   S    
C32   O6    A    
C58   H30   S    
C65   H45   S    
C3    H51   S    
O21   Zn4   S    
C63   H48   S    
C44   C53   S    
C30   O2    A    
C45   C56   A    
O9    Zn6   S    
C8    C9    A    
O15   Zn1   S    
C40   H1    S    
C55   C63   S    
C4    C57   S    
C56   C64   A    
C60   H37   S    
C35   C43   S    
C9    C10   A    
C38   C61   S    
C63   H49   S    
C34   C55   S    
C21   C22   S    
O10   Zn1   S    
C42   H15   S    
C22   H9    S    
C60   H36   S    
C16   O13   A    
O20   Zn3   S    
C12   C52   S    
C44   C46   A    
C50   C51   S    
C4    O11   A    
C2    C45   A    
C18   H6    S    
O23   Zn4   S    
O14   Zn2   S    
C37   H14   S    
C5    H35   S    
O19   Zn4   S    
O12   Zn4   S    
C19   H7    S    
C26   O19   A    
O5    Zn6   S    
C6    C11   A    
C24   H10   S    
C4    O10   A    
C3    C5    S    
C40   C52   S    
O4    Zn2   S    
C33   O8    A    
C7    C28   S    
C12   C26   S    
C51   C53   S    
C25   O17   A    
C58   H29   S    
C55   H26   S    
C6    C14   S    
C53   C62   S    
C24   H13   S    
C47   C48   A    
C62   H44   S    
C15   C21   A    
O18   Zn3   S    
C23   H23   S    
C17   C18   A    
C47   H18   S    
C61   H40   S    
C35   C41   A    
C63   H50   S    
C27   C46   S    
C48   C49   A    
C40   H54   S    
C49   C50   A    
C55   C57   S    
C59   H31   S    
O1    Zn1   S    
O13   Zn1   S    
C42   C43   S    
C20   C33   S    
C12   C34   S    
C52   H11   S    
C61   H39   S    
C23   C54   S    
C33   O9    A    
C15   C17   A    
C46   C47   A    
C15   C24   S    
C40   C57   S    
O24   Zn5   S    
C28   O16   A    
O22   Zn3   S    
O17   Zn3   S    
C52   H21   S    
C26   O18   A    
C51   H22   S    
C2    C66   A    
C6    C7    A    
C14   C60   S    
C27   O20   A    
C5    H52   S    
C64   C65   A    
C19   C20   A    
C2    C3    S    
C58   H28   S    
C1    O4    A    
C31   O3    A    
C54   H25   S    
C60   H38   S    
C11   C13   S    
C10   C29   S    
C16   C17   S    
C62   H43   S    
C5    C45   S    
C59   H33   S    
C27   O21   A    
C30   C39   S    
C22   C24   S    
C43   H42   S    
C61   H41   S    
C1    O1    A    
C32   C49   S    
C9    H2    S    
C10   C11   A    
C25   C36   S    
O8    Zn5   S    
C64   H34   S    
C62   H46   S    
C20   C21   A    
C65   C66   A    
C53   H24   S    
C34   C58   S    
C59   H32   S    
C22   H8    S    
C48   H19   S    
C13   C14   S    
C25   O12   A    
C31   O5    A    
O16   Zn2   S    
C8    H53   S    
C54   H12   S    
C54   C57   S    
C3    C59   S    
