data_mof_unit_19475.cif
_audit_creation_date              2012-12-10T18:03:58-0500
_audit_creation_method            fapswitch 2.2
_symmetry_space_group_name_H-M    P1
_symmetry_Int_Tables_number       1
_space_group_crystal_system       triclinic
_cell_length_a                    10.807344
_cell_length_b                    9.610488
_cell_length_c                    10.808936
_cell_angle_alpha                 90.283486
_cell_angle_beta                  92.515114
_cell_angle_gamma                 90.420736
_cell_volume                      1121.53038297

loop_
_atom_site_label
_atom_site_type_symbol
_atom_type_description
_atom_site_fract_x
_atom_site_fract_y
_atom_site_fract_z
_atom_type_partial_charge
C1    C     C_R   0.262358 0.499563 0.499516 0.766567
C2    C     C_R   0.737619 0.500190 0.499813 0.813370
C3    C     C_R   0.417450 0.075244 0.427235 -0.035121
C4    C     C_R   0.581711 0.077910 0.573631 -0.017025
C5    C     C_R   0.417738 0.927588 0.423546 0.215209
C6    C     C_R   0.587700 0.929787 0.570924 0.163229
C7    C     C_R   0.498247 0.499660 0.262649 0.795402
C8    C     C_R   0.498738 0.500276 0.737448 0.849079
C9    C     C_R   0.538577 0.613928 0.066991 -0.012658
C10   C     C_R   0.537826 0.615099 0.939208 -0.062090
C11   C     C_R   0.491386 0.500218 0.129205 -0.116441
C12   C     C_R   0.490840 0.501671 0.870641 -0.019730
C13   C     C_R   0.433805 0.390900 0.061302 -0.180893
C14   C     C_R   0.433671 0.391556 0.932055 -0.196298
C15   C     C_3   0.665331 0.676250 0.939928 0.324226
C16   C     C_3   0.666487 0.673524 0.079758 0.391054
C17   C     C_R   0.064717 0.379671 0.535134 -0.180815
C18   C     C_R   0.936639 0.380279 0.535719 -0.147351
C19   C     C_R   0.871557 0.499873 0.499029 -0.006612
C20   C     C_R   0.128363 0.499026 0.498799 -0.009518
C21   C     C_R   0.935209 0.618129 0.460502 -0.187702
C22   C     C_R   0.063191 0.618177 0.461560 -0.181337
Cu1   Cu    Cu3+1 0.500000 0.640660 0.500000 0.950628
Cu2   Cu    Cu3+1 0.500000 0.359340 0.500000 0.947949
H1    H     H_    0.392092 0.303942 0.107890 0.151106
H2    H     H_    0.392062 0.304866 0.880615 0.153462
H3    H     H_    0.667514 0.782442 0.900510 0.118137
H4    H     H_    0.735414 0.601932 0.124114 0.113825
H5    H     H_    0.113782 0.286809 0.564564 0.147959
H6    H     H_    0.888777 0.287793 0.565729 0.140566
H7    H     H_    0.886462 0.709612 0.427719 0.154743
H8    H     H_    0.110773 0.710673 0.431756 0.140743
H9    H     H_    0.351368 0.132947 0.369932 0.127458
H10   H     H_    0.644590 0.140388 0.630909 0.139496
N1    N     N_R   0.500000 0.852070 0.500000 -0.184228
N2    N     N_R   0.500000 0.147940 0.500000 -0.192155
O1    O     O_R   0.319640 0.618740 0.499990 -0.609569
O2    O     O_R   0.680360 0.618740 0.500010 -0.600127
O3    O     O_R   0.319620 0.381170 0.499990 -0.592034
O4    O     O_R   0.680380 0.381170 0.500010 -0.584382
O5    O     O_R   0.499990 0.618810 0.319660 -0.564924
O6    O     O_R   0.500010 0.618810 0.680340 -0.597500
O7    O     O_R   0.499960 0.381240 0.319650 -0.578310
O8    O     O_R   0.500040 0.381240 0.680350 -0.585432
F1    F     F_    0.749868 0.584707 0.892504 -0.696252
F2    F     F_    0.668051 0.805717 0.131006 -0.689075
C23   C     C_3   0.326659 0.862954 0.328508 -0.412229
C24   C     C_3   0.356832 0.902765 0.195469 -0.358147
C25   C     C_3   0.270410 0.828677 0.100462 -0.821850
H11   H     H_    0.278713 0.714019 0.109624 0.257422
H12   H     H_    0.172874 0.859004 0.113706 0.257969
H13   H     H_    0.295579 0.858294 0.005572 0.247817
H14   H     H_    0.347604 0.016690 0.181566 0.204379
H15   H     H_    0.453641 0.873904 0.178269 0.296886
H16   H     H_    0.322964 0.749979 0.331534 0.260211
H17   H     H_    0.232101 0.899902 0.347590 0.160115
C26   C     C_3   0.703062 0.862645 0.629908 -0.363437
C27   C     C_3   0.788713 0.954311 0.715008 -0.480133
C28   C     C_3   0.903140 0.874641 0.761919 -0.759093
H18   H     H_    0.876728 0.782043 0.815379 0.302592
H19   H     H_    0.958139 0.840644 0.682877 0.248887
H20   H     H_    0.962199 0.943322 0.823117 0.241671
H21   H     H_    0.823758 0.044508 0.662602 0.221904
H22   H     H_    0.737406 0.992535 0.795163 0.237974
H23   H     H_    0.676709 0.770244 0.683018 0.255237
H24   H     H_    0.760978 0.833124 0.552502 0.225197

loop_
_geom_bond_atom_site_label_1
_geom_bond_atom_site_label_2
_ccdc_geom_bond_type
C16   H4    S    
C24   H15   S    
Cu1   Cu2   S    
C4    N2    A    
C2    O4    A    
C18   H6    S    
C7    O7    A    
Cu1   O2    S    
C17   H5    S    
C9    C10   A    
C2    O2    A    
C15   H3    S    
C23   C24   S    
Cu1   O5    S    
C1    O1    A    
C26   H24   S    
C8    C12   S    
C25   H13   S    
C26   H23   S    
C21   C22   A    
C17   C20   A    
C25   H12   S    
C7    O5    A    
C17   C18   A    
C2    C19   S    
C28   H18   S    
C13   C14   A    
C14   H2    S    
C7    C11   S    
C21   H7    S    
C6    C26   S    
C13   H1    S    
C26   C27   S    
Cu2   N2    S    
Cu1   O6    S    
C22   H8    S    
C3    N2    A    
C10   C12   A    
C4    C6    A    
C24   C25   S    
C19   C21   A    
C9    C16   S    
C12   C14   A    
C18   C19   A    
Cu1   N1    S    
C10   C15   S    
C9    C11   A    
C27   H22   S    
C24   H14   S    
Cu2   O8    S    
C4    H10   S    
C28   H19   S    
C1    O3    A    
C8    O6    A    
C15   C16   S    
C5    C23   S    
C5    N1    A    
C11   C13   A    
Cu2   O3    S    
C6    N1    A    
C23   H16   S    
C25   H11   S    
C16   F2    S    
C27   H21   S    
Cu2   O7    S    
C3    H9    S    
C1    C20   S    
C28   H20   S    
Cu2   O4    S    
C27   C28   S    
Cu1   O1    S    
C8    O8    A    
C20   C22   A    
C23   H17   S    
C3    C5    A    
C15   F1    S    
