data_mof_unit_63185.cif
_audit_creation_date              2012-10-26T18:37:35-0400
_audit_creation_method            fapswitch 2.2
_symmetry_space_group_name_H-M    P1
_symmetry_Int_Tables_number       1
_space_group_crystal_system       triclinic
_cell_length_a                    14.657549
_cell_length_b                    15.906399
_cell_length_c                    17.382644
_cell_angle_alpha                 90.093299
_cell_angle_beta                  86.270294
_cell_angle_gamma                 90.373456
_cell_volume                      4044.07052873

loop_
_atom_site_label
_atom_site_type_symbol
_atom_type_description
_atom_site_fract_x
_atom_site_fract_y
_atom_site_fract_z
_atom_type_partial_charge
C1    C     C_R   0.500285 0.660177 0.500027 0.551407
C2    C     C_R   0.517488 0.504777 0.265714 0.012472
C3    C     C_3   0.425796 0.951547 0.450288 -0.018014
C4    C     C_R   0.488459 0.498753 0.650198 0.543764
C5    C     C_3   0.595256 0.950185 0.466182 -0.241019
C6    C     C_3   0.597508 0.048497 0.466853 -0.034352
C7    C     C_1   0.499505 0.250397 0.500110 0.044176
C8    C     C_3   0.501560 0.917123 0.500374 0.015475
C9    C     C_3   0.428573 0.049150 0.449221 -0.248097
C10   C     C_3   0.503200 0.082905 0.501058 0.014030
C11   C     C_3   0.479052 0.047942 0.583840 -0.012357
C12   C     C_R   0.397815 0.497578 0.776201 -0.116849
C13   C     C_3   0.487396 0.950912 0.584046 -0.188083
C14   C     C_1   0.500710 0.175017 0.500450 0.003678
C15   C     C_1   0.501392 0.825068 0.500240 -0.026920
C16   C     C_R   0.499769 0.339840 0.499938 0.558858
C17   C     C_1   0.501007 0.749660 0.500131 0.012923
C18   C     C_3   0.946622 0.405266 0.495983 0.114265
C19   C     C_3   0.942183 0.536921 0.576475 -0.257142
C20   C     C_3   0.048624 0.531910 0.576761 -0.234035
C21   C     C_3   0.907992 0.498966 0.500120 0.014437
C22   C     C_3   0.054222 0.409009 0.484059 -0.202290
C23   C     C_R   0.442379 0.518493 0.146753 -0.099028
C24   C     C_3   0.092108 0.498751 0.498569 -0.048199
C25   C     C_3   0.059688 0.555946 0.433735 -0.186326
C26   C     C_3   0.952734 0.556470 0.432914 0.160731
C27   C     C_1   0.195231 0.498567 0.498339 0.125526
C28   C     C_R   0.511577 0.500960 0.349797 0.541689
C29   C     C_1   0.804745 0.500657 0.501267 0.232952
C30   C     C_R   0.482758 0.493697 0.734231 0.018015
C31   C     C_R   0.562727 0.482631 0.773028 -0.111816
C32   C     C_R   0.558151 0.477032 0.852761 -0.094889
C33   C     C_R   0.473531 0.483573 0.894917 0.043995
C34   C     C_R   0.437584 0.514457 0.226569 -0.120602
C35   C     C_R   0.393313 0.492183 0.856238 -0.103614
C36   C     C_2   0.679424 0.085390 0.504756 0.615151
C37   C     C_2   0.915719 0.356621 0.569309 0.579763
C38   C     C_R   0.602593 0.500606 0.223992 -0.107912
C39   C     C_R   0.607314 0.504425 0.143879 -0.100007
C40   C     C_R   0.527175 0.511735 0.104874 0.041033
C41   C     C_2   0.467097 0.481788 0.979285 -0.124693
C42   C     C_2   0.533930 0.512613 0.020483 -0.125847
Cu1   Cu    Cu3+1 0.410070 0.500090 0.500100 1.007632
Cu2   Cu    Cu3+1 0.589930 0.499910 0.499900 1.078256
H1    H     H_    0.628904 0.477706 0.741834 0.147789
H2    H     H_    0.406562 0.063896 0.600477 0.150164
H3    H     H_    0.371288 0.519476 0.257547 0.140957
H4    H     H_    0.360727 0.074995 0.469084 0.165112
H5    H     H_    0.088165 0.362814 0.520312 0.180213
H6    H     H_    0.920366 0.603056 0.584858 0.158942
H7    H     H_    0.910601 0.503966 0.627968 0.144933
H8    H     H_    0.067451 0.489759 0.624132 0.165224
H9    H     H_    0.076641 0.595397 0.588891 0.146149
H10   H     H_    0.665276 0.493943 0.253103 0.168010
H11   H     H_    0.090814 0.534047 0.377259 0.145681
H12   H     H_    0.673313 0.500178 0.112254 0.126870
H13   H     H_    0.075708 0.390647 0.423866 0.141437
H14   H     H_    0.086562 0.620628 0.441917 0.162381
H15   H     H_    0.596388 0.537644 0.991997 0.124725
H16   H     H_    0.327449 0.496348 0.888089 0.116001
H17   H     H_    0.379769 0.527849 0.118265 0.115721
H18   H     H_    0.335102 0.505232 0.747344 0.137465
H19   H     H_    0.404620 0.456767 0.007737 0.125701
H20   H     H_    0.620781 0.466777 0.880988 0.116981
H21   H     H_    0.759127 0.187458 0.518809 0.386068
H22   H     H_    0.948583 0.298686 0.666985 0.355422
H23   H     H_    0.442833 0.071297 0.388876 0.118442
H24   H     H_    0.438612 0.928321 0.390129 0.144366
H25   H     H_    0.650617 0.922301 0.498483 0.186071
H26   H     H_    0.607077 0.927571 0.405707 0.114993
H27   H     H_    0.606175 0.068879 0.405509 0.109318
H28   H     H_    0.425023 0.922800 0.613785 0.153704
H29   H     H_    0.546133 0.931797 0.617328 0.167524
I1    I     I_    0.290458 0.906246 0.486669 -0.366693
I2    I     I_    0.552396 0.104215 0.674905 -0.293666
I3    I     I_    0.912698 0.527388 0.318417 -0.306463
I4    I     I_    0.906300 0.685704 0.443271 -0.316015
I5    I     I_    0.895044 0.326466 0.406108 -0.249051
N1    N     N_1   0.275150 0.498610 0.498410 -0.187320
N2    N     N_1   0.724850 0.501380 0.501620 -0.153840
O1    O     O_R   0.424030 0.620640 0.500090 -0.484483
O2    O     O_R   0.703897 0.169317 0.490573 -0.652255
O3    O     O_2   0.834236 0.342670 0.584019 -0.492303
O4    O     O_R   0.978749 0.329211 0.620807 -0.714700
O5    O     O_R   0.575910 0.620490 0.499920 -0.490504
O6    O     O_R   0.415250 0.500090 0.613690 -0.504604
O7    O     O_R   0.567140 0.499950 0.613520 -0.503025
O8    O     O_R   0.424090 0.379510 0.500080 -0.504021
O9    O     O_R   0.575970 0.379360 0.499910 -0.452730
O10   O     O_R   0.432860 0.500050 0.386480 -0.507467
O11   O     O_R   0.584750 0.499910 0.386310 -0.491819
O12   O     O_2   0.724597 0.042834 0.546638 -0.473540

loop_
_geom_bond_atom_site_label_1
_geom_bond_atom_site_label_2
_ccdc_geom_bond_type
C21   C26   S    
C8    C13   S    
C18   C21   S    
C41   C42   D    
C19   C20   S    
C24   C27   S    
C22   H13   S    
C4    O7    A    
Cu1   O8    S    
C19   C21   S    
C3    H24   S    
C27   N1    T    
C30   C31   A    
C4    O6    A    
C1    O1    A    
C23   C40   A    
C3    I1    S    
C5    H25   S    
C7    C14   T    
C39   H12   S    
C36   O2    S    
C26   I3    S    
C37   O4    S    
Cu2   O7    S    
C9    C10   S    
C2    C34   A    
C40   C42   S    
C16   O9    A    
C1    O5    A    
C6    H27   S    
C26   I4    S    
Cu1   O10   S    
C20   C24   S    
Cu2   N2    S    
C38   C39   A    
C24   C25   S    
C32   H20   S    
C3    C8    S    
C10   C14   S    
C39   C40   A    
C25   C26   S    
C21   C29   S    
C35   H16   S    
Cu1   Cu2   S    
C9    H23   S    
C5    H26   S    
C3    C9    S    
C12   H18   S    
C2    C38   A    
C31   C32   A    
C38   H10   S    
C18   I5    S    
C23   C34   A    
C12   C35   A    
Cu2   O11   S    
C22   H5    S    
C7    C16   S    
C13   H29   S    
C8    C15   S    
Cu1   O1    S    
C22   C24   S    
C25   H14   S    
C41   H19   S    
Cu2   O5    S    
C15   C17   T    
C12   C30   A    
C18   C22   S    
Cu1   O6    S    
C18   C37   S    
C25   H11   S    
C20   H9    S    
C42   H15   S    
C6    C10   S    
C5    C8    S    
C28   O10   A    
C13   H28   S    
C1    C17   S    
C33   C41   S    
C32   C33   A    
C20   H8    S    
C11   I2    S    
C11   C13   S    
C19   H6    S    
C36   O12   D    
H21   O2    S    
C5    C6    S    
C29   N2    T    
C33   C35   A    
C6    C36   S    
C28   O11   A    
C10   C11   S    
H22   O4    S    
C19   H7    S    
C23   H17   S    
C9    H4    S    
C31   H1    S    
C16   O8    A    
C37   O3    D    
C11   H2    S    
C2    C28   S    
C34   H3    S    
Cu1   N1    S    
C4    C30   S    
Cu2   O9    S    
