data_mof_unit_32035.cif
_audit_creation_date              2012-12-10T19:07:05-0500
_audit_creation_method            fapswitch 2.2
_symmetry_space_group_name_H-M    P1
_symmetry_Int_Tables_number       1
_space_group_crystal_system       triclinic
_cell_length_a                    27.728754
_cell_length_b                    10.813872
_cell_length_c                    9.628484
_cell_angle_alpha                 89.461175
_cell_angle_beta                  90.304612
_cell_angle_gamma                 88.879961
_cell_volume                      2886.42800494

loop_
_atom_site_label
_atom_site_type_symbol
_atom_type_description
_atom_site_fract_x
_atom_site_fract_y
_atom_site_fract_z
_atom_type_partial_charge
C1    C     C_R   0.497929 0.262818 0.500384 0.816224
C2    C     C_R   0.274630 0.422683 0.566911 0.343067
C3    C     C_R   0.253588 0.466862 0.441782 0.148472
C4    C     C_R   0.101578 0.468431 0.419780 -0.142956
C5    C     C_R   0.127196 0.354780 0.436398 -0.086696
C6    C     C_R   0.100704 0.246030 0.459419 0.314007
C7    C     C_R   0.126770 0.576669 0.387322 -0.179439
C8    C     C_R   0.353465 0.496258 0.491328 -0.221446
C9    C     C_R   0.645384 0.506578 0.499840 -0.213452
C10   C     C_R   0.975493 0.377083 0.505890 0.010881
C11   C     C_R   0.974964 0.595372 0.426653 -0.002467
C12   C     C_R   0.407185 0.499770 0.499292 0.853910
C13   C     C_R   0.949956 0.487957 0.468955 0.009307
C14   C     C_R   0.949669 0.282746 0.576606 0.238642
C15   C     C_R   0.899414 0.288010 0.581247 -0.145377
C16   C     C_R   0.873644 0.390838 0.529484 -0.078841
C17   C     C_R   0.898958 0.493024 0.478907 -0.056888
C18   C     C_R   0.873224 0.601300 0.440200 -0.073992
C19   C     C_R   0.822660 0.601026 0.438612 0.622382
C20   C     C_R   0.823026 0.397547 0.535991 0.644938
C21   C     C_R   0.720929 0.428388 0.401591 0.491649
C22   C     C_R   0.670291 0.431511 0.405548 -0.398097
C23   C     C_R   0.497719 0.737686 0.498755 0.829521
C24   C     C_R   0.671305 0.583702 0.589706 0.122061
C25   C     C_R   0.722160 0.582168 0.586048 0.415799
C26   C     C_R   0.746672 0.504339 0.491977 0.148562
C27   C     C_R   0.025641 0.368175 0.476724 0.037222
C28   C     C_R   0.050705 0.474525 0.434168 0.020740
C29   C     C_R   0.025278 0.585745 0.400409 -0.095954
C30   C     C_R   0.050796 0.253953 0.475185 -0.156453
C31   C     C_R   0.101019 0.679226 0.330840 0.270943
C32   C     C_R   0.948537 0.709518 0.420560 0.319221
C33   C     C_R   0.898347 0.709770 0.414798 -0.196397
C34   C     C_R   0.592353 0.503271 0.500291 0.897849
C35   C     C_R   0.050561 0.677148 0.324902 0.450362
C36   C     C_R   0.488024 0.062782 0.623152 0.090128
C37   C     C_R   0.490276 0.130637 0.499859 -0.190962
C38   C     C_R   0.482900 0.069042 0.374063 -0.179537
C39   C     C_R   0.482380 0.940055 0.370494 0.279169
C40   C     C_R   0.490363 0.871405 0.495686 -0.152419
C41   C     C_R   0.488842 0.935585 0.621048 -0.004159
C42   C     C_3   0.520419 0.926409 0.747282 -0.450075
C43   C     C_3   0.518777 0.066807 0.750124 0.189581
C44   C     C_R   0.542008 0.509447 0.073719 0.051380
C45   C     C_R   0.178041 0.355603 0.425304 0.677256
C46   C     C_R   0.458184 0.503897 0.071403 0.501513
C47   C     C_R   0.458837 0.520809 0.925247 0.494445
C48   C     C_R   0.542000 0.509025 0.927948 0.072700
C49   C     C_3   0.588082 0.435819 0.920991 0.306692
C50   C     C_3   0.586666 0.428972 0.080019 0.032021
C51   C     C_R   0.176965 0.575333 0.407160 0.683447
C52   C     C_R   0.282867 0.520395 0.340214 0.265518
C53   C     C_R   0.331670 0.535646 0.366010 -0.313838
C54   C     C_R   0.323961 0.447238 0.597565 0.338641
Cu1   Cu    Cu3+1 0.500000 0.499980 0.640670 1.059308
Cu2   Cu    Cu3+1 0.500000 0.500020 0.359330 1.034973
H1    H     H_    0.878977 0.797289 0.403093 0.207886
H2    H     H_    0.479949 0.120231 0.277087 0.224813
H3    H     H_    0.502376 0.882543 0.837152 0.239644
H4    H     H_    0.556877 0.887914 0.723983 0.219234
H5    H     H_    0.554012 0.109363 0.729930 0.147074
H6    H     H_    0.617801 0.493841 0.881326 0.111039
H7    H     H_    0.617420 0.476980 0.128617 0.109961
H8    H     H_    0.650027 0.374796 0.335495 0.204662
H9    H     H_    0.880659 0.213658 0.632718 0.213530
H10   H     H_    0.031736 0.168146 0.480115 0.227999
H11   H     H_    0.352724 0.579456 0.286094 0.259808
N1    N     N_R   0.201825 0.465403 0.423101 -0.434698
N2    N     N_R   0.798553 0.501020 0.488889 -0.413999
N3    N     N_R   0.500300 0.500930 0.147930 -0.211034
N4    N     N_R   0.500310 0.500890 0.852020 -0.217285
O1    O     O_R   0.500000 0.319640 0.618810 -0.533096
O2    O     O_2   0.798455 0.301621 0.588938 -0.548313
O3    O     O_2   0.200684 0.682729 0.415105 -0.442088
O4    O     O_2   0.797848 0.699298 0.385737 -0.557861
O5    O     O_R   0.500010 0.319680 0.381230 -0.561108
O6    O     O_R   0.430260 0.500000 0.618780 -0.488443
O7    O     O_R   0.430270 0.500040 0.381190 -0.549664
O8    O     O_R   0.499990 0.680320 0.618770 -0.584637
O9    O     O_R   0.500000 0.680360 0.381190 -0.538462
O10   O     O_R   0.569730 0.499960 0.618810 -0.544763
O11   O     O_R   0.569740 0.500000 0.381220 -0.568746
O12   O     O_2   0.203709 0.249161 0.416376 -0.483170
O13   O     O_3   0.343732 0.419750 0.727278 -0.560209
C55   C     C_3   0.317542 0.483574 0.831650 -0.095531
H12   H     H_    0.283917 0.436325 0.859855 0.201131
H13   H     H_    0.309606 0.581867 0.802611 0.154691
H14   H     H_    0.338950 0.482987 0.928761 0.222368
Br1   Br    Br    0.258221 0.567310 0.160152 -0.467698
Br2   Br    Br    0.132453 0.812171 0.234189 -0.240751
Br3   Br    Br    0.976075 0.867349 0.463272 -0.377090
Br4   Br    Br    0.638173 0.697814 0.710657 -0.576385
O14   O     O_3   0.748580 0.646342 0.683357 -0.555709
C56   C     C_3   0.749010 0.774070 0.650018 -0.122575
H15   H     H_    0.733045 0.826912 0.737245 0.195891
H16   H     H_    0.729316 0.801242 0.552634 0.165918
H17   H     H_    0.787000 0.803010 0.639611 0.180786
O15   O     O_3   0.026816 0.759298 0.235766 -0.520777
C57   C     C_3   0.015010 0.696905 0.112495 -0.186728
H18   H     H_    0.047785 0.657403 0.061779 0.167530
H19   H     H_    0.998110 0.764438 0.038763 0.219128
H20   H     H_    0.988428 0.623118 0.132163 0.142337
Br5   Br    Br    0.473068 0.869501 0.189492 -0.496127
O16   O     O_3   0.245628 0.360292 0.659985 -0.583183
C58   C     C_3   0.263025 0.237279 0.678396 -0.134699
H21   H     H_    0.291392 0.231919 0.760002 0.173310
H22   H     H_    0.276993 0.195470 0.580751 0.176738
H23   H     H_    0.232746 0.179734 0.714212 0.215139
Br6   Br    Br    0.483055 0.133599 0.906223 -0.426183
O17   O     O_3   0.414197 0.487834 0.132914 -0.584771
C59   C     C_3   0.402975 0.361241 0.125155 -0.236003
H24   H     H_    0.367365 0.347156 0.174077 0.183926
H25   H     H_    0.400172 0.330015 0.015616 0.193638
H26   H     H_    0.429913 0.302729 0.182843 0.191602
O18   O     O_3   0.417093 0.557449 0.858620 -0.543028
C60   C     C_3   0.410774 0.686241 0.874604 -0.245995
H27   H     H_    0.379792 0.718049 0.809415 0.181377
H28   H     H_    0.442766 0.737292 0.838365 0.166200
H29   H     H_    0.402373 0.709772 0.984158 0.199713
O19   O     O_3   0.583109 0.320608 0.855029 -0.500495
C61   C     C_3   0.629657 0.273228 0.823932 -0.209197
H30   H     H_    0.653835 0.272174 0.916741 0.171659
H31   H     H_    0.646055 0.327397 0.738237 0.151482
H32   H     H_    0.627055 0.176377 0.789025 0.171637
Br7   Br    Br    0.575708 0.263772 0.155309 -0.452508
Br8   Br    Br    0.128591 0.082310 0.478502 -0.287543
O20   O     O_3   0.746702 0.359682 0.304504 -0.556561
C62   C     C_3   0.729193 0.238383 0.293558 -0.211352
H33   H     H_    0.698076 0.236450 0.220546 0.171072
H34   H     H_    0.719519 0.197826 0.396322 0.166667
H35   H     H_    0.758130 0.178624 0.249449 0.200246
Br9   Br    Br    0.978632 0.162545 0.702570 -0.424453

loop_
_geom_bond_atom_site_label_1
_geom_bond_atom_site_label_2
_ccdc_geom_bond_type
C10   C27   A    
C21   C26   A    
C25   O14   S    
O14   C56   S    
Cu2   O5    S    
C41   C42   S    
C3    N1    S    
C51   O3    S    
Cu1   Cu2   S    
C62   H33   S    
C54   O13   S    
C52   Br1   S    
C14   Br9   S    
C55   H12   S    
C52   C53   A    
C47   O18   S    
C58   H22   S    
C36   C37   A    
C5    C6    A    
Cu1   O6    S    
C9    C22   A    
C49   O19   S    
C15   C16   A    
C15   H9    S    
Cu2   O7    S    
C60   H27   S    
C18   C19   A    
O17   C59   S    
C61   H32   S    
C38   H2    S    
C59   H24   S    
C16   C17   A    
C12   O7    A    
C23   C40   S    
C44   N3    A    
C34   O10   A    
C23   O9    A    
Cu1   O10   S    
C35   O15   S    
Cu1   O1    S    
C8    C12   S    
C21   C22   A    
C27   C30   A    
C50   H7    S    
C36   C41   A    
C45   O12   S    
C4    C7    A    
C24   Br4   S    
O16   C58   S    
C4    C28   A    
C55   H13   S    
C58   H23   S    
C1    O1    A    
C7    C31   A    
C24   C25   A    
C6    Br8   S    
C10   C14   A    
C8    C54   A    
C39   C40   A    
C39   Br5   S    
C56   H17   S    
C25   C26   A    
C5    C45   A    
C42   H3    S    
C37   C38   A    
Cu1   O8    S    
C57   H18   S    
C2    O16   S    
C16   C20   A    
C31   Br2   S    
C12   O6    A    
C45   N1    A    
C17   C18   A    
C59   H25   S    
C50   Br7   S    
O13   C55   S    
C56   H16   S    
C47   N4    A    
C61   H30   S    
C30   H10   S    
C48   C49   S    
C6    C30   A    
C11   C32   A    
O15   C57   S    
Cu2   N3    S    
C46   O17   S    
C2    C54   A    
C9    C34   S    
C31   C35   A    
C20   N2    A    
C19   N2    A    
C21   O20   S    
C42   C43   S    
C48   N4    A    
C42   H4    S    
O20   C62   S    
C62   H35   S    
C46   N3    A    
O19   C61   S    
C43   H5    S    
C55   H14   S    
C44   C50   S    
C46   C47   A    
C28   C29   A    
C33   H1    S    
C49   H6    S    
C57   H19   S    
C1    O5    A    
C4    C5    A    
C10   C13   A    
C62   H34   S    
C8    C53   A    
C3    C52   A    
C9    C24   A    
Cu2   O11   S    
C1    C37   S    
C34   O11   A    
C58   H21   S    
C29   C35   A    
Cu2   O9    S    
C60   H29   S    
C13   C17   A    
C32   C33   A    
C19   O4    S    
C2    C3    A    
C7    C51   A    
C11   C13   A    
C38   C39   A    
C60   H28   S    
C20   O2    S    
C59   H26   S    
C51   N1    A    
C56   H15   S    
C53   H11   S    
C18   C33   A    
C61   H31   S    
C22   H8    S    
C32   Br3   S    
C44   C48   A    
C57   H20   S    
C11   C29   A    
C49   C50   S    
C27   C28   A    
C26   N2    S    
C14   C15   A    
C36   C43   S    
C40   C41   A    
C43   Br6   S    
C23   O8    A    
Cu1   N4    S    
O18   C60   S    
