data_mof_unit_34052.cif
_audit_creation_date              2012-10-26T20:36:05-0400
_audit_creation_method            fapswitch 2.2
_symmetry_space_group_name_H-M    P1
_symmetry_Int_Tables_number       1
_space_group_crystal_system       triclinic
_cell_length_a                    10.874048
_cell_length_b                    15.859002
_cell_length_c                    17.079372
_cell_angle_alpha                 96.309218
_cell_angle_beta                  95.652892
_cell_angle_gamma                 90.280271
_cell_volume                      2912.92028066

loop_
_atom_site_label
_atom_site_type_symbol
_atom_type_description
_atom_site_fract_x
_atom_site_fract_y
_atom_site_fract_z
_atom_type_partial_charge
C1    C     C_R   0.509493 0.489166 0.349249 0.571466
C2    C     C_R   0.460824 0.514794 0.900491 0.182465
C3    C     C_R   0.564465 0.406821 0.137350 -0.112567
C4    C     C_R   0.438248 0.588696 0.864486 -0.118498
C5    C     C_R   0.564771 0.408445 0.219489 0.238031
C6    C     C_R   0.441417 0.589777 0.782915 0.233602
C7    C     C_R   0.431499 0.753316 0.461687 0.347666
C8    C     C_R   0.568925 0.248713 0.539448 0.351691
C9    C     C_R   0.434888 0.843478 0.465343 -0.125196
C10   C     C_R   0.567777 0.158041 0.536126 -0.132811
C11   C     C_R   0.526719 0.891246 0.515223 0.118823
C12   C     C_R   0.492239 0.510653 0.651092 0.569289
C13   C     C_R   0.478052 0.109213 0.485202 0.131599
C14   C     C_R   0.610782 0.848142 0.560872 -0.096999
C15   C     C_R   0.393678 0.151098 0.438654 -0.112367
C16   C     C_R   0.263181 0.502780 0.507000 0.552309
C17   C     C_R   0.737151 0.497273 0.493736 0.552133
C18   C     C_R   0.605839 0.759858 0.559259 0.366901
C19   C     C_R   0.395910 0.239265 0.440366 0.332119
C20   C     C_R   0.131393 0.378846 0.584127 -0.049231
C21   C     C_R   0.870107 0.622767 0.419487 -0.046788
C22   C     C_R   0.077092 0.300893 0.591694 -0.096443
C23   C     C_R   0.528523 0.483614 0.264105 -0.049640
C24   C     C_R   0.924226 0.701264 0.413733 -0.097808
C25   C     C_R   0.960924 0.280051 0.552832 -0.089281
C26   C     C_R   0.040037 0.721628 0.453359 -0.075587
C27   C     C_R   0.893395 0.340640 0.514247 -0.019034
C28   C     C_R   0.107609 0.660174 0.490511 -0.010822
C29   C     C_R   0.941999 0.423467 0.512927 0.018649
C30   C     C_R   0.058899 0.577182 0.490297 0.017137
C31   C     C_R   0.068457 0.437519 0.538390 0.037024
C32   C     C_R   0.932581 0.563289 0.464555 0.040830
C33   C     C_R   0.871227 0.491331 0.484777 -0.007099
C34   C     C_R   0.475221 0.514990 0.736630 -0.053198
C35   C     C_R   0.129643 0.509035 0.517433 -0.011954
C36   C     C_3   0.589836 0.320578 0.883358 -0.009078
C37   C     C_3   0.585037 0.239805 0.923483 -0.339788
C38   C     C_3   0.618365 0.670628 0.111111 -0.012579
C39   C     C_3   0.602156 0.751498 0.071168 -0.344130
C40   C     C_3   0.701548 0.267113 0.657616 -0.041514
C41   C     C_3   0.775310 0.336066 0.711994 -0.360264
C42   C     C_3   0.331494 0.721888 0.334821 -0.012128
C43   C     C_3   0.213108 0.767267 0.309831 -0.392677
C44   C     C_R   0.514525 0.557865 0.226481 -0.190268
C45   C     C_R   0.486285 0.439074 0.772386 -0.205383
C46   C     C_R   0.518439 0.556482 0.145175 0.277837
C47   C     C_R   0.480249 0.438049 0.853775 0.275988
C48   C     C_R   0.535491 0.478667 0.099300 0.171938
Cu1   Cu    Cu3+1 0.493970 0.415220 0.496180 1.142435
Cu2   Cu    Cu3+1 0.506030 0.584780 0.503820 1.134858
H1    H     H_    0.078421 0.784881 0.454562 0.124984
H2    H     H_    0.873907 0.747641 0.381774 0.105586
H3    H     H_    0.806787 0.319371 0.482054 0.208891
H4    H     H_    0.194203 0.680793 0.523185 0.207140
H5    H     H_    0.496981 0.379396 0.736666 0.148312
H6    H     H_    0.503116 0.618345 0.260122 0.130392
H7    H     H_    0.587831 0.349280 0.102298 0.175075
H8    H     H_    0.416861 0.645885 0.901015 0.187821
H9    H     H_    0.835220 0.777067 0.730096 0.372821
H10   H     H_    0.296962 0.211122 0.265038 0.372774
H11   H     H_    0.666582 0.361986 0.914562 0.149722
H12   H     H_    0.922346 0.217108 0.553280 0.119491
H13   H     H_    0.609215 0.301707 0.821518 0.108842
H14   H     H_    0.512849 0.195794 0.891084 0.166721
H15   H     H_    0.675845 0.208062 0.923546 0.113192
H16   H     H_    0.563053 0.254772 0.985454 0.179772
H17   H     H_    0.681605 0.628489 0.077696 0.149712
H18   H     H_    0.661317 0.687881 0.172825 0.116408
H19   H     H_    0.540227 0.795319 0.103436 0.166518
H20   H     H_    0.693310 0.783416 0.071313 0.112376
H21   H     H_    0.561398 0.736205 0.008969 0.178452
H22   H     H_    0.733890 0.210282 0.226497 0.379342
H23   H     H_    0.635626 0.125489 0.571707 0.122785
H24   H     H_    0.288908 0.794709 0.781657 0.373834
H25   H     H_    0.765730 0.214241 0.644989 0.120366
H26   H     H_    0.624151 0.245059 0.688720 0.118753
H27   H     H_    0.716696 0.391598 0.725841 0.163187
H28   H     H_    0.810779 0.310949 0.767925 0.094977
H29   H     H_    0.855059 0.357675 0.683240 0.173558
H30   H     H_    0.326002 0.659382 0.298680 0.174627
H31   H     H_    0.413598 0.756573 0.319103 0.108637
H32   H     H_    0.201072 0.825854 0.349792 0.140841
H33   H     H_    0.216342 0.784559 0.248799 0.131303
H34   H     H_    0.366320 0.875766 0.430125 0.139117
H35   H     H_    0.132110 0.724425 0.309660 0.157721
H36   H     H_    0.682749 0.884912 0.598248 0.176592
H37   H     H_    0.323010 0.113381 0.401073 0.174263
H38   H     H_    0.223432 0.392466 0.613273 0.123027
H39   H     H_    0.778589 0.609401 0.389445 0.116007
H40   H     H_    0.127576 0.255193 0.624420 0.118628
N1    N     N_2   0.533586 0.471455 0.015772 -0.202738
N2    N     N_2   0.459739 0.520182 0.983750 -0.147241
N3    N     N_R   0.515100 0.712130 0.509560 -0.238192
N4    N     N_R   0.484900 0.287870 0.490440 -0.226478
N5    N     N_2   0.539732 0.981908 0.522896 -0.223448
N6    N     N_2   0.466107 0.018535 0.477840 -0.225296
O1    O     O_R   0.494360 0.420530 0.382500 -0.390940
O2    O     O_2   0.845491 0.723447 0.579967 -0.318774
O3    O     O_3   0.753211 0.790909 0.704444 -0.512210
O4    O     O_2   0.158434 0.282747 0.426398 -0.262874
O5    O     O_2   0.285769 0.360690 0.349098 -0.233540
O6    O     O_3   0.232079 0.204756 0.300839 -0.511677
O7    O     O_3   0.475271 0.361751 0.886089 -0.520568
O8    O     O_3   0.501742 0.631153 0.110978 -0.531442
O9    O     O_2   0.714395 0.348662 0.334331 -0.297104
O10   O     O_2   0.523672 0.267647 0.287276 -0.285004
O11   O     O_3   0.703188 0.258202 0.197810 -0.529194
O12   O     O_R   0.505640 0.579470 0.617500 -0.389162
O13   O     O_2   0.496798 0.732006 0.721745 -0.214722
O14   O     O_2   0.301112 0.659461 0.669384 -0.306043
O15   O     O_3   0.314082 0.744364 0.808534 -0.531935
O16   O     O_3   0.656767 0.300472 0.587136 -0.532725
O17   O     O_3   0.337521 0.706466 0.415329 -0.543293
O18   O     O_R   0.504550 0.563720 0.388950 -0.532055
O19   O     O_R   0.495450 0.436280 0.611050 -0.516676
O20   O     O_R   0.314560 0.428400 0.496770 -0.465583
O21   O     O_R   0.685440 0.571600 0.503230 -0.469059
O22   O     O_R   0.324750 0.571590 0.503220 -0.476065
O23   O     O_R   0.675250 0.428410 0.496780 -0.471909
O24   O     O_2   0.716408 0.635568 0.647958 -0.234500
S1    S     S_3+6 0.730829 0.721819 0.621974 0.063318
S2    S     S_3+6 0.268330 0.277030 0.379704 0.075197
S3    S     S_3+6 0.626451 0.319358 0.263002 0.019358
S4    S     S_3+6 0.388559 0.682829 0.742380 0.028351

loop_
_geom_bond_atom_site_label_1
_geom_bond_atom_site_label_2
_ccdc_geom_bond_type
C24   H2    S    
O2    S1    D    
C19   S2    S    
C42   H30   S    
C27   C29   A    
Cu2   O21   S    
C43   H33   S    
C14   C18   A    
N5    N6    D    
O11   S3    S    
C40   O16   S    
C21   H39   S    
C15   C19   A    
C30   C35   A    
C36   O7    S    
C36   C37   S    
C24   C26   A    
C8    O16   S    
C16   C35   S    
C41   H27   S    
C38   C39   S    
C10   H23   S    
C29   C33   A    
C3    C48   A    
H9    O3    S    
O9    S3    D    
C38   O8    S    
O14   S4    D    
C22   C25   A    
C37   H15   S    
O10   S3    D    
C6    S4    S    
Cu1   N4    S    
C36   H13   S    
C17   O21   A    
O3    S1    S    
C12   O19   A    
Cu2   O12   S    
C42   H31   S    
C17   C33   S    
H10   O6    S    
C16   O20   A    
C44   C46   A    
C45   C47   A    
C39   H19   S    
C7    N3    A    
C21   C32   A    
C46   C48   A    
C47   O7    S    
C13   N6    S    
C43   H35   S    
C8    N4    A    
C14   H36   S    
C4    C6    A    
C1    O1    A    
C41   H28   S    
C12   O12   A    
C28   H4    S    
C18   S1    S    
C46   O8    S    
C48   N1    S    
C23   C44   A    
C6    C34   A    
Cu2   O18   S    
C2    C4    A    
C16   O22   A    
C44   H6    S    
C42   O17   S    
C5    C23   A    
H22   O11   S    
C18   N3    A    
C37   H16   S    
C22   H40   S    
O13   S4    D    
C34   C45   A    
C2    N2    S    
C9    C11   A    
C19   N4    A    
C3    H7    S    
C40   C41   S    
Cu1   O19   S    
C20   C22   A    
C1    C23   S    
C13   C15   A    
C31   C35   A    
C1    O18   A    
C12   C34   S    
C36   H11   S    
N1    N2    D    
C37   H14   S    
O24   S1    D    
C15   H37   S    
C11   N5    S    
C7    C9    A    
O15   S4    S    
Cu2   O22   S    
C38   H18   S    
C3    C5    A    
C10   C13   A    
C41   H29   S    
C27   H3    S    
Cu2   N3    S    
C2    C47   A    
C25   C27   A    
C5    S3    S    
C26   C28   A    
O5    S2    D    
C40   H25   S    
C32   C33   A    
C7    O17   S    
C28   C30   A    
C29   C31   A    
C26   H1    S    
C30   C32   A    
H24   O15   S    
Cu1   O23   S    
C20   H38   S    
C11   C14   A    
C39   H20   S    
O4    S2    D    
C25   H12   S    
C17   O23   A    
C9    H34   S    
Cu1   O1    S    
C40   H26   S    
Cu1   O20   S    
C38   H17   S    
C45   H5    S    
C8    C10   A    
Cu1   Cu2   S    
C42   C43   S    
C21   C24   A    
C4    H8    S    
C43   H32   S    
C39   H21   S    
O6    S2    S    
C20   C31   A    
