data_mof_unit_48564.cif
_audit_creation_date              2012-12-11T14:49:46-0500
_audit_creation_method            fapswitch 2.2
_symmetry_space_group_name_H-M    P1
_symmetry_Int_Tables_number       1
_space_group_crystal_system       triclinic
_cell_length_a                    16.917211
_cell_length_b                    16.734629
_cell_length_c                    19.380953
_cell_angle_alpha                 117.57151
_cell_angle_beta                  62.315921
_cell_angle_gamma                 100.620507
_cell_volume                      4303.6090821

loop_
_atom_site_label
_atom_site_type_symbol
_atom_type_description
_atom_site_fract_x
_atom_site_fract_y
_atom_site_fract_z
_atom_type_partial_charge
C1    C     C_R   0.040713 0.758955 0.009588 -0.149019
C2    C     C_R   0.251575 0.520554 0.827245 -0.119573
C3    C     C_R   0.183600 0.487843 0.086609 -0.133619
C4    C     C_R   0.763704 0.419830 0.164766 -0.144421
C5    C     C_R   0.985849 0.341050 0.760050 -0.152897
C6    C     C_R   0.259131 0.535694 0.061909 0.081279
C7    C     C_R   0.936423 0.265414 0.761017 0.084808
C8    C     C_R   0.257497 0.455774 0.746941 0.063632
C9    C     C_R   0.029389 0.222667 0.002727 0.059240
C10   C     C_R   0.852224 0.130771 0.710242 -0.258496
C11   C     C_R   0.897480 0.207100 0.701194 0.111994
C12   C     C_R   0.765948 0.439411 0.241474 0.084359
C13   C     C_R   0.912865 0.221607 0.630138 -0.250865
C14   C     C_R   0.896813 0.153559 0.561872 0.140313
C15   C     C_R   0.863849 0.071416 0.566159 0.026143
C16   C     C_R   0.804870 0.560400 0.961134 -0.121470
C17   C     C_R   0.836932 0.061962 0.642497 0.141517
C18   C     C_R   0.922091 0.162429 0.485865 -0.196331
C19   C     C_R   0.924147 0.087274 0.411564 -0.205760
C20   C     C_R   0.902426 0.002739 0.412698 0.144003
C21   C     C_R   0.867835 0.995694 0.491256 0.028263
C22   C     C_R   0.846807 0.910993 0.493001 0.135552
C23   C     C_R   0.723547 0.548632 0.021907 0.055873
C24   C     C_R   0.810354 0.904389 0.571413 -0.202017
C25   C     C_R   0.804942 0.979982 0.646251 -0.203887
C26   C     C_R   0.923637 0.924163 0.335742 -0.272639
C27   C     C_R   0.918642 0.839861 0.336517 0.119213
C28   C     C_R   0.952538 0.671955 0.248579 -0.165023
C29   C     C_R   0.872320 0.833532 0.415503 -0.244870
C30   C     C_R   0.422028 0.410195 0.671219 0.102411
C31   C     C_R   0.338892 0.407207 0.669038 0.066370
C32   C     C_R   0.335532 0.365407 0.589083 -0.291253
C33   C     C_R   0.413204 0.346353 0.513326 0.151920
C34   C     C_R   0.964905 0.759050 0.256460 0.015784
C35   C     C_R   0.495156 0.374972 0.517910 0.012631
C36   C     C_R   0.500644 0.409194 0.597708 -0.025045
C37   C     C_R   0.408130 0.309320 0.434273 -0.195304
C38   C     C_R   0.482408 0.307620 0.360640 -0.209327
C39   C     C_R   0.561681 0.344518 0.365989 0.145403
C40   C     C_R   0.738501 0.483183 0.039791 -0.125079
C41   C     C_R   0.569480 0.375107 0.443706 0.048598
C42   C     C_R   0.649185 0.412404 0.448728 0.128385
C43   C     C_R   0.656416 0.443581 0.525975 -0.257449
C44   C     C_R   0.582736 0.445385 0.601234 -0.074430
C45   C     C_R   0.252231 0.564793 0.008568 -0.179567
C46   C     C_R   0.630128 0.358588 0.297153 -0.259129
C47   C     C_R   0.705361 0.405447 0.305499 0.107917
C48   C     C_R   0.717156 0.426868 0.379238 -0.260963
C49   C     C_R   0.637078 0.592440 0.057127 0.140534
C50   C     C_R   0.325829 0.563018 0.096305 0.088398
C51   C     C_R   0.401566 0.537009 0.165426 0.116687
C52   C     C_R   0.030665 0.753870 0.176110 0.162291
C53   C     C_R   0.327571 0.526601 0.147901 -0.212244
C54   C     C_R   0.392536 0.620409 0.071653 -0.277780
C55   C     C_R   0.469569 0.625489 0.081231 0.171594
C56   C     C_R   0.919783 0.262688 0.836708 -0.135941
C57   C     C_R   0.476543 0.579884 0.124217 0.103805
C58   C     C_R   0.561004 0.569232 0.115715 -0.277339
C59   C     C_R   0.627781 0.647680 0.024574 -0.170765
C60   C     C_R   0.543641 0.666013 0.038478 -0.194155
C61   C     C_R   0.833108 0.181071 0.143512 0.121848
C62   C     C_R   0.962638 0.862559 0.993050 0.129656
C63   C     C_R   0.888437 0.948996 0.965782 -0.225078
C64   C     C_R   0.841840 0.488121 0.240800 -0.144885
C65   C     C_R   0.927447 0.868134 0.942336 -0.174827
C66   C     C_R   0.960973 0.940701 0.066320 -0.275656
C67   C     C_R   0.171654 0.448021 0.752415 -0.133200
C68   C     C_R   0.920781 0.021845 0.090993 0.189146
C69   C     C_R   0.883061 0.025627 0.040883 0.190093
C70   C     C_R   0.839075 0.105507 0.067868 -0.286085
C71   C     C_R   0.871227 0.177828 0.192484 -0.153797
C72   C     C_R   0.914976 0.098603 0.166527 -0.229843
C73   C     C_R   0.962800 0.689918 0.933752 -0.126914
C74   C     C_R   0.990366 0.773913 0.976707 0.056013
C75   C     C_3   0.427656 0.395566 0.741173 -0.406432
C76   C     C_3   0.366709 0.321618 0.762250 -0.271755
C77   C     C_3   0.378035 0.306410 0.829052 -0.886658
C78   C     C_R   0.051809 0.307658 0.051365 -0.124558
C79   C     C_2   0.591405 0.499982 0.683067 0.977690
C80   C     C_3   0.405416 0.495701 0.219585 -0.429190
C81   C     C_3   0.316419 0.464246 0.272383 -0.255684
C82   C     C_3   0.326759 0.434732 0.331578 -0.913931
C83   C     C_3   0.099999 0.825040 0.168447 -0.472022
C84   C     C_3   0.194091 0.785053 0.100289 -0.237204
C85   C     C_3   0.260236 0.858903 0.090445 -0.928622
C86   C     C_R   0.973707 0.238818 0.974981 -0.116915
H1    H     H_    0.084616 0.806403 0.032487 0.115060
H2    H     H_    0.944059 0.281992 0.624031 0.119387
H3    H     H_    0.945794 0.225746 0.482265 0.131475
H4    H     H_    0.722841 0.371241 0.136832 0.084795
H5    H     H_    0.949409 0.093830 0.351852 0.124944
H6    H     H_    0.950415 0.929408 0.275469 0.122498
H7    H     H_    0.862751 0.769166 0.418058 0.117500
H8    H     H_    0.792159 0.839763 0.573658 0.133105
H9    H     H_    0.782570 0.972555 0.705160 0.130021
H10   H     H_    0.272545 0.353789 0.584995 0.128605
H11   H     H_    0.345442 0.286311 0.430416 0.130806
H12   H     H_    0.872212 0.222003 0.866019 0.084356
H13   H     H_    0.476135 0.282846 0.300971 0.126952
H14   H     H_    0.620500 0.339131 0.240150 0.115925
H15   H     H_    0.816086 0.602321 0.929366 0.088953
H16   H     H_    0.775983 0.460636 0.385776 0.117922
H17   H     H_    0.717571 0.474311 0.529604 0.155183
H18   H     H_    0.568680 0.533475 0.146406 0.117510
H19   H     H_    0.685097 0.671280 0.983229 0.116259
H20   H     H_    0.538053 0.703191 0.007532 0.132584
H21   H     H_    0.273502 0.486083 0.170220 0.111755
H22   H     H_    0.390077 0.653500 0.036220 0.131103
H23   H     H_    0.150327 0.402999 0.703277 0.100298
H24   H     H_    0.809094 0.109592 0.030858 0.118200
H25   H     H_    0.908380 0.649554 0.297223 0.110793
H26   H     H_    0.866335 0.236789 0.250882 0.125383
H27   H     H_    0.860470 0.950956 0.926341 0.126595
H28   H     H_    0.943321 0.097011 0.205844 0.122739
H29   H     H_    0.928244 0.809495 0.885366 0.117337
H30   H     H_    0.986608 0.937450 0.106886 0.113878
H31   H     H_    0.691034 0.454731 0.082385 0.093074
H32   H     H_    0.872048 0.502692 0.283518 0.085507
H33   H     H_    0.932689 0.674480 0.890934 0.083726
H34   H     H_    0.092409 0.321135 0.084901 0.097242
H35   H     H_    0.293129 0.612465 0.985109 0.099946
H36   H     H_    0.447966 0.284173 0.803859 0.262530
H37   H     H_    0.360816 0.369561 0.889966 0.268203
H38   H     H_    0.332839 0.253334 0.843507 0.248953
H39   H     H_    0.295485 0.340627 0.788965 0.211868
H40   H     H_    0.383256 0.257422 0.702274 0.205756
H41   H     H_    0.496734 0.372774 0.718203 0.191806
H42   H     H_    0.412878 0.458917 0.800998 0.214749
H43   H     H_    0.666746 0.530407 0.747073 0.320829
H44   H     H_    0.377427 0.378306 0.292805 0.257176
H45   H     H_    0.941701 0.188297 0.937349 0.096646
H46   H     H_    0.347536 0.491963 0.378501 0.266357
H47   H     H_    0.261942 0.411401 0.368159 0.245861
H48   H     H_    0.264891 0.520140 0.312733 0.201586
H49   H     H_    0.293605 0.405703 0.228104 0.192594
H50   H     H_    0.454029 0.437101 0.176081 0.183156
H51   H     H_    0.430544 0.547504 0.265949 0.196849
H52   H     H_    0.240341 0.899146 0.068365 0.262051
H53   H     H_    0.262957 0.904184 0.152980 0.265261
H54   H     H_    0.327876 0.827729 0.041711 0.252109
H55   H     H_    0.193977 0.740233 0.036560 0.198659
H56   H     H_    0.305090 0.547123 0.845805 0.120701
H57   H     H_    0.216642 0.745102 0.120865 0.204322
H58   H     H_    0.079523 0.874989 0.156844 0.173490
H59   H     H_    0.103480 0.863584 0.231538 0.201469
H60   H     H_    0.160019 0.466176 0.137255 0.082362
H61   H     H_    0.999749 0.371807 0.717540 0.091903
H62   H     H_    0.836789 0.119642 0.765766 0.115738
N1    N     N_R   0.036080 0.671900 0.995420 -0.041462
N2    N     N_R   0.867430 0.509300 0.948100 -0.038826
N3    N     N_R   0.003360 0.617250 0.167070 -0.050068
N4    N     N_R   0.825450 0.461270 0.995400 -0.040266
N5    N     N_R   0.045340 0.665280 0.119770 -0.054639
N6    N     N_R   0.883740 0.497640 0.167070 -0.036785
N7    N     N_R   0.987050 0.628910 0.948110 -0.037513
N8    N     N_R   0.174550 0.538730 0.004600 -0.040168
N9    N     N_R   0.954660 0.334720 0.880230 -0.039642
N10   N     N_R   0.116260 0.502360 0.832930 -0.041307
N11   N     N_R   0.012950 0.371090 0.051890 -0.041183
N12   N     N_R   0.963920 0.328100 0.004580 -0.042530
N13   N     N_R   0.165290 0.545350 0.880240 -0.046746
N14   N     N_R   0.132570 0.490700 0.051900 -0.035775
N15   N     N_R   0.996640 0.382750 0.832930 -0.040190
N16   N     N_R   0.834710 0.454650 0.119760 -0.037569
Ni1   Ni    Ni4+2 0.104370 0.604370 0.000010 0.206060
Ni2   Ni    Ni4+2 0.895630 0.395630 0.999990 0.207983
Ni3   Ni    Ni4+2 0.991920 0.505780 0.891500 0.213553
Ni4   Ni    Ni4+2 0.008080 0.494220 0.108500 0.205488
O1    O     O_2   0.533924 0.557507 0.744247 -0.667932
O2    O     O_R   0.667848 0.488667 0.688499 -0.808329

loop_
_geom_bond_atom_site_label_1
_geom_bond_atom_site_label_2
_ccdc_geom_bond_type
C61   C70   A    
C1    H1    S    
C66   C68   A    
C63   C65   A    
C5    H61   S    
C6    C45   A    
C72   H28   S    
C27   C29   A    
C76   H40   S    
C41   C42   A    
C14   C18   A    
N15   Ni3   S    
C35   C36   A    
C56   H12   S    
C43   C44   A    
C3    C6    A    
C37   H11   S    
C81   C82   S    
C81   H48   S    
C39   C41   A    
C28   N3    A    
N8    Ni1   S    
C7    C11   S    
C26   C27   A    
C50   C54   A    
C66   H30   S    
C73   H33   S    
C1    C74   A    
C5    N15   A    
C79   O2    S    
N6    N16   A    
C22   C29   A    
C18   C19   A    
C78   N11   A    
N11   N12   A    
C30   C31   A    
C12   C64   A    
C86   H45   S    
C23   C49   S    
C10   C17   A    
C26   H6    S    
N3    Ni4   S    
C64   N6    A    
C64   H32   S    
N11   Ni4   S    
C40   N4    A    
C75   H42   S    
C73   C74   A    
C51   C80   S    
C46   H14   S    
C77   H36   S    
C70   H24   S    
C3    N14   A    
C83   H59   S    
C84   C85   S    
C67   H23   S    
C63   C69   A    
N7    Ni3   S    
C68   C69   A    
C23   C40   A    
C4    N16   A    
C1    N1    A    
C51   C57   A    
N12   Ni2   S    
C4    C12   A    
C85   H53   S    
C75   H41   S    
N10   N13   A    
C55   C60   A    
C61   C71   A    
C40   H31   S    
N8    N14   A    
C59   C60   A    
C27   C34   S    
C21   C22   A    
C76   H39   S    
C65   H29   S    
N6    Ni4   S    
C7    C56   A    
C12   C47   S    
C2    N13   A    
N10   Ni3   S    
C81   H49   S    
C4    H4    S    
C44   C79   S    
C28   H25   S    
C38   C39   A    
C50   C53   A    
C62   C66   A    
C47   C48   A    
H43   O2    S    
N1    Ni1   S    
C24   C25   A    
C5    C7    A    
C38   H13   S    
C42   C48   A    
C84   H57   S    
C45   H35   S    
C52   N5    A    
C33   C37   A    
C49   C58   A    
C51   C53   A    
C52   C83   S    
C78   H34   S    
C75   C76   S    
C37   C38   A    
C77   H37   S    
C24   H8    S    
C9    C86   A    
C56   N9    A    
C53   H21   S    
C83   C84   S    
C68   C72   A    
C48   H16   S    
C71   H26   S    
C73   N7    A    
C45   N8    A    
C59   H19   S    
C76   C77   S    
C85   H54   S    
C3    H60   S    
C39   C46   A    
N14   Ni4   S    
C32   H10   S    
C25   H9    S    
C16   C23   A    
C55   C57   A    
C2    H56   S    
N2    N4    A    
C36   C44   A    
C82   H44   S    
C42   C43   A    
C82   H46   S    
C60   H20   S    
C15   C17   A    
N9    N15   A    
C54   C55   A    
C6    C50   S    
C62   C65   A    
N5    Ni1   S    
C18   H3    S    
C31   C32   A    
C2    C8    A    
C80   C81   S    
C80   H50   S    
N9    Ni2   S    
N4    Ni2   S    
C54   H22   S    
C34   C52   A    
C49   C59   A    
C30   C36   A    
C17   C25   A    
C32   C33   A    
C79   O1    D    
C19   C20   A    
N16   Ni2   S    
N1    N7    A    
C71   C72   A    
C77   H38   S    
C29   H7    S    
C30   C75   S    
C11   C13   A    
C57   C58   A    
C83   H58   S    
C20   C26   A    
C84   H55   S    
C82   H47   S    
N2    Ni3   S    
C13   H2    S    
C33   C35   A    
C67   N10   A    
C22   C24   A    
C9    C78   A    
N3    N5    A    
C69   C70   A    
C35   C41   A    
C43   H17   S    
C46   C47   A    
C19   H5    S    
C10   C11   A    
C28   C34   A    
C63   H27   S    
C16   H15   S    
C15   C21   A    
C58   H18   S    
C20   C21   A    
C8    C67   A    
C14   C15   A    
C62   C74   S    
C16   N2    A    
C13   C14   A    
C86   N12   A    
C85   H52   S    
N13   Ni1   S    
C8    C31   S    
C80   H51   S    
C10   H62   S    
