data_mof_unit_19665.cif
_audit_creation_date              2012-12-10T20:02:22-0500
_audit_creation_method            fapswitch 2.2
_symmetry_space_group_name_H-M    P1
_symmetry_Int_Tables_number       1
_space_group_crystal_system       triclinic
_cell_length_a                    10.780851
_cell_length_b                    14.953285
_cell_length_c                    14.187217
_cell_angle_alpha                 90.423772
_cell_angle_beta                  92.638631
_cell_angle_gamma                 90.091565
_cell_volume                      2284.61733325

loop_
_atom_site_label
_atom_site_type_symbol
_atom_type_description
_atom_site_fract_x
_atom_site_fract_y
_atom_site_fract_z
_atom_type_partial_charge
C1    C     C_R   0.495947 0.327980 0.499672 0.934779
C2    C     C_R   0.418594 0.811061 0.421853 -0.006165
C3    C     C_R   0.479802 0.232716 0.498876 -0.120101
C4    C     C_R   0.477569 0.768063 0.499782 -0.169098
C5    C     C_R   0.545375 0.182234 0.435095 -0.331715
C6    C     C_R   0.520840 0.816810 0.578890 -0.258326
C7    C     C_R   0.536037 0.089978 0.435237 0.124686
C8    C     C_R   0.512913 0.908824 0.579917 0.110537
C9    C     C_R   0.456843 0.048849 0.497910 -0.000024
C10   C     C_R   0.454605 0.952389 0.502083 -0.007237
C11   C     C_R   0.474728 0.424678 0.100113 0.396574
C12   C     C_R   0.494604 0.672273 0.499962 0.923686
C13   C     C_R   0.445273 0.571394 0.893385 0.377121
C14   C     C_R   0.468753 0.425043 0.199985 0.154163
C15   C     C_R   0.440955 0.567069 0.793393 0.144349
C16   C     C_R   0.259693 0.500637 0.498165 0.882164
C17   C     C_R   0.740097 0.500142 0.502208 0.877147
C18   C     C_R   0.535114 0.575869 0.207736 -0.062352
C19   C     C_R   0.566007 0.437102 0.797181 -0.048079
C20   C     C_R   0.539555 0.579052 0.108732 -0.305126
C21   C     C_R   0.573099 0.438840 0.896295 -0.290546
C22   C     C_R   0.510447 0.503037 0.053077 0.028284
C23   C     C_R   0.872531 0.498256 0.505735 -0.083944
C24   C     C_R   0.512045 0.505901 0.946557 0.026180
C25   C     C_R   0.133442 0.544469 0.173539 -0.229835
C26   C     C_R   0.854694 0.528318 0.840386 -0.223014
C27   C     C_R   0.128656 0.545372 0.271205 -0.131316
C28   C     C_R   0.897502 0.498445 0.754555 -0.213336
C29   C     C_R   0.098494 0.467484 0.319321 0.085524
C30   C     C_R   0.893075 0.554720 0.676045 0.082617
C31   C     C_R   0.076692 0.387088 0.268567 0.016077
C32   C     C_R   0.846158 0.642171 0.684073 0.055660
C33   C     C_R   0.076205 0.386661 0.169245 0.535020
C34   C     C_R   0.126983 0.501379 0.496551 -0.104053
C35   C     C_R   0.799779 0.672577 0.770134 0.553161
C36   C     C_R   0.106780 0.466154 0.122368 -0.298789
C37   C     C_R   0.806207 0.614329 0.848737 -0.252909
C38   C     C_R   0.927557 0.473591 0.422576 -0.236116
C39   C     C_R   0.071855 0.523167 0.581408 -0.244879
C40   C     C_3   0.337311 0.340126 0.010082 -0.308811
C41   C     C_3   0.269783 0.615940 0.961569 -0.342935
C42   C     C_3   0.968521 0.320141 0.041930 -0.355914
C43   C     C_3   0.676724 0.777249 0.846935 -0.320278
C44   C     C_3   0.196616 0.036957 0.585436 -0.343751
C45   C     C_R   0.944826 0.523204 0.586757 0.051111
C46   C     C_3   0.238266 0.970056 0.348392 -0.354502
C47   C     C_R   0.053896 0.477637 0.415649 0.048436
C48   C     C_R   0.385254 0.099555 0.559297 0.433751
C49   C     C_R   0.405928 0.903791 0.423321 0.494459
C50   C     C_R   0.398968 0.192268 0.561001 -0.005340
H1    H     H_    0.109169 0.467893 0.046370 0.135148
H2    H     H_    0.935142 0.431558 0.749341 0.143709
H3    H     H_    0.871390 0.454738 0.360063 0.172323
H4    H     H_    0.127445 0.543128 0.643725 0.166508
H5    H     H_    0.607426 0.214272 0.387597 0.165790
H6    H     H_    0.565847 0.783597 0.638791 0.211939
H7    H     H_    0.703849 0.053238 0.390352 0.167458
H8    H     H_    0.589422 0.056855 0.304903 0.215249
H9    H     H_    0.636708 0.001892 0.630508 0.183531
H10   H     H_    0.507676 0.991646 0.694096 0.234643
H11   H     H_    0.307646 0.402554 0.973420 0.141871
H12   H     H_    0.775855 0.634676 0.917206 0.140710
H13   H     H_    0.271189 0.322576 0.064255 0.207831
H14   H     H_    0.333797 0.285664 0.956531 0.202133
H15   H     H_    0.275935 0.562819 0.015390 0.171853
H16   H     H_    0.211919 0.592321 0.899353 0.149417
H17   H     H_    0.222338 0.674362 0.992164 0.200829
H18   H     H_    0.338786 0.330974 0.222700 0.180428
H19   H     H_    0.487196 0.293235 0.228069 0.201134
H20   H     H_    0.280845 0.630251 0.754236 0.168848
H21   H     H_    0.408645 0.696389 0.759048 0.196846
H22   H     H_    0.959164 0.285378 0.293907 0.203799
H23   H     H_    0.560805 0.634742 0.248758 0.164900
H24   H     H_    0.111669 0.258147 0.301856 0.207830
H25   H     H_    0.756440 0.719280 0.586463 0.199130
H26   H     H_    0.898240 0.757791 0.623895 0.210840
H27   H     H_    0.892691 0.368279 0.056263 0.162243
H28   H     H_    0.923909 0.255316 0.022373 0.205292
H29   H     H_    0.021214 0.341877 0.980632 0.158393
H30   H     H_    0.729502 0.784426 0.915699 0.170877
H31   H     H_    0.603960 0.724776 0.850016 0.172775
H32   H     H_    0.628544 0.841575 0.832780 0.211835
H33   H     H_    0.201262 0.972927 0.545863 0.168346
H34   H     H_    0.614836 0.385738 0.759761 0.152167
H35   H     H_    0.156357 0.090848 0.539656 0.143068
H36   H     H_    0.132151 0.026610 0.643099 0.203827
H37   H     H_    0.230369 0.034023 0.387645 0.171708
H38   H     H_    0.182134 0.916641 0.380623 0.136179
H39   H     H_    0.197845 0.981116 0.276124 0.206567
H40   H     H_    0.235410 0.234577 0.610338 0.192250
H41   H     H_    0.352195 0.224457 0.693702 0.217161
H42   H     H_    0.414028 0.783732 0.281516 0.220002
H43   H     H_    0.275883 0.772158 0.332651 0.182439
H44   H     H_    0.567950 0.640453 0.075886 0.192058
H45   H     H_    0.626942 0.388060 0.933556 0.192946
H46   H     H_    0.152779 0.606002 0.137620 0.156454
H47   H     H_    0.859421 0.484651 0.900971 0.153053
H48   H     H_    0.141161 0.608213 0.309025 0.142120
N1    N     N_R   0.500000 0.499980 0.252470 -0.105820
N2    N     N_3   0.371302 0.760682 0.341426 -0.426345
N3    N     N_R   0.500000 0.500020 0.747530 -0.108380
N4    N     N_3   0.610589 0.037658 0.374510 -0.426663
N5    N     N_3   0.573603 0.956486 0.657178 -0.441396
N6    N     N_3   0.429540 0.346141 0.246387 -0.386529
N7    N     N_3   0.374580 0.633233 0.739107 -0.385152
N8    N     N_3   0.047107 0.307297 0.318319 -0.463308
N9    N     N_3   0.847638 0.700383 0.604284 -0.464609
N10   N     N_3   0.330138 0.245605 0.624881 -0.423222
O1    O     O_R   0.500010 0.369070 0.579480 -0.610728
O2    O     O_3   0.389391 0.642480 0.937369 -0.622940
O3    O     O_3   0.049517 0.306745 0.121657 -0.631575
O4    O     O_3   0.758150 0.760872 0.773758 -0.633562
O5    O     O_3   0.314410 0.059172 0.626113 -0.623205
O6    O     O_3   0.364113 0.946696 0.341634 -0.600636
O7    O     O_R   0.499990 0.630930 0.420520 -0.606870
O8    O     O_R   0.500010 0.369060 0.420520 -0.604695
O9    O     O_R   0.499990 0.630940 0.579480 -0.613437
O10   O     O_R   0.316760 0.500010 0.579480 -0.610602
O11   O     O_R   0.683240 0.499990 0.420520 -0.628960
O12   O     O_R   0.316760 0.500000 0.420520 -0.608749
O13   O     O_R   0.683240 0.500000 0.579480 -0.619205
O14   O     O_3   0.458871 0.344886 0.050796 -0.628508
Zn1   Zn    Zn3+2 0.500000 0.500010 0.606140 0.964700
Zn2   Zn    Zn3+2 0.500000 0.499990 0.393860 0.966941

loop_
_geom_bond_atom_site_label_1
_geom_bond_atom_site_label_2
_ccdc_geom_bond_type
C27   H48   S    
H25   N9    S    
C23   C45   A    
C27   C29   A    
C28   H2    S    
C30   C45   S    
C44   H33   S    
C37   H12   S    
C14   N1    A    
C41   H17   S    
C46   H39   S    
O11   Zn2   S    
H7    N4    S    
N3    Zn1   S    
C40   H13   S    
C29   C47   S    
C19   C21   A    
C16   O12   A    
C11   C14   A    
C39   H4    S    
C33   C36   A    
C16   C34   S    
C32   N9    S    
C31   C33   A    
H8    N4    S    
C1    O8    A    
C4    C12   S    
H10   N5    S    
C9    C10   S    
C26   H47   S    
C39   C45   A    
C12   O7    A    
C1    O1    A    
C48   C50   A    
C49   O6    S    
C2    N2    S    
C42   H29   S    
C50   N10   S    
H22   N8    S    
C44   H36   S    
C3    C50   A    
C46   H38   S    
C46   O6    S    
C34   C39   A    
C32   C35   A    
C4    C6    A    
C5    C7    A    
O1    Zn1   S    
C41   H15   S    
C21   H45   S    
C43   H30   S    
C7    N4    S    
C40   H11   S    
C13   C24   A    
C1    C3    S    
C2    C4    A    
C42   O3    S    
C13   O2    S    
C2    C49   A    
C16   O10   A    
H24   N8    S    
C14   N6    S    
C17   C23   S    
C15   N3    A    
H43   N2    S    
C38   C47   A    
C36   H1    S    
C42   H27   S    
C33   O3    S    
C17   O13   A    
C20   C22   A    
C44   O5    S    
C42   H28   S    
C18   H23   S    
C41   O2    S    
C13   C15   A    
C43   H31   S    
C31   N8    S    
C22   C24   S    
C11   O14   S    
C25   C27   A    
C18   N1    A    
C44   H35   S    
C9    C48   A    
H42   N2    S    
C46   H37   S    
H19   N6    S    
C7    C9    A    
C20   H44   S    
O7    Zn2   S    
O8    Zn2   S    
C35   C37   A    
H41   N10   S    
C5    H5    S    
H18   N6    S    
C6    H6    S    
C3    C5    A    
H20   N7    S    
C6    C8    A    
C26   C37   A    
C41   H16   S    
H26   N9    S    
C23   C38   A    
C40   O14   S    
C11   C22   A    
C26   C28   A    
C40   H14   S    
H9    N5    S    
C15   N7    S    
H21   N7    S    
O9    Zn1   S    
H40   N10   S    
C29   C31   A    
C30   C32   A    
C19   N3    A    
C38   H3    S    
C28   C30   A    
C18   C20   A    
O10   Zn1   S    
C8    N5    S    
O13   Zn1   S    
C17   O11   A    
C25   C36   A    
C12   O9    A    
O12   Zn2   S    
C25   H46   S    
C8    C10   A    
C43   O4    S    
C21   C24   A    
C43   H32   S    
C48   O5    S    
C34   C47   A    
C10   C49   A    
C35   O4    S    
C19   H34   S    
N1    Zn2   S    
