data_mof_unit_9527.cif
_audit_creation_date              2013-03-05T16:48:45-0500
_audit_creation_method            fapswitch 2.2
_symmetry_space_group_name_H-M    P1
_symmetry_Int_Tables_number       1
_space_group_crystal_system       triclinic
_cell_length_a                    27.722968
_cell_length_b                    8.99425
_cell_length_c                    8.092964
_cell_angle_alpha                 89.999913
_cell_angle_beta                  90.000899
_cell_angle_gamma                 90.000044
_cell_volume                      2017.95876208

loop_
_atom_site_label
_atom_site_type_symbol
_atom_site_description
_atom_site_fract_x
_atom_site_fract_y
_atom_site_fract_z
_atom_type_partial_charge
O1    O     O_R   0.500000 0.285350 0.636850 -0.613378
O2    O     O_R   0.500000 0.714650 0.363150 -0.613381
O3    O     O_R   0.500000 0.714650 0.636850 -0.613381
O4    O     O_R   0.500000 0.285350 0.363150 -0.613378
C1    C     C_R   0.500000 0.217834 0.500000 0.943604
C2    C     C_R   0.500000 0.782166 0.500000 0.943598
O5    O     O_R   0.428760 0.500000 0.636860 -0.623499
O6    O     O_R   0.571240 0.500000 0.363140 -0.623499
O7    O     O_R   0.571240 0.500000 0.636860 -0.623503
O8    O     O_R   0.428760 0.500000 0.363140 -0.623503
C3    C     C_R   0.405705 0.500003 0.499998 0.873746
C4    C     C_R   0.594295 0.500003 0.500002 0.873748
Zn1   Zn    Zn3+2 0.500000 0.500000 0.682780 1.001534
Zn2   Zn    Zn3+2 0.500000 0.500000 0.317220 1.001534
C5    C     C_R   0.177315 0.370819 0.465986 0.616560
C6    C     C_R   0.822682 0.629447 0.466053 0.616559
C7    C     C_R   0.177318 0.629447 0.533961 0.616562
C8    C     C_R   0.822685 0.370816 0.534017 0.616560
O9    O     O_2   0.202693 0.245881 0.434789 -0.431655
O10   O     O_2   0.797301 0.754382 0.434868 -0.431659
O11   O     O_2   0.202699 0.754380 0.565155 -0.431663
O12   O     O_2   0.797307 0.245876 0.565205 -0.431652
N1    N     N_R   0.201137 0.500131 0.499973 -0.382726
N2    N     N_R   0.798863 0.500129 0.500035 -0.382726
C9    C     C_R   0.277522 0.508250 0.649708 -0.080844
C10   C     C_R   0.722475 0.491934 0.649744 -0.080829
C11   C     C_R   0.277524 0.491950 0.350258 -0.080829
C12   C     C_R   0.722478 0.508259 0.350301 -0.080841
C13   C     C_R   0.327633 0.508068 0.649944 -0.195177
C14   C     C_R   0.672365 0.492027 0.649964 -0.195175
C15   C     C_R   0.327635 0.492043 0.350035 -0.195172
C16   C     C_R   0.672367 0.508079 0.350063 -0.195181
C17   C     C_R   0.252523 0.500121 0.499979 0.265313
C18   C     C_R   0.747477 0.500117 0.500028 0.265306
C19   C     C_R   0.101433 0.500137 0.499982 -0.231565
C20   C     C_R   0.898567 0.500136 0.500028 -0.231565
C21   C     C_R   0.126783 0.367772 0.465490 -0.217282
C22   C     C_R   0.873215 0.632501 0.465546 -0.217279
C23   C     C_R   0.126785 0.632501 0.534466 -0.217279
C24   C     C_R   0.873218 0.367770 0.534516 -0.217283
C25   C     C_R   0.100951 0.237706 0.428038 0.629365
C26   C     C_R   0.899044 0.762569 0.428091 0.629361
C27   C     C_R   0.100956 0.762569 0.571923 0.629361
C28   C     C_R   0.899049 0.237704 0.571967 0.629366
C29   C     C_R   0.353012 0.500032 0.499993 -0.044549
C30   C     C_R   0.646988 0.500030 0.500008 -0.044552
H1    H     H_    0.346424 0.485630 0.232886 0.164309
H2    H     H_    0.653579 0.514469 0.232911 0.164310
H3    H     H_    0.346421 0.514448 0.767098 0.164309
H4    H     H_    0.653575 0.485605 0.767108 0.164313
H5    H     H_    0.258043 0.485852 0.234431 0.146492
H6    H     H_    0.741960 0.514394 0.234484 0.146496
H7    H     H_    0.258040 0.514375 0.765529 0.146493
H8    H     H_    0.741956 0.485827 0.765569 0.146494
C31   C     C_R   0.974810 0.364519 0.513954 -0.086137
C32   C     C_R   0.025191 0.635759 0.513942 -0.086131
C33   C     C_R   0.974809 0.635759 0.486070 -0.086132
C34   C     C_R   0.025190 0.364519 0.486055 -0.086136
C35   C     C_R   0.949447 0.500138 0.500018 -0.072496
C36   C     C_R   0.050553 0.500139 0.499992 -0.072496
C37   C     C_R   0.949144 0.236298 0.562151 0.643509
C38   C     C_R   0.050860 0.763978 0.562126 0.643506
C39   C     C_R   0.949140 0.763979 0.437888 0.643506
C40   C     C_R   0.050856 0.236299 0.437856 0.643507
C41   C     C_1   0.500000 0.065047 0.500000 -0.177098
C42   C     C_1   0.500000 0.934953 0.500000 -0.177097
N3    N     N_1   0.500000 0.500000 0.073640 -0.034632
N4    N     N_1   0.500000 0.500000 0.926360 -0.034632
F1    F     F_    0.123730 0.111939 0.377715 -0.521525
F2    F     F_    0.876262 0.888336 0.377778 -0.521522
F3    F     F_    0.123738 0.888335 0.622236 -0.521524
F4    F     F_    0.876270 0.111937 0.622291 -0.521523
F5    F     F_    0.972330 0.114504 0.619599 -0.501309
F6    F     F_    0.027678 0.885775 0.619583 -0.501308
F7    F     F_    0.972323 0.885775 0.380432 -0.501307
F8    F     F_    0.027670 0.114505 0.380408 -0.501311

loop_
_geom_bond_atom_site_label_1
_geom_bond_atom_site_label_2
_geom_bond_distance
_ccdc_geom_bond_type
C31   C35   1.412447 A    
C19   C23   1.410382 A    
C20   C35   1.410545 A    
C13   H3    1.083281 S    
C11   C17   1.397863 A    
O5    C3    1.278795 A    
C7    N1    1.365462 A    
O1    C1    1.263078 A    
C19   C21   1.410380 A    
C9    H7    1.083222 S    
C22   C26   1.404720 A    
C33   C35   1.412449 A    
C34   C36   1.412448 A    
C26   F2    1.358034 S    
C32   C33   1.414854 A    
C7    C23   1.401203 A    
C8    C24   1.401190 A    
C5    C21   1.401190 A    
O7    Zn1   2.009648 S    
C10   C18   1.397839 A    
N1    C17   1.424586 S    
C27   F3    1.358033 S    
Zn2   N3    1.971284 S    
C8    N2    1.365465 A    
C24   C28   1.404717 A    
O3    Zn1   1.966072 S    
C6    O10   1.349623 S    
O3    C2    1.263078 A    
C5    N1    1.365464 A    
C14   H4    1.083269 S    
C12   C18   1.397833 A    
C6    N2    1.365465 A    
C15   H1    1.083296 S    
C21   C25   1.404717 A    
C16   H2    1.083268 S    
O2    C2    1.263078 A    
C10   H8    1.083194 S    
C12   C16   1.389225 A    
C11   H5    1.083209 S    
C33   C39   1.410111 A    
C9    C13   1.389222 A    
C11   C15   1.389222 A    
N3    N4    1.191931 T    
C20   C24   1.410380 A    
C4    C30   1.460806 S    
O8    Zn2   2.009650 S    
C23   C27   1.404717 A    
C34   C40   1.410108 A    
C37   F5    1.352529 S    
N2    C18   1.424592 S    
C32   C36   1.412450 A    
C13   C29   1.404620 A    
C19   C36   1.410545 A    
C5    O9    1.349619 S    
C2    C42   1.374203 S    
O6    C4    1.278794 A    
C40   F8    1.352528 S    
C1    C41   1.374203 S    
C10   C14   1.389219 A    
C32   C38   1.410111 A    
C3    C29   1.460806 S    
O1    Zn1   1.966074 S    
C25   F1    1.358032 S    
O6    Zn2   2.009636 S    
C8    O12   1.349621 S    
C16   C30   1.404591 A    
C14   C30   1.404585 A    
O4    C1    1.263078 A    
C28   C37   1.391106 A    
C20   C22   1.410383 A    
C12   H6    1.083200 S    
C39   F7    1.352528 S    
C31   C37   1.410108 A    
C28   F4    1.358034 S    
O4    Zn2   1.966073 S    
O2    Zn2   1.966073 S    
O7    C4    1.278788 A    
C7    O11   1.349619 S    
O8    C3    1.278791 A    
O5    Zn1   2.009639 S    
C41   C42   1.170099 T    
C15   C29   1.404602 A    
C31   C34   1.414841 A    
C9    C17   1.397848 A    
C38   F6    1.352528 S    
C25   C40   1.391109 A    
C26   C39   1.391117 A    
C27   C38   1.391120 A    
C6    C22   1.401203 A    
Zn1   N4    1.971284 S    
