data_mof_unit_26472.cif
_audit_creation_date              2012-10-26T21:15:30-0400
_audit_creation_method            fapswitch 2.2
_symmetry_space_group_name_H-M    P1
_symmetry_Int_Tables_number       1
_space_group_crystal_system       triclinic
_cell_length_a                    10.624869
_cell_length_b                    10.90329
_cell_length_c                    9.833914
_cell_angle_alpha                 91.411766
_cell_angle_beta                  89.916874
_cell_angle_gamma                 91.700958
_cell_volume                      1138.37194315

loop_
_atom_site_label
_atom_site_type_symbol
_atom_type_description
_atom_site_fract_x
_atom_site_fract_y
_atom_site_fract_z
_atom_type_partial_charge
C1    C     C_R   0.497279 0.265461 0.498379 0.560585
C2    C     C_2   0.403304 0.471332 0.076075 -0.010747
C3    C     C_R   0.259847 0.499637 0.500258 0.551430
C4    C     C_R   0.501057 0.734336 0.501255 0.557045
C5    C     C_R   0.740150 0.500167 0.499744 0.572838
C6    C     C_3   0.038853 0.502728 0.627857 0.296606
C7    C     C_3   0.954235 0.399221 0.564958 -0.161817
C8    C     C_3   0.877058 0.499391 0.498848 0.027723
C9    C     C_3   0.962220 0.601195 0.561746 0.290194
C10   C     C_3   0.045625 0.599187 0.433546 -0.151214
C11   C     C_3   0.341532 0.329450 0.867956 -0.209673
C12   C     C_3   0.959498 0.495726 0.369863 -0.160577
C13   C     C_3   0.254179 0.263993 0.969901 -0.336343
C14   C     C_3   0.186443 0.152682 0.903136 -0.463622
C15   C     C_3   0.589506 0.589477 0.912741 -0.099291
C16   C     C_3   0.640676 0.702366 0.837247 -0.251790
C17   C     C_3   0.737584 0.775212 0.924555 -0.491924
C18   C     C_3   0.991813 0.483269 0.855082 -0.138033
C19   C     C_3   0.010970 0.789940 0.661104 -0.129513
C20   C     C_3   0.588333 0.054651 0.167994 -0.123710
C21   C     C_3   0.039292 0.396563 0.436357 -0.181128
C22   C     C_3   0.122939 0.499799 0.500962 0.018179
C23   C     C_2   0.480568 0.928160 0.391255 -0.162068
C24   C     C_2   0.509121 0.866922 0.503231 -0.161853
C25   C     C_2   0.496545 0.062607 0.382263 0.247973
C26   C     C_2   0.487171 0.132440 0.496582 -0.080299
C27   C     C_2   0.419103 0.438267 0.926002 0.121122
Cu1   Cu    Cu3+1 0.500030 0.500020 0.638630 0.925439
Cu2   Cu    Cu3+1 0.499970 0.499980 0.361370 0.940049
H1    H     H_    0.913852 0.317862 0.617021 0.099793
H2    H     H_    0.128167 0.181487 0.816455 0.151860
H3    H     H_    0.255698 0.085254 0.865860 0.149769
H4    H     H_    0.123796 0.107588 0.978625 0.144558
H5    H     H_    0.309887 0.232499 0.057414 0.197559
H6    H     H_    0.181786 0.327821 0.007955 0.155745
H7    H     H_    0.282319 0.358023 0.783416 0.221331
H8    H     H_    0.408273 0.260469 0.829354 0.157224
H9    H     H_    0.695238 0.805459 0.022691 0.133977
H10   H     H_    0.820281 0.718751 0.945509 0.157629
H11   H     H_    0.770462 0.858070 0.869761 0.150420
H12   H     H_    0.468721 0.091915 0.594453 0.037143
H13   H     H_    0.689704 0.678510 0.742435 0.255383
H14   H     H_    0.563143 0.766405 0.820030 0.166476
H15   H     H_    0.543162 0.639970 0.996727 0.144762
H16   H     H_    0.673162 0.539301 0.946047 0.100408
H17   H     H_    0.968690 0.383181 0.853115 0.108588
H18   H     H_    0.905653 0.535923 0.836525 0.147589
H19   H     H_    0.026095 0.508955 0.958707 0.122366
H20   H     H_    0.055479 0.827485 0.567991 0.110221
H21   H     H_    0.082882 0.748804 0.726632 0.163472
H22   H     H_    0.971168 0.868112 0.719329 0.123796
H23   H     H_    0.309917 0.471259 0.120329 0.144261
H24   H     H_    0.538510 0.974576 0.118357 0.108410
H25   H     H_    0.675004 0.025800 0.220669 0.115182
H26   H     H_    0.618603 0.117275 0.086146 0.131412
H27   H     H_    0.582684 0.465221 0.119158 0.216038
H28   H     H_    0.085902 0.679519 0.379551 0.104476
H29   H     H_    0.923818 0.491887 0.263726 0.122822
H30   H     H_    0.074786 0.313074 0.384012 0.121053
H31   H     H_    0.447120 0.878189 0.300842 0.150157
H32   H     H_    0.544526 0.912484 0.595247 0.087050
N1    N     N_2   0.498620 0.498660 0.846910 -0.227460
N2    N     N_2   0.498590 0.498630 0.153040 -0.381734
O1    O     O_R   0.500020 0.321960 0.617040 -0.538637
O2    O     O_3   0.912400 0.705343 0.627807 -0.591046
O3    O     O_3   0.506550 0.118207 0.256281 -0.541773
O4    O     O_R   0.499980 0.321920 0.382900 -0.427346
O5    O     O_R   0.316870 0.499990 0.617050 -0.476392
O6    O     O_R   0.316830 0.499950 0.382910 -0.512989
O7    O     O_R   0.500020 0.678080 0.617100 -0.518717
O8    O     O_R   0.499980 0.678040 0.382960 -0.488543
O9    O     O_R   0.683170 0.500050 0.617090 -0.512208
O10   O     O_R   0.683130 0.500010 0.382950 -0.509542
O11   O     O_3   0.088160 0.510493 0.761080 -0.570127

loop_
_geom_bond_atom_site_label_1
_geom_bond_atom_site_label_2
_ccdc_geom_bond_type
C8    C9    S    
C5    C8    S    
C23   C24   D    
Cu2   N2    S    
Cu1   N1    S    
C19   O2    S    
C6    C7    S    
C1    O4    A    
C27   N1    D    
C19   H22   S    
C9    C10   S    
C19   H20   S    
C3    O5    A    
C19   H21   S    
C11   C27   S    
C14   H2    S    
C8    C12   S    
C12   H29   S    
C18   H18   S    
C10   H28   S    
C6    C9    S    
C4    O7    A    
C12   C21   S    
H27   N2    S    
C7    C8    S    
C18   O11   S    
C7    H1    S    
Cu1   O9    S    
C13   C14   S    
C10   C22   S    
C7    C21   S    
C11   C13   S    
C16   H14   S    
Cu1   Cu2   S    
C2    C27   S    
C2    H23   S    
C14   H4    S    
C24   H32   S    
C10   C12   S    
C21   C22   S    
C11   H7    S    
C3    O6    A    
C15   N1    S    
C15   H15   S    
C13   H6    S    
C5    O9    A    
Cu2   O6    S    
C17   H9    S    
C20   H26   S    
C5    O10   A    
C23   H31   S    
C4    C24   S    
C9    O2    S    
C6    O11   S    
C1    C26   S    
Cu2   O10   S    
C15   H16   S    
C15   C16   S    
C6    C22   S    
C21   H30   S    
C18   H17   S    
C13   H5    S    
C23   C25   S    
C2    N2    D    
Cu1   O1    S    
C20   H25   S    
C17   H10   S    
C20   O3    S    
C11   H8    S    
C16   C17   S    
C3    C22   S    
Cu1   O5    S    
C25   C26   D    
Cu2   O4    S    
C16   H13   S    
C1    O1    A    
C4    O8    A    
Cu1   O7    S    
C25   O3    S    
C26   H12   S    
C14   H3    S    
C20   H24   S    
Cu2   O8    S    
C17   H11   S    
C18   H19   S    
