data_mof_unit_38154.cif
_audit_creation_date              2012-12-10T20:31:08-0500
_audit_creation_method            fapswitch 2.2
_symmetry_space_group_name_H-M    P1
_symmetry_Int_Tables_number       1
_space_group_crystal_system       triclinic
_cell_length_a                    14.894011
_cell_length_b                    10.628554
_cell_length_c                    9.918923
_cell_angle_alpha                 90.239207
_cell_angle_beta                  90.953691
_cell_angle_gamma                 90.438255
_cell_volume                      1569.90539536

loop_
_atom_site_label
_atom_site_type_symbol
_atom_type_description
_atom_site_fract_x
_atom_site_fract_y
_atom_site_fract_z
_atom_type_partial_charge
Br1   Br    Br    0.259920 0.232604 0.442262 -0.509010
Br2   Br    Br    0.116495 0.870255 0.613160 -0.421293
Br3   Br    Br    0.896219 0.872568 0.619976 -0.448150
Br4   Br    Br    0.556258 0.135384 0.198797 -0.527175
C1    C     C_R   0.507085 0.260026 0.499062 0.947453
C2    C     C_R   0.186779 0.382181 0.460664 0.171187
C3    C     C_R   0.231921 0.493616 0.495991 -0.127253
C4    C     C_R   0.327316 0.498425 0.498958 0.951194
C5    C     C_R   0.188035 0.603206 0.528605 -0.225019
C6    C     C_R   0.544165 0.064500 0.615414 0.040405
C7    C     C_R   0.530042 0.129089 0.495418 -0.183200
C8    C     C_R   0.541532 0.062046 0.373101 0.285759
C9    C     C_R   0.538787 0.931797 0.376020 -0.221711
C10   C     C_R   0.528195 0.870021 0.499335 -0.142903
C11   C     C_R   0.545416 0.936435 0.617968 0.125061
C12   C     C_R   0.908030 0.609413 0.534505 -0.008332
C13   C     C_3   0.507649 0.931586 0.756734 -0.461131
C14   C     C_3   0.506054 0.075102 0.752194 -0.225446
C15   C     C_R   0.422953 0.475504 0.068919 0.207708
C16   C     C_R   0.505658 0.739783 0.500287 0.895806
C17   C     C_R   0.571881 0.543168 0.074888 -0.122054
C18   C     C_R   0.571403 0.546114 0.931537 -0.000411
C19   C     C_R   0.423112 0.474701 0.927275 0.192441
C20   C     C_3   0.365494 0.359728 0.920427 -0.471744
C21   C     C_3   0.364605 0.361312 0.073901 -0.433555
C22   C     C_R   0.672709 0.500041 0.500848 0.865666
C23   C     C_R   0.946496 0.282072 0.412627 -0.222344
C24   C     C_R   0.814588 0.607356 0.538215 -0.170465
C25   C     C_R   0.767813 0.498854 0.501978 -0.060774
C26   C     C_R   0.810844 0.391089 0.459892 -0.215256
C27   C     C_R   0.903587 0.389933 0.456292 0.138837
C28   C     C_R   0.953063 0.498537 0.494167 0.030926
C29   C     C_1   0.571890 0.138631 0.841528 0.310947
C30   C     C_1   0.645943 0.606816 0.868048 0.242862
C31   C     C_1   0.075071 0.165042 0.347023 0.323768
C32   C     C_R   0.039463 0.277472 0.407700 -0.018858
C33   C     C_R   0.091915 0.382957 0.452373 0.046804
C34   C     C_R   0.046835 0.495917 0.491603 -0.025638
C35   C     C_R   0.095305 0.606417 0.529035 0.000044
C36   C     C_R   0.050596 0.717931 0.565920 0.238604
C37   C     C_R   0.956734 0.719247 0.568996 0.226953
H1    H     H_    0.776688 0.689439 0.566568 0.184980
H2    H     H_    0.771774 0.308532 0.430175 0.153423
H3    H     H_    0.398638 0.279496 0.120577 0.262989
H4    H     H_    0.906816 0.200982 0.379921 0.171565
H5    H     H_    0.228210 0.685249 0.554910 0.189512
H6    H     H_    0.538752 0.880512 0.281355 0.198682
H7    H     H_    0.439400 0.888464 0.758126 0.214690
H8    H     H_    0.556242 0.891951 0.831339 0.210237
H9    H     H_    0.437431 0.114797 0.751795 0.178228
H10   H     H_    0.629944 0.577214 0.131550 0.160056
H11   H     H_    0.298671 0.378436 0.873443 0.223497
H12   H     H_    0.401329 0.278057 0.878879 0.212929
H13   H     H_    0.297418 0.382452 0.115190 0.217276
N1    N     N_R   0.499390 0.499140 0.142800 -0.103084
N2    N     N_R   0.499390 0.499180 0.857150 -0.131759
N3    N     N_1   0.624880 0.190138 0.908615 -0.132106
N4    N     N_1   0.706357 0.657362 0.819553 -0.178305
N5    N     N_1   0.102040 0.074304 0.297538 -0.108491
O1    O     O_R   0.500010 0.316790 0.614690 -0.630074
O2    O     O_R   0.500000 0.316760 0.385350 -0.561076
O3    O     O_R   0.367850 0.499990 0.614680 -0.611742
O4    O     O_R   0.367840 0.499950 0.385340 -0.601913
O5    O     O_R   0.500000 0.683240 0.614650 -0.624201
O6    O     O_R   0.499990 0.683210 0.385310 -0.628266
O7    O     O_R   0.632160 0.500050 0.614660 -0.616169
O8    O     O_R   0.632150 0.500010 0.385320 -0.618656
Zn1   Zn    Zn3+2 0.500010 0.500020 0.653130 0.970948
Zn2   Zn    Zn3+2 0.499990 0.499980 0.346870 0.996124

loop_
_geom_bond_atom_site_label_1
_geom_bond_atom_site_label_2
_ccdc_geom_bond_type
C16   O5    A    
O7    Zn1   S    
C19   C20   S    
C12   C24   A    
C33   C34   A    
C28   C34   A    
C23   C32   A    
C12   C28   A    
C25   C26   A    
C15   C19   A    
C31   C32   S    
C10   C11   A    
C13   H7    S    
O3    Zn1   S    
C5    H5    S    
C7    C8    A    
C23   H4    S    
C13   C14   S    
C20   H12   S    
C2    C33   A    
C1    O2    A    
C3    C4    S    
N2    Zn1   S    
C17   C18   A    
C20   C21   S    
C30   N4    T    
C8    C9    A    
O1    Zn1   S    
N1    Zn2   S    
C6    C14   S    
C18   C30   S    
C22   O8    A    
O5    Zn1   S    
C21   H3    S    
C24   H1    S    
C36   C37   A    
C1    C7    S    
C2    C3    A    
C3    C5    A    
C20   H11   S    
C23   C27   A    
O4    Zn2   S    
C26   C27   A    
C15   C21   S    
C14   C29   S    
O6    Zn2   S    
C26   H2    S    
Br4   C8    S    
C6    C7    A    
C4    O4    A    
C13   H8    S    
Br1   C2    S    
C22   O7    A    
C18   N2    A    
Br2   C36   S    
C16   O6    A    
C17   H10   S    
C34   C35   A    
C21   H13   S    
C14   H9    S    
C10   C16   S    
C31   N5    T    
C19   N2    A    
O2    Zn2   S    
C35   C36   A    
C17   N1    A    
C15   N1    A    
C22   C25   S    
C32   C33   A    
C29   N3    T    
C1    O1    A    
C6    C11   A    
C11   C13   S    
C9    H6    S    
C12   C37   A    
C5    C35   A    
Br3   C37   S    
C24   C25   A    
C27   C28   A    
C4    O3    A    
C9    C10   A    
O8    Zn2   S    
