data_mof_unit_63725.cif
_audit_creation_date              2012-12-10T21:00:59-0500
_audit_creation_method            fapswitch 2.2
_symmetry_space_group_name_H-M    P1
_symmetry_Int_Tables_number       1
_space_group_crystal_system       triclinic
_cell_length_a                    15.855012
_cell_length_b                    15.091044
_cell_length_c                    10.523735
_cell_angle_alpha                 89.62869
_cell_angle_beta                  89.996117
_cell_angle_gamma                 89.999925
_cell_volume                      2517.94734018

loop_
_atom_site_label
_atom_site_type_symbol
_atom_type_description
_atom_site_fract_x
_atom_site_fract_y
_atom_site_fract_z
_atom_type_partial_charge
C1    C     C_R   0.338921 0.500000 0.500057 0.880468
C2    C     C_R   0.661079 0.500000 0.499943 0.880467
C3    C     C_1   0.824218 0.500000 0.499942 0.234514
C4    C     C_1   0.175782 0.500000 0.500058 0.234514
C5    C     C_R   0.956249 0.580066 0.514214 0.518334
C6    C     C_R   0.043750 0.419934 0.485785 0.518334
C7    C     C_R   0.043744 0.580065 0.514251 0.518349
C8    C     C_R   0.956256 0.419935 0.485749 0.518349
C9    C     C_R   0.913059 0.500000 0.499963 -0.369807
C10   C     C_R   0.086941 0.499999 0.500037 -0.369807
C11   C     C_R   0.499973 0.500334 0.256676 0.869510
C12   C     C_R   0.500027 0.499666 0.743324 0.869510
C13   C     C_1   0.250584 0.500000 0.500065 -0.138702
C14   C     C_1   0.749416 0.500000 0.499935 -0.138702
C15   C     C_R   0.471194 0.953634 0.393870 -0.140038
C16   C     C_R   0.528806 0.046366 0.606130 -0.140038
C17   C     C_R   0.528807 0.952672 0.606129 -0.137181
C18   C     C_R   0.471193 0.047328 0.393871 -0.137181
C19   C     C_R   0.500001 0.905034 0.499999 0.072040
C20   C     C_R   0.499999 0.094966 0.500001 0.072040
C21   C     C_3   0.499978 0.584645 0.039205 -0.128520
C22   C     C_3   0.500021 0.415355 0.960795 -0.128520
C23   C     C_3   0.569424 0.541785 0.957273 -0.170069
C24   C     C_3   0.430576 0.458215 0.042726 -0.170068
C25   C     C_3   0.430569 0.541752 0.957260 -0.169642
C26   C     C_3   0.569431 0.458248 0.042739 -0.169642
C27   C     C_3   0.500015 0.498996 0.878033 0.011044
C28   C     C_3   0.499985 0.501004 0.121967 0.011044
C29   C     C_1   0.500000 0.807134 0.499999 0.077962
C30   C     C_1   0.499999 0.192866 0.500001 0.077962
H1    H     H_    0.448604 0.082626 0.310646 0.143417
H2    H     H_    0.551396 0.917374 0.689354 0.143417
H3    H     H_    0.551393 0.080908 0.689357 0.142178
H4    H     H_    0.448607 0.919091 0.310643 0.142178
H5    H     H_    0.374124 0.575556 0.917594 0.154723
H6    H     H_    0.625876 0.424444 0.082405 0.154723
H7    H     H_    0.499958 0.653632 0.075219 0.156977
H8    H     H_    0.500042 0.346368 0.924781 0.156977
H9    H     H_    0.625864 0.575614 0.917615 0.154277
H10   H     H_    0.374136 0.424386 0.082385 0.154277
N1    N     N_1   0.500000 0.270550 0.500000 -0.081287
N2    N     N_1   0.500000 0.729450 0.500000 -0.081287
O1    O     O_R   0.378020 0.573650 0.500040 -0.598678
O2    O     O_R   0.621980 0.426350 0.499960 -0.598677
O3    O     O_R   0.621980 0.573650 0.499960 -0.598682
O4    O     O_R   0.378020 0.426350 0.500040 -0.598682
O5    O     O_R   0.499980 0.573650 0.313960 -0.622529
O6    O     O_R   0.500020 0.426350 0.686040 -0.622529
O7    O     O_R   0.500020 0.573650 0.686040 -0.615892
O8    O     O_R   0.499980 0.426350 0.313960 -0.615892
Zn1   Zn    Zn3+2 0.500000 0.598370 0.500000 1.003399
Zn2   Zn    Zn3+2 0.500000 0.401630 0.500000 1.003399
F1    F     F_    0.086280 0.657552 0.528014 -0.583024
F2    F     F_    0.913719 0.342448 0.471986 -0.583024
F3    F     F_    0.913706 0.657553 0.527947 -0.583142
F4    F     F_    0.086293 0.342447 0.472053 -0.583142

loop_
_geom_bond_atom_site_label_1
_geom_bond_atom_site_label_2
_ccdc_geom_bond_type
C6    C10   A    
C7    C10   A    
O8    Zn2   S    
C30   N1    T    
C5    C9    A    
C3    C9    S    
C23   C27   S    
C16   H3    S    
C15   C18   A    
N1    Zn2   S    
C26   C28   S    
C12   O6    A    
N2    Zn1   S    
C16   C20   A    
O2    Zn2   S    
C12   O7    A    
C2    C14   S    
C21   H7    S    
C11   O8    A    
C20   C30   S    
C6    F4    S    
C15   C19   A    
O1    Zn1   S    
C3    C14   T    
C21   C25   S    
C11   C28   S    
C25   H5    S    
C23   H9    S    
C26   H6    S    
C17   C19   A    
C21   C28   S    
C5    F3    S    
C18   C20   A    
C22   C27   S    
C21   C23   S    
C2    O3    A    
C29   N2    T    
C22   C24   S    
C1    O4    A    
C25   C27   S    
C7    F1    S    
C12   C27   S    
C4    C10   S    
C22   H8    S    
O4    Zn2   S    
O6    Zn2   S    
C1    C13   S    
C24   C25   S    
C22   C26   S    
C23   C26   S    
C8    F2    S    
C4    C13   T    
C5    C7    A    
C17   H2    S    
O3    Zn1   S    
C8    C9    A    
C6    C8    A    
C18   H1    S    
C15   H4    S    
C24   H10   S    
C11   O5    A    
C1    O1    A    
O5    Zn1   S    
C24   C28   S    
C2    O2    A    
C16   C17   A    
O7    Zn1   S    
C19   C29   S    
