data_mof_unit_22064.cif
_audit_creation_date              2012-12-10T16:37:22-0500
_audit_creation_method            fapswitch 2.2
_symmetry_space_group_name_H-M    P1
_symmetry_Int_Tables_number       1
_space_group_crystal_system       triclinic
_cell_length_a                    16.991071
_cell_length_b                    16.785222
_cell_length_c                    16.754373
_cell_angle_alpha                 65.197563
_cell_angle_beta                  65.775966
_cell_angle_gamma                 65.425772
_cell_volume                      3780.27934774

loop_
_atom_site_label
_atom_site_type_symbol
_atom_type_description
_atom_site_fract_x
_atom_site_fract_y
_atom_site_fract_z
_atom_type_partial_charge
C1    C     C_R   0.400754 0.105691 0.629598 0.471882
C2    C     C_R   0.414051 0.678719 0.022015 0.475297
C3    C     C_1   0.382576 0.761513 0.125735 0.305546
C4    C     C_1   0.877828 0.623781 0.233387 0.241440
C5    C     C_1   0.117133 0.375203 0.766921 0.297560
C6    C     C_R   0.979422 0.587232 0.320372 0.485519
C7    C     C_R   0.011824 0.415451 0.683378 0.475805
C8    C     C_R   0.959521 0.179860 0.438863 0.906116
C9    C     C_R   0.038896 0.820081 0.561821 0.908828
C10   C     C_R   0.179339 0.437435 0.963302 0.896382
C11   C     C_R   0.820603 0.562604 0.036740 0.892753
C12   C     C_R   0.438240 0.961208 0.179690 0.890753
C13   C     C_R   0.561606 0.039062 0.820341 0.897857
C14   C     C_R   0.562171 0.820288 0.038180 0.885309
C15   C     C_R   0.595524 0.936029 0.346156 0.467772
C16   C     C_R   0.437561 0.179682 0.962366 0.898332
C17   C     C_R   0.039347 0.561309 0.820374 0.893195
C18   C     C_R   0.960538 0.438576 0.179643 0.900567
C19   C     C_R   0.822020 0.027406 0.566373 0.907861
C20   C     C_R   0.175882 0.980556 0.430115 0.916977
C21   C     C_R   0.446519 0.108125 0.683160 -0.134981
C22   C     C_R   0.550925 0.912926 0.308017 -0.150462
C23   C     C_R   0.060139 0.709078 0.445387 -0.168770
C24   C     C_R   0.929703 0.293208 0.557459 -0.126611
C25   C     C_R   0.711366 0.447079 0.054253 -0.156127
C26   C     C_R   0.015260 0.680743 0.413095 0.467857
C27   C     C_R   0.288970 0.553578 0.944122 -0.123758
C28   C     C_R   0.265003 0.049215 0.499484 -0.158443
C29   C     C_R   0.724933 0.989665 0.475411 -0.175146
C30   C     C_R   0.552494 0.294234 0.932524 -0.155317
C31   C     C_R   0.447203 0.705670 0.066780 -0.064986
C32   C     C_R   0.934749 0.555865 0.291096 -0.162532
C33   C     C_R   0.060212 0.444595 0.709786 -0.059315
C34   C     C_R   0.541065 0.016655 0.547867 -0.156993
C35   C     C_R   0.452549 0.987103 0.456224 -0.152842
C36   C     C_R   0.023189 0.541170 0.541710 -0.120587
C37   C     C_R   0.971738 0.322832 0.591891 0.400691
C38   C     C_R   0.965449 0.461905 0.462365 -0.123352
C39   C     C_R   0.541818 0.540618 0.025019 -0.121112
C40   C     C_R   0.459539 0.460832 0.971342 -0.123549
C41   C     C_R   0.591603 0.971348 0.479202 0.034586
C42   C     C_R   0.401406 0.025435 0.530795 0.033553
C43   C     C_R   0.004553 0.455395 0.592166 -0.057894
C44   C     C_R   0.983143 0.548233 0.412461 0.031938
C45   C     C_R   0.454326 0.588828 0.012181 -0.059728
C46   C     C_R   0.547650 0.413127 0.982937 0.026501
C47   C     C_R   0.547872 0.962875 0.427849 0.029185
C48   C     C_R   0.681553 0.416596 0.008781 0.467257
C49   C     C_R   0.446080 0.046959 0.572250 0.044829
C50   C     C_R   0.411263 0.546720 0.989489 0.016787
C51   C     C_R   0.590379 0.455055 0.006279 0.032343
C52   C     C_R   0.979261 0.413593 0.550740 0.017936
C53   C     C_R   0.007955 0.590007 0.454118 0.039812
C54   C     C_R   0.540415 0.064487 0.668430 0.016660
C55   C     C_R   0.456105 0.941499 0.331662 0.010849
C56   C     C_R   0.059735 0.671157 0.538059 0.009375
C57   C     C_R   0.932947 0.330264 0.464008 0.028815
C58   C     C_R   0.673482 0.538784 0.056002 0.009824
C59   C     C_R   0.319804 0.585022 0.987843 0.383341
C60   C     C_R   0.326649 0.461620 0.943198 0.019129
C61   C     C_R   0.312789 0.001562 0.433735 -0.006596
C62   C     C_R   0.680981 0.021473 0.553557 -0.003237
C63   C     C_R   0.460038 0.330067 0.938365 0.000761
C64   C     C_R   0.539673 0.670016 0.061658 -0.045862
C65   C     C_R   0.934799 0.463481 0.329435 0.002024
C66   C     C_R   0.060615 0.537035 0.671706 -0.041321
C67   C     C_R   0.591698 0.061027 0.720300 -0.103494
C68   C     C_R   0.406796 0.941970 0.279402 -0.104212
C69   C     C_R   0.064307 0.719586 0.588842 -0.102674
C70   C     C_R   0.306799 0.042904 0.559274 0.478266
C71   C     C_R   0.932264 0.280604 0.412014 -0.101966
C72   C     C_R   0.721580 0.589823 0.060163 -0.103979
C73   C     C_R   0.278244 0.410187 0.940108 -0.108814
C74   C     C_R   0.269568 0.978065 0.392905 -0.096334
C75   C     C_R   0.725968 0.039554 0.597652 -0.093138
C76   C     C_R   0.409185 0.280131 0.937669 -0.094008
C77   C     C_R   0.590255 0.719740 0.063300 -0.103753
C78   C     C_R   0.933306 0.411945 0.280026 -0.100031
C79   C     C_R   0.065161 0.587796 0.720152 -0.104397
C80   C     C_R   0.680649 0.058717 0.679756 -0.284510
C81   C     C_R   0.685635 0.939575 0.462878 0.467525
C82   C     C_R   0.317306 0.947364 0.317633 -0.281502
C83   C     C_R   0.073842 0.674780 0.675654 -0.279965
C84   C     C_R   0.925159 0.324711 0.324207 -0.289343
C85   C     C_R   0.677477 0.676643 0.068779 -0.264855
C86   C     C_R   0.321904 0.323002 0.932693 -0.272537
C87   C     C_R   0.587461 0.032670 0.591207 0.030160
C88   C     C_R   0.407486 0.975162 0.408302 0.039539
C89   C     C_R   0.047849 0.583126 0.583758 0.034621
C90   C     C_R   0.944166 0.418633 0.418782 0.032536
C91   C     C_R   0.585099 0.583210 0.047277 0.034019
C92   C     C_R   0.587635 0.322897 0.974667 0.470838
C93   C     C_R   0.415314 0.417438 0.951282 0.027280
C94   C     C_1   0.402163 0.170699 0.737913 0.184584
C95   C     C_1   0.603363 0.848413 0.255466 0.211734
C96   C     C_1   0.118948 0.764220 0.378144 0.246046
C97   C     C_1   0.873766 0.234393 0.622340 0.202856
C98   C     C_1   0.763833 0.377504 0.115804 0.238756
C99   C     C_1   0.235969 0.622472 0.882790 0.203528
C100  C     C_1   0.189376 0.129667 0.483995 0.240296
C101  C     C_1   0.767115 0.047442 0.388994 0.280832
C102  C     C_1   0.615566 0.240572 0.871009 0.223709
H1    H     H_    0.717163 0.063958 0.716535 0.208701
H2    H     H_    0.014413 0.197444 0.669061 0.340273
H3    H     H_    0.805656 0.347831 0.957982 0.352221
H4    H     H_    0.196716 0.657246 0.036407 0.344604
H5    H     H_    0.193046 0.053625 0.657113 0.338971
H6    H     H_    0.800976 0.849341 0.431734 0.351230
H7    H     H_    0.663575 0.197218 0.016156 0.338003
H8    H     H_    0.366065 0.735574 0.918266 0.339296
H9    H     H_    0.029238 0.656293 0.193772 0.335376
H10   H     H_    0.903708 0.377356 0.738327 0.347467
H11   H     H_    0.282563 0.936081 0.283315 0.207103
H12   H     H_    0.076511 0.712348 0.713273 0.197493
H13   H     H_    0.924878 0.286467 0.285817 0.200945
H14   H     H_    0.715017 0.715038 0.069443 0.206001
H15   H     H_    0.284046 0.284310 0.933088 0.208089
H16   H     H_    0.288820 0.199156 0.669871 0.352744
H17   H     H_    0.700258 0.937602 0.236652 0.339845
H18   H     H_    0.971759 0.806779 0.337745 0.332675
N1    N     N_1   0.366913 0.221322 0.780941 -0.205111
N2    N     N_1   0.331022 0.806273 0.172818 -0.184227
N3    N     N_1   0.832734 0.678308 0.187002 -0.177433
N4    N     N_1   0.162558 0.319424 0.812519 -0.189662
N5    N     N_1   0.644814 0.796510 0.213886 -0.193096
N6    N     N_1   0.165664 0.808563 0.324462 -0.170399
N7    N     N_1   0.829456 0.186988 0.674156 -0.173444
N8    N     N_1   0.805435 0.321749 0.165172 -0.185809
N9    N     N_1   0.193963 0.677704 0.833587 -0.196962
N10   N     N_1   0.130867 0.195914 0.469875 -0.180346
N11   N     N_1   0.800547 0.093637 0.319791 -0.171208
N12   N     N_1   0.665669 0.197472 0.821960 -0.181981
O1    O     O_R   0.982940 0.138950 0.510160 -0.628320
O2    O     O_R   0.982940 0.510160 0.138950 -0.632150
O3    O     O_R   0.861050 0.017060 0.489840 -0.637992
O4    O     O_R   0.138950 0.982940 0.510160 -0.633546
O5    O     O_R   0.867700 0.025880 0.612340 -0.619380
O6    O     O_R   0.132300 0.974120 0.387660 -0.621934
O7    O     O_R   0.025880 0.612340 0.867700 -0.614255
O8    O     O_R   0.974120 0.387660 0.132300 -0.615275
O9    O     O_R   0.612340 0.867700 0.025880 -0.614192
O10   O     O_R   0.387660 0.132300 0.974120 -0.612754
O11   O     O_R   0.387660 0.974120 0.132300 -0.615332
O12   O     O_R   0.017060 0.861050 0.489840 -0.634839
O13   O     O_R   0.612340 0.025880 0.867700 -0.617243
O14   O     O_R   0.132300 0.387660 0.974120 -0.616328
O15   O     O_R   0.867700 0.612340 0.025880 -0.616521
O16   O     O_R   0.974120 0.132300 0.387660 -0.620849
O17   O     O_R   0.025880 0.867700 0.612340 -0.617536
O18   O     O_3   0.318316 0.169481 0.620682 -0.713775
O19   O     O_3   0.682613 0.941614 0.299342 -0.715159
O20   O     O_3   0.967800 0.744898 0.351113 -0.706384
O21   O     O_3   0.015593 0.260035 0.657302 -0.705844
O22   O     O_3   0.744140 0.360360 0.955431 -0.703323
O23   O     O_R   0.138950 0.510160 0.982940 -0.628119
O24   O     O_3   0.258683 0.645240 0.037407 -0.703111
O25   O     O_3   0.256547 0.048532 0.646887 -0.709257
O26   O     O_3   0.737116 0.860896 0.436925 -0.694581
O27   O     O_3   0.651158 0.258985 0.019823 -0.704997
O28   O     O_3   0.353408 0.747584 0.976136 -0.698587
O29   O     O_3   0.031262 0.644494 0.256199 -0.696111
O30   O     O_3   0.960412 0.360719 0.753245 -0.701609
O31   O     O_R   0.861050 0.489840 0.017060 -0.626391
O32   O     O_R   0.510160 0.982940 0.138950 -0.622505
O33   O     O_R   0.489840 0.017060 0.861050 -0.609087
O34   O     O_R   0.489840 0.861050 0.017060 -0.619582
O35   O     O_R   0.510160 0.138950 0.982940 -0.630011
O36   O     O_R   0.017060 0.489840 0.861050 -0.621987
Zn1   Zn    Zn3+2 0.004880 0.004880 0.583590 0.982398
Zn2   Zn    Zn3+2 0.995120 0.995120 0.416410 0.989344
Zn3   Zn    Zn3+2 0.004880 0.583590 0.004880 0.986761
Zn4   Zn    Zn3+2 0.995120 0.416410 0.995120 1.018155
Zn5   Zn    Zn3+2 0.583590 0.004880 0.004880 0.988506
Zn6   Zn    Zn3+2 0.416410 0.995120 0.995120 1.034445

loop_
_geom_bond_atom_site_label_1
_geom_bond_atom_site_label_2
_ccdc_geom_bond_type
C36   C89   A    
C39   C51   A    
C1    C21   A    
O14   Zn4   S    
O6    Zn2   S    
C64   C77   A    
C6    C32   A    
H9    O29   S    
C13   O13   A    
C40   C93   A    
C97   N7    T    
C35   C47   A    
C15   O19   S    
C72   C85   A    
C23   C56   A    
O10   Zn6   S    
C17   C79   S    
C40   C46   A    
C66   C79   A    
C12   C68   S    
C5    N4    T    
C9    O17   A    
C92   O27   S    
O17   Zn1   S    
C50   C59   A    
C102  N12   T    
C27   C60   A    
C13   C67   S    
C54   C87   A    
C10   C73   S    
C100  N10   T    
C43   C52   A    
O3    Zn2   S    
H6    O26   S    
C21   C94   S    
C16   O35   A    
C19   O3    A    
O12   Zn2   S    
C60   C73   A    
C42   C70   A    
C23   C96   S    
C22   C95   S    
C14   C77   S    
C20   O6    A    
C55   C88   A    
H16   O18   S    
C35   C42   A    
O1    Zn1   S    
C36   C53   A    
C44   C53   A    
C15   C22   A    
C24   C57   A    
C8    C71   S    
C5    C33   S    
O16   Zn2   S    
O7    Zn3   S    
C65   C78   A    
C7    C43   A    
H2    O21   S    
C14   O34   A    
C58   C91   A    
O5    Zn1   S    
C3    N2    T    
C19   O5    A    
C39   C45   A    
C60   C93   A    
C28   C100  S    
C98   N8    T    
H3    O22   S    
C14   O9    A    
C77   C85   A    
O8    Zn4   S    
C6    C44   A    
C30   C63   A    
O9    Zn5   S    
C7    C33   A    
C83   H12   S    
C8    O16   A    
C34   C41   A    
C74   C82   A    
C39   C91   A    
H5    O25   S    
C9    O12   A    
O15   Zn3   S    
C33   C66   A    
C55   C68   A    
C66   C89   A    
C48   C51   A    
C2    C45   A    
H17   O19   S    
C65   C90   A    
C7    O30   S    
O34   Zn6   S    
H18   O20   S    
C57   C90   A    
C99   N9    T    
C80   H1    S    
C29   C101  S    
C24   C97   S    
C37   O21   S    
O32   Zn5   S    
C30   C92   A    
C37   C52   A    
C11   C72   S    
C54   C67   A    
O33   Zn6   S    
C46   C51   A    
C11   O15   A    
C20   O4    A    
C4    N3    T    
C2    C31   A    
C23   C26   A    
C16   O10   A    
C38   C44   A    
C69   C83   A    
C61   C88   A    
O23   Zn3   S    
C12   O32   A    
C35   C88   A    
C95   N5    T    
C13   O33   A    
C46   C92   A    
C6    O29   S    
C18   C78   S    
C41   C81   A    
C30   C102  S    
C11   O31   A    
C24   C37   A    
C41   C47   A    
C20   C74   S    
C1    O18   S    
C17   O7    A    
C57   C71   A    
C18   O8    A    
O31   Zn4   S    
C25   C48   A    
C4    C32   S    
C10   O14   A    
C101  N11   T    
C56   C89   A    
O13   Zn5   S    
C29   C81   A    
C84   H13   S    
H4    O24   S    
O2    Zn3   S    
C62   C75   A    
C25   C58   A    
H7    O27   S    
C26   C53   A    
C76   C86   A    
H8    O28   S    
C71   C84   A    
C75   C80   A    
C48   O22   S    
C29   C62   A    
C34   C49   A    
C81   O26   S    
C8    O1    A    
C16   C76   S    
C31   C64   A    
C85   H14   S    
C28   C70   A    
C67   C80   A    
C82   H11   S    
C9    C69   S    
C36   C43   A    
C17   O36   A    
C10   O23   A    
C59   O24   S    
C22   C55   A    
C61   C74   A    
H10   O30   S    
C62   C87   A    
C38   C90   A    
C64   C91   A    
C12   O11   A    
O35   Zn5   S    
C70   O25   S    
C68   C82   A    
C26   O20   S    
C27   C59   A    
C28   C61   A    
C3    C31   S    
C79   C83   A    
C58   C72   A    
C21   C54   A    
C45   C50   A    
C40   C50   A    
C19   C75   S    
C18   O2    A    
C86   H15   S    
C34   C87   A    
C27   C99   S    
C73   C86   A    
C42   C49   A    
C94   N1    T    
C78   C84   A    
C25   C98   S    
O36   Zn4   S    
C38   C52   A    
O4    Zn1   S    
C2    O28   S    
C56   C69   A    
C63   C76   A    
C15   C47   A    
O11   Zn6   S    
C63   C93   A    
C1    C49   A    
C96   N6    T    
C32   C65   A    
