data_mof_unit_57681.cif
_audit_creation_date              2012-12-11T15:39:23-0500
_audit_creation_method            fapswitch 2.2
_symmetry_space_group_name_H-M    P1
_symmetry_Int_Tables_number       1
_space_group_crystal_system       triclinic
_cell_length_a                    17.256172
_cell_length_b                    24.219827
_cell_length_c                    14.877893
_cell_angle_alpha                 89.874584
_cell_angle_beta                  125.446741
_cell_angle_gamma                 90.141912
_cell_volume                      5065.57926087

loop_
_atom_site_label
_atom_site_type_symbol
_atom_type_description
_atom_site_fract_x
_atom_site_fract_y
_atom_site_fract_z
_atom_type_partial_charge
C1    C     C_R   0.309330 0.375794 0.908039 -0.132459
C2    C     C_R   0.647030 0.347325 0.091267 -0.145253
C3    C     C_R   0.809330 0.875794 0.908039 -0.132455
C4    C     C_R   0.147030 0.847325 0.091267 -0.145254
C5    C     C_R   0.311693 0.639028 0.997560 0.064149
C6    C     C_R   0.620222 0.684072 0.001136 0.074773
C7    C     C_R   0.811693 0.139028 0.997560 0.064149
C8    C     C_R   0.120222 0.184072 0.001136 0.074773
C9    C     C_R   0.566997 0.500106 0.368911 0.049975
C10   C     C_R   0.551837 0.500069 0.726266 0.040311
C11   C     C_R   0.066997 0.000106 0.368911 0.049975
C12   C     C_R   0.051837 0.000069 0.726266 0.040311
C13   C     C_R   0.197706 0.500750 0.631477 0.084084
C14   C     C_R   0.826065 0.501033 0.276799 0.073101
C15   C     C_R   0.697706 0.000750 0.631477 0.084084
C16   C     C_R   0.326065 0.001033 0.276799 0.073100
C17   C     C_R   0.072941 0.552480 0.465315 0.162882
C18   C     C_R   0.978939 0.552780 0.375699 0.167645
C19   C     C_R   0.572941 0.052480 0.465315 0.162881
C20   C     C_R   0.478939 0.052780 0.375699 0.167645
C21   C     C_R   0.118903 0.502496 0.514619 0.030720
C22   C     C_R   0.928949 0.502993 0.332496 0.032285
C23   C     C_R   0.618903 0.002496 0.514619 0.030719
C24   C     C_R   0.428949 0.002993 0.332496 0.032285
C25   C     C_R   0.077239 0.453593 0.453953 -0.199092
C26   C     C_R   0.982070 0.453912 0.362232 -0.196558
C27   C     C_R   0.577239 0.953593 0.453953 -0.199091
C28   C     C_R   0.482071 0.953912 0.362232 -0.196559
C29   C     C_3   0.958309 0.603422 0.416274 -0.523183
C30   C     C_3   0.061127 0.603178 0.513621 -0.524319
C31   C     C_3   0.458309 0.103422 0.416274 -0.523183
C32   C     C_3   0.561128 0.103178 0.513621 -0.524318
C33   C     C_R   0.162494 0.692312 0.894265 -0.164309
C34   C     C_R   0.719971 0.764944 0.103967 -0.170154
C35   C     C_R   0.662494 0.192311 0.894266 -0.164309
C36   C     C_R   0.219974 0.264943 0.103969 -0.170154
C37   C     C_R   0.611740 0.235658 0.895384 -0.227873
C38   C     C_R   0.263737 0.312553 0.103992 -0.222079
C39   C     C_R   0.111740 0.735658 0.895383 -0.227871
C40   C     C_R   0.763734 0.812554 0.103990 -0.222080
C41   C     C_R   0.632811 0.255412 0.995852 0.092126
C42   C     C_R   0.235474 0.337018 0.003707 0.097744
C43   C     C_R   0.132810 0.755412 0.995851 0.092125
C44   C     C_R   0.735472 0.837018 0.003704 0.097743
C45   C     C_R   0.401498 0.625577 0.091082 -0.131049
C46   C     C_R   0.558075 0.652327 0.909071 -0.144026
C47   C     C_R   0.901498 0.125577 0.091083 -0.131048
C48   C     C_R   0.058075 0.152327 0.909071 -0.144026
C49   C     C_R   0.688533 0.222129 0.091442 0.326220
C50   C     C_R   0.146120 0.322321 0.906789 0.317609
C51   C     C_R   0.188532 0.722128 0.091441 0.326217
C52   C     C_R   0.646119 0.822320 0.906786 0.317616
C53   C     C_R   0.243558 0.680154 0.090653 -0.218389
C54   C     C_R   0.603709 0.773095 0.906792 -0.220532
C55   C     C_R   0.743559 0.180154 0.090653 -0.218386
C56   C     C_R   0.103709 0.273096 0.906794 -0.220536
C57   C     C_R   0.236446 0.668810 0.993865 0.093388
C58   C     C_R   0.645927 0.741889 0.003897 0.092899
C59   C     C_R   0.736446 0.168810 0.993865 0.093386
C60   C     C_R   0.145929 0.241889 0.003898 0.092901
C61   C     C_R   0.608220 0.550116 0.629041 -0.166811
C62   C     C_R   0.610063 0.550147 0.537275 -0.172104
C63   C     C_R   0.108220 0.050116 0.629041 -0.166811
C64   C     C_R   0.110064 0.050146 0.537275 -0.172103
C65   C     C_R   0.600984 0.500147 0.484592 0.141843
C66   C     C_R   0.596216 0.500133 0.667288 0.143407
C67   C     C_R   0.100984 0.000147 0.484592 0.141842
C68   C     C_R   0.096216 0.000133 0.667288 0.143407
C69   C     C_R   0.610099 0.450162 0.537647 -0.171390
C70   C     C_R   0.608278 0.450182 0.629420 -0.167702
C71   C     C_R   0.110099 0.950162 0.537646 -0.171390
C72   C     C_R   0.108278 0.950182 0.629420 -0.167702
C73   C     C_R   0.550665 0.454306 0.304905 -0.142320
C74   C     C_R   0.520434 0.453838 0.752082 -0.126162
C75   C     C_R   0.050665 0.954306 0.304905 -0.142320
C76   C     C_R   0.020434 0.953838 0.752082 -0.126162
C77   C     C_R   0.246946 0.546043 0.695542 -0.159318
C78   C     C_R   0.767689 0.546554 0.246800 -0.145243
C79   C     C_R   0.746946 0.046043 0.695542 -0.159319
C80   C     C_R   0.267689 0.046554 0.246800 -0.145243
C81   C     C_R   0.549752 0.545855 0.304217 -0.138820
C82   C     C_R   0.520244 0.546205 0.751688 -0.125089
C83   C     C_R   0.049753 0.045855 0.304217 -0.138820
C84   C     C_R   0.020244 0.046205 0.751688 -0.125089
C85   C     C_R   0.244511 0.454560 0.695251 -0.135408
C86   C     C_R   0.769624 0.454321 0.251276 -0.122429
C87   C     C_R   0.744511 0.954560 0.695251 -0.135408
C88   C     C_R   0.269624 0.954321 0.251276 -0.122429
C89   C     C_R   0.310201 0.625005 0.906352 -0.127529
C90   C     C_R   0.648662 0.651971 0.092002 -0.146539
C91   C     C_R   0.810201 0.125005 0.906352 -0.127529
C92   C     C_R   0.148662 0.151971 0.092002 -0.146539
C93   C     C_R   0.400391 0.378069 0.092106 -0.127284
C94   C     C_R   0.552540 0.346917 0.908733 -0.144251
C95   C     C_R   0.900391 0.878069 0.092105 -0.127286
C96   C     C_R   0.052539 0.846917 0.908733 -0.144250
C97   C     C_R   0.309443 0.365321 0.000313 0.057994
C98   C     C_R   0.612182 0.313979 0.999761 0.069726
C99   C     C_R   0.809442 0.865321 0.000312 0.057996
C100  C     C_R   0.112181 0.813979 0.999760 0.069724
H1    H     H_    0.253127 0.368526 0.822591 0.120552
H2    H     H_    0.689679 0.335255 0.176741 0.114700
H3    H     H_    0.753128 0.868527 0.822591 0.120552
H4    H     H_    0.189680 0.835255 0.176741 0.114699
H5    H     H_    0.939683 0.639533 0.360981 0.191313
H6    H     H_    0.070094 0.595439 0.592893 0.201546
H7    H     H_    0.439683 0.139533 0.360981 0.191313
H8    H     H_    0.570094 0.095439 0.592893 0.201546
H9    H     H_    0.909705 0.595676 0.441255 0.201176
H10   H     H_    0.101793 0.638936 0.513905 0.189948
H11   H     H_    0.409704 0.095676 0.441255 0.201175
H12   H     H_    0.601793 0.138936 0.513905 0.189948
H13   H     H_    0.149920 0.682162 0.816194 0.115020
H14   H     H_    0.751245 0.743927 0.181863 0.114014
H15   H     H_    0.649919 0.182161 0.816194 0.115021
H16   H     H_    0.251249 0.243925 0.181864 0.114013
H17   H     H_    0.293781 0.657957 0.166175 0.128477
H18   H     H_    0.540045 0.758692 0.830461 0.125388
H19   H     H_    0.793782 0.157957 0.166176 0.128477
H20   H     H_    0.040044 0.258694 0.830463 0.125389
H21   H     H_    0.605958 0.589485 0.661483 0.108757
H22   H     H_    0.609123 0.589562 0.502521 0.106758
H23   H     H_    0.105959 0.089485 0.661483 0.108757
H24   H     H_    0.109124 0.089562 0.502522 0.106757
H25   H     H_    0.609114 0.410741 0.503160 0.106762
H26   H     H_    0.606034 0.410802 0.662136 0.108064
H27   H     H_    0.109113 0.910741 0.503159 0.106762
H28   H     H_    0.106034 0.910802 0.662135 0.108064
H29   H     H_    0.427906 0.631429 0.176284 0.095436
H30   H     H_    0.512370 0.666561 0.824715 0.085960
H31   H     H_    0.927906 0.131429 0.176284 0.095436
H32   H     H_    0.012371 0.166561 0.824715 0.085960
H33   H     H_    0.569807 0.412116 0.332831 0.085985
H34   H     H_    0.531125 0.410957 0.742765 0.093594
H35   H     H_    0.069807 0.912116 0.332830 0.085985
H36   H     H_    0.031125 0.910957 0.742764 0.093594
H37   H     H_    0.241770 0.587811 0.667058 0.101668
H38   H     H_    0.786085 0.589245 0.249661 0.110455
H39   H     H_    0.741770 0.087811 0.667058 0.101669
H40   H     H_    0.286085 0.089245 0.249661 0.110455
H41   H     H_    0.567748 0.588218 0.331239 0.084706
H42   H     H_    0.530529 0.589056 0.741458 0.093664
H43   H     H_    0.067748 0.088218 0.331239 0.084706
H44   H     H_    0.030529 0.089056 0.741458 0.093664
H45   H     H_    0.252593 0.629169 0.820324 0.091372
H46   H     H_    0.684500 0.665803 0.176217 0.085178
H47   H     H_    0.752593 0.129169 0.820324 0.091372
H48   H     H_    0.184500 0.165803 0.176217 0.085178
H49   H     H_    0.427277 0.375129 0.177746 0.095249
H50   H     H_    0.502671 0.333421 0.824552 0.086406
H51   H     H_    0.927276 0.875128 0.177745 0.095249
H52   H     H_    0.002670 0.833422 0.824552 0.086405
H53   H     H_    0.112897 0.414247 0.484112 0.125477
H54   H     H_    0.948053 0.414815 0.325096 0.128126
H55   H     H_    0.612897 0.914247 0.484112 0.125477
H56   H     H_    0.448053 0.914815 0.325096 0.128126
N1    N     N_R   0.394180 0.396910 0.943210 -0.041797
N2    N     N_R   0.605820 0.396910 0.056790 -0.039776
N3    N     N_R   0.894180 0.896910 0.943210 -0.041798
N4    N     N_R   0.105820 0.896910 0.056790 -0.039776
N5    N     N_R   0.450950 0.603070 0.056740 -0.039740
N6    N     N_R   0.549050 0.603070 0.943260 -0.037380
N7    N     N_R   0.950950 0.103070 0.056740 -0.039740
N8    N     N_R   0.049050 0.103070 0.943260 -0.037380
N9    N     N_R   0.525650 0.471570 0.206150 -0.037373
N10   N     N_R   0.474350 0.471570 0.793850 -0.039931
N11   N     N_R   0.025650 0.971570 0.206150 -0.037373
N12   N     N_R   0.974350 0.971570 0.793850 -0.039931
N13   N     N_R   0.319480 0.528420 0.793810 -0.037905
N14   N     N_R   0.680520 0.528420 0.206190 -0.040285
N15   N     N_R   0.819480 0.028420 0.793810 -0.037905
N16   N     N_R   0.180520 0.028420 0.206190 -0.040286
N17   N     N_R   0.525640 0.528390 0.206120 -0.036762
N18   N     N_R   0.474360 0.528390 0.793880 -0.039746
N19   N     N_R   0.025640 0.028390 0.206120 -0.036762
N20   N     N_R   0.974360 0.028390 0.793880 -0.039746
N21   N     N_R   0.319490 0.471590 0.793840 -0.039077
N22   N     N_R   0.680510 0.471590 0.206160 -0.040666
N23   N     N_R   0.819490 0.971590 0.793840 -0.039077
N24   N     N_R   0.180510 0.971590 0.206160 -0.040666
N25   N     N_R   0.394130 0.603080 0.943110 -0.040126
N26   N     N_R   0.605870 0.603080 0.056890 -0.037727
N27   N     N_R   0.894130 0.103080 0.943110 -0.040126
N28   N     N_R   0.105870 0.103080 0.056890 -0.037727
N29   N     N_R   0.450990 0.396900 0.056840 -0.040070
N30   N     N_R   0.549010 0.396900 0.943160 -0.037506
N31   N     N_R   0.950990 0.896900 0.056840 -0.040070
N32   N     N_R   0.049010 0.896900 0.943160 -0.037506
Ni1   Ni    Ni4+2 0.434860 0.434850 0.869700 0.208946
Ni2   Ni    Ni4+2 0.565140 0.434850 0.130300 0.210594
Ni3   Ni    Ni4+2 0.934860 0.934850 0.869700 0.208945
Ni4   Ni    Ni4+2 0.065140 0.934850 0.130300 0.210594
Ni5   Ni    Ni4+2 0.565130 0.565140 0.130240 0.210405
Ni6   Ni    Ni4+2 0.434870 0.565140 0.869760 0.209901
Ni7   Ni    Ni4+2 0.065130 0.065140 0.130240 0.210405
Ni8   Ni    Ni4+2 0.934870 0.065140 0.869760 0.209901
H57   H     H_    0.564163 0.256956 0.818169 0.123576
H58   H     H_    0.326508 0.325484 0.182246 0.123471
H59   H     H_    0.064164 0.756957 0.818168 0.123575
H60   H     H_    0.826504 0.825486 0.182244 0.123471
C101  C     C_3   0.690143 0.228715 0.192999 -1.084530
H61   H     H_    0.757216 0.249151 0.259270 0.249959
H62   H     H_    0.627345 0.252089 0.174922 0.256900
H63   H     H_    0.686409 0.187479 0.223165 0.262782
C102  C     C_3   0.093814 0.357407 0.804275 -1.067487
H64   H     H_    0.124831 0.399464 0.820126 0.261662
H65   H     H_    0.094044 0.337055 0.737636 0.248110
H66   H     H_    0.018848 0.362645 0.775785 0.262247
C103  C     C_3   0.190138 0.728714 0.192997 -1.084518
H67   H     H_    0.257213 0.749149 0.259270 0.249955
H68   H     H_    0.127341 0.752091 0.174918 0.256898
H69   H     H_    0.186402 0.687478 0.223160 0.262783
C104  C     C_3   0.593815 0.857404 0.804269 -1.067508
H70   H     H_    0.624824 0.899463 0.820120 0.261666
H71   H     H_    0.594058 0.837053 0.737638 0.248111
H72   H     H_    0.518846 0.862636 0.775767 0.262250
H73   H     H_    0.234253 0.412426 0.666667 0.085630
H74   H     H_    0.791401 0.411680 0.262763 0.092745
H75   H     H_    0.734254 0.912426 0.666667 0.085630
H76   H     H_    0.291401 0.911680 0.262763 0.092745

loop_
_geom_bond_atom_site_label_1
_geom_bond_atom_site_label_2
_ccdc_geom_bond_type
N2    N30   A    
C79   H39   S    
C45   H29   S    
C83   N19   A    
C92   H48   S    
C101  H62   S    
C101  H61   S    
C96   N32   A    
C93   H49   S    
C19   C20   A    
C86   N22   A    
C82   H42   S    
N15   N23   A    
C91   H47   S    
C76   H36   S    
C95   N31   A    
N29   Ni2   S    
C55   H19   S    
C104  H70   S    
C89   H45   S    
N11   Ni4   S    
C12   C68   S    
C33   C39   A    
N12   Ni3   S    
N3    N31   A    
C72   H28   S    
N32   Ni3   S    
C34   C40   A    
C29   H9    S    
C35   C37   A    
C77   H37   S    
C38   C42   A    
C55   C59   A    
N2    Ni2   S    
N22   Ni2   S    
C44   C99   S    
C53   H17   S    
C104  H72   S    
C94   N30   A    
C94   C98   A    
C95   C99   A    
C79   N15   A    
C96   H52   S    
C2    H2    S    
C74   H34   S    
C78   N14   A    
C103  H69   S    
C12   C84   A    
C35   C59   A    
C86   H74   S    
N13   N21   A    
C45   N5    A    
C21   C25   A    
C61   C66   A    
C41   C49   A    
C15   C79   A    
C82   N18   A    
C11   C67   S    
C17   C18   A    
C8    C60   S    
C37   H57   S    
C38   H58   S    
C35   H15   S    
C8    C92   A    
C87   H75   S    
N1    Ni1   S    
C6    C46   A    
C2    N2    A    
C47   N7    A    
C70   H26   S    
C15   C23   S    
C69   H25   S    
C16   C24   S    
C30   H6    S    
C3    N3    A    
C17   C30   S    
C56   H20   S    
C71   H27   S    
C69   C70   A    
C9    C73   A    
C19   C32   S    
C78   H38   S    
C7    C59   S    
C52   C54   A    
C88   N24   A    
C49   C101  S    
C10   C66   S    
C27   H55   S    
C13   C77   A    
N10   N18   A    
N21   Ni1   S    
C63   C64   A    
C25   H53   S    
C64   C67   A    
C90   N26   A    
C43   C100  S    
C14   C86   A    
C74   N10   A    
C103  H67   S    
N24   Ni4   S    
C42   C97   S    
C1    C97   A    
C18   C29   S    
C53   C57   A    
C39   C43   A    
C40   H60   S    
C11   C83   A    
C25   C26   A    
C102  H64   S    
N7    N27   A    
C10   C82   A    
C17   C21   A    
C88   H76   S    
C47   H31   S    
C51   C53   A    
C89   N25   A    
C19   C23   A    
C8    C48   A    
C29   C30   S    
N8    N28   A    
N19   Ni7   S    
N3    Ni3   S    
C75   N11   A    
C51   C103  S    
C31   C32   S    
C85   N21   A    
N7    Ni7   S    
C68   C72   A    
C7    C91   A    
C81   H41   S    
N6    Ni6   S    
N9    Ni2   S    
N5    Ni5   S    
N26   Ni5   S    
N20   Ni8   S    
C34   C58   A    
N25   Ni6   S    
N4    Ni4   S    
N31   Ni4   S    
C42   C50   A    
C73   N9    A    
C87   N23   A    
C73   H33   S    
N18   Ni6   S    
C1    H1    S    
C23   C27   A    
C4    C100  A    
C12   C76   A    
C92   N28   A    
C20   C31   S    
C101  H63   S    
C64   H24   S    
C26   H54   S    
C95   H51   S    
C80   N16   A    
N27   Ni8   S    
C36   H16   S    
C54   H18   S    
C93   C97   A    
C62   H22   S    
C16   C88   A    
C54   C58   A    
C102  H66   S    
C3    H3    S    
N12   N20   A    
C39   H59   S    
C63   C68   A    
C33   C57   A    
C32   H12   S    
C62   C65   A    
C91   N27   A    
C18   C22   A    
C30   H10   S    
C31   H7    S    
C6    C90   A    
C32   H8    S    
C24   C28   A    
C61   H21   S    
N1    N29   A    
N15   Ni8   S    
C36   C60   A    
C49   C55   A    
C4    N4    A    
C44   C52   A    
C46   H30   S    
N14   Ni5   S    
C63   H23   S    
N8    Ni8   S    
C4    H4    S    
C85   H73   S    
N13   Ni6   S    
C48   N8    A    
C34   H14   S    
N28   Ni7   S    
C7    C47   A    
C33   H13   S    
N6    N26   A    
C5    C57   S    
N10   Ni1   S    
C14   C22   S    
N30   Ni1   S    
C1    N1    A    
N16   Ni7   S    
C104  H71   S    
C71   C72   A    
C90   H46   S    
C11   C75   A    
C50   C56   A    
C13   C21   S    
N17   Ni5   S    
C10   C74   A    
N16   N24   A    
C66   C70   A    
C75   H35   S    
C5    C45   A    
C43   C51   A    
C65   C69   A    
C96   C100  A    
C36   C38   A    
C52   C104  S    
C103  H68   S    
C81   N17   A    
C76   N12   A    
C31   H11   S    
C67   C71   A    
C6    C58   S    
C14   C78   A    
C56   C60   A    
C37   C41   A    
C61   C62   A    
C9    C65   S    
C22   C26   A    
C29   H5    S    
C50   C102  S    
C3    C99   A    
C94   H50   S    
C40   C44   A    
N11   N19   A    
N23   Ni3   S    
C2    C98   A    
C77   N13   A    
C46   N6    A    
C15   C87   A    
C13   C85   A    
C27   C28   A    
C28   H56   S    
C84   H44   S    
C41   C98   S    
C48   H32   S    
C83   H43   S    
C80   H40   S    
C16   C80   A    
C84   N20   A    
C102  H65   S    
N9    N17   A    
C20   C24   A    
N5    N25   A    
C5    C89   A    
C9    C81   A    
N14   N22   A    
N4    N32   A    
C93   N29   A    
