data_mof_unit_23635.cif
_audit_creation_date              2012-12-10T16:45:23-0500
_audit_creation_method            fapswitch 2.2
_symmetry_space_group_name_H-M    P1
_symmetry_Int_Tables_number       1
_space_group_crystal_system       triclinic
_cell_length_a                    7.498902
_cell_length_b                    8.680789
_cell_length_c                    15.807863
_cell_angle_alpha                 95.243003
_cell_angle_beta                  75.550275
_cell_angle_gamma                 103.225807
_cell_volume                      969.410518238

loop_
_atom_site_label
_atom_site_type_symbol
_atom_type_description
_atom_site_fract_x
_atom_site_fract_y
_atom_site_fract_z
_atom_type_partial_charge
C1    C     C_R   0.545165 0.800010 0.502610 0.856631
C2    C     C_R   0.455514 0.200036 0.496640 0.858430
C3    C     C_R   0.273054 0.443536 0.083363 -0.316130
C4    C     C_R   0.707034 0.641797 0.927375 -0.292535
C5    C     C_R   0.142204 0.398515 0.030828 0.471434
C6    C     C_R   0.833292 0.691138 0.981224 0.453850
C7    C     C_2   0.570067 0.968270 0.504309 -0.358766
C8    C     C_2   0.432163 0.031900 0.493618 -0.377995
C9    C     C_R   0.385324 0.489158 0.666009 0.768742
C10   C     C_R   0.614952 0.513547 0.334111 0.751577
C11   C     C_R   0.316706 0.477924 0.761198 -0.040485
C12   C     C_R   0.683716 0.542894 0.240354 -0.037619
C13   C     C_R   0.070421 0.391514 0.888611 -0.147002
C14   C     C_R   0.912189 0.683030 0.120876 -0.127507
C15   C     C_R   0.127429 0.416379 0.799337 -0.194126
C16   C     C_R   0.862413 0.635471 0.206976 -0.211888
C17   C     C_R   0.446256 0.522047 0.813784 -0.216508
C18   C     C_R   0.558027 0.494409 0.186240 -0.184988
C19   C     C_R   0.391650 0.503920 0.904790 0.062166
C20   C     C_R   0.599638 0.548792 0.100895 0.069942
C21   C     C_R   0.200999 0.431505 0.941825 0.076459
C22   C     C_R   0.782602 0.640985 0.067291 0.081336
C23   C     C_R   0.522395 0.551778 0.959003 -0.008454
C24   C     C_R   0.464823 0.512754 0.048337 -0.011722
Cu1   Cu    Cu3+1 0.322120 0.483240 0.490330 1.019040
Cu2   Cu    Cu3+1 0.677880 0.516760 0.509670 1.015347
H1    H     H_    0.428224 0.412923 0.212563 0.114465
H2    H     H_    0.591066 0.565078 0.781217 0.148955
H3    H     H_    0.961570 0.674587 0.247981 0.143229
H4    H     H_    0.024782 0.381909 0.759794 0.164738
H5    H     H_    0.923585 0.338896 0.915471 0.176546
H6    H     H_    0.051771 0.754622 0.096825 0.168149
H7    H     H_    0.219050 0.431013 0.152581 0.141469
H8    H     H_    0.757558 0.680821 0.861389 0.155855
H9    H     H_    0.702479 0.040011 0.514898 0.196368
H10   H     H_    0.300707 0.960179 0.482262 0.169343
N1    N     N_2   0.945180 0.542040 0.524240 0.155289
N2    N     N_2   0.054820 0.457960 0.475760 0.159026
O1    O     O_R   0.384450 0.714270 0.493720 -0.548850
O2    O     O_R   0.615550 0.285730 0.506280 -0.520512
O3    O     O_R   0.684880 0.742590 0.510050 -0.629135
O4    O     O_R   0.315120 0.257410 0.489950 -0.602609
O5    O     O_R   0.265540 0.477900 0.617090 -0.531967
O6    O     O_R   0.734460 0.522100 0.382910 -0.566061
O7    O     O_R   0.565970 0.506210 0.633420 -0.599250
O8    O     O_R   0.434030 0.493790 0.366580 -0.620660
O9    O     O_3   0.952053 0.333363 0.064934 -0.584093
C25   C     C_3   0.924158 0.223069 0.129710 -0.367355
H11   H     H_    0.033494 0.150192 0.115258 0.153894
H12   H     H_    0.785967 0.140639 0.132749 0.189044
H13   H     H_    0.916619 0.285278 0.194480 0.176035
O10   O     O_3   0.013639 0.777461 0.947572 -0.581189
C26   C     C_3   0.003985 0.930615 0.928400 -0.334981
H14   H     H_    0.909843 0.985579 0.982753 0.167863
H15   H     H_    0.958062 0.928326 0.866615 0.163484
H16   H     H_    0.147149 0.007539 0.918938 0.195889
O11   O     O_3   0.015863 0.620697 0.590364 -0.474554
C27   C     C_3   0.955688 0.763992 0.609070 -0.147937
H17   H     H_    0.805503 0.744923 0.644247 0.164785
H18   H     H_    0.986591 0.832595 0.549225 0.145892
H19   H     H_    0.037267 0.837164 0.653688 0.124081
O12   O     O_3   0.962265 0.334189 0.434662 -0.473805
C28   C     C_3   0.078585 0.305062 0.353451 -0.174279
H20   H     H_    0.129341 0.413748 0.314673 0.137659
H21   H     H_    0.194783 0.252254 0.360447 0.175404
H22   H     H_    0.993392 0.215103 0.316844 0.110549

loop_
_geom_bond_atom_site_label_1
_geom_bond_atom_site_label_2
_ccdc_geom_bond_type
Cu1   O4    S    
C10   O8    A    
C19   C23   A    
C23   C24   A    
C28   H21   S    
Cu2   N1    S    
C9    O7    A    
O12   C28   S    
C14   C16   A    
N2    O12   S    
Cu1   N2    S    
C5    O9    S    
O9    C25   S    
C13   C15   A    
Cu1   O5    S    
C27   H19   S    
C25   H12   S    
C3    C24   A    
C28   H22   S    
C13   C21   A    
C7    C8    D    
Cu1   Cu2   S    
C26   H14   S    
Cu1   O1    S    
C9    C11   S    
Cu2   O2    S    
O11   C27   S    
N1    N2    D    
C10   C12   S    
C2    O4    A    
C10   O6    A    
C1    O3    A    
C25   H11   S    
C19   C21   A    
C20   C22   A    
C27   H18   S    
C18   C20   A    
C26   H15   S    
C14   C22   A    
C20   C24   A    
N1    O11   S    
C4    H8    S    
C27   H17   S    
C9    O5    A    
C1    O1    A    
Cu2   O6    S    
C28   H20   S    
C6    C22   A    
C17   C19   A    
C2    O2    A    
C7    H9    S    
C5    C21   A    
O10   C26   S    
C15   H4    S    
C4    C6    A    
C8    H10   S    
C26   H16   S    
C12   C18   A    
C4    C23   A    
C3    H7    S    
C11   C17   A    
Cu2   O7    S    
C6    O10   S    
C16   H3    S    
C1    C7    S    
C17   H2    S    
C11   C15   A    
Cu1   O8    S    
C13   H5    S    
C25   H13   S    
C2    C8    S    
C18   H1    S    
C12   C16   A    
Cu2   O3    S    
C14   H6    S    
C3    C5    A    
