data_mof_unit_20953.cif
_audit_creation_date              2012-12-11T16:58:19-0500
_audit_creation_method            fapswitch 2.2
_symmetry_space_group_name_H-M    P1
_symmetry_Int_Tables_number       1
_space_group_crystal_system       triclinic
_cell_length_a                    16.692609
_cell_length_b                    7.237624
_cell_length_c                    17.215521
_cell_angle_alpha                 89.999176
_cell_angle_beta                  100.392544
_cell_angle_gamma                 90.000216
_cell_volume                      2045.76950517

loop_
_atom_site_label
_atom_site_type_symbol
_atom_type_description
_atom_site_fract_x
_atom_site_fract_y
_atom_site_fract_z
_atom_type_partial_charge
O1    O     O_R   0.413450 0.494370 0.415710 -0.526624
O2    O     O_R   0.586550 0.994370 0.584290 -0.526623
O3    O     O_R   0.578420 0.819350 0.429360 -0.549435
O4    O     O_R   0.421580 0.319350 0.570640 -0.549435
C1    C     C_R   0.606402 0.658448 0.415101 0.753991
C2    C     C_R   0.393597 0.158446 0.584897 0.753996
O5    O     O_R   0.413570 0.823780 0.406240 -0.538780
O6    O     O_R   0.586430 0.323780 0.593760 -0.538783
O7    O     O_R   0.420530 0.998740 0.561000 -0.523938
O8    O     O_R   0.579470 0.498740 0.439000 -0.523942
C3    C     C_R   0.386050 0.653793 0.383518 0.724317
C4    C     C_R   0.613952 0.153791 0.616481 0.724305
O9    O     O_3   0.502480 0.662320 0.550800 -0.365855
O10   O     O_3   0.497520 0.162320 0.449200 -0.365854
V1    V     V_3+5 0.499540 0.935370 0.490580 1.524697
V2    V     V_3+5 0.500460 0.435370 0.509420 1.524688
C5    C     C_R   0.746509 0.008122 0.687443 -0.084624
C6    C     C_R   0.253500 0.508110 0.312551 -0.084618
C7    C     C_R   0.683322 0.139718 0.684528 -0.133795
C8    C     C_R   0.316681 0.639721 0.315470 -0.133806
C9    C     C_R   0.693485 0.273652 0.744967 -0.163139
C10   C     C_R   0.306514 0.773663 0.255032 -0.163171
H1    H     H_    0.648146 0.380744 0.744529 0.228879
H2    H     H_    0.351849 0.880765 0.255471 0.228898
C11   C     C_R   0.760244 0.267391 0.808405 0.653636
C12   C     C_R   0.239755 0.767398 0.191593 0.653610
C13   C     C_R   0.820103 0.126788 0.813128 -0.204715
C14   C     C_R   0.179901 0.626780 0.186867 -0.204657
C15   C     C_R   0.814675 0.008443 0.747833 -0.098885
C16   C     C_R   0.185335 0.508422 0.252161 -0.098817
C17   C     C_3   0.831039 0.806574 0.742559 -0.047812
C18   C     C_3   0.168978 0.306550 0.257442 -0.047814
C19   C     C_3   0.749432 0.798847 0.683770 0.686445
C20   C     C_3   0.250583 0.298837 0.316235 0.686427
H3    H     H_    0.829536 0.729818 0.798232 0.208687
H4    H     H_    0.170485 0.229787 0.201772 0.208702
C21   C     C_R   0.327951 0.168171 0.634124 -0.228012
C22   C     C_R   0.672041 0.668185 0.365869 -0.228018
C23   C     C_R   0.162310 0.112550 0.857543 -0.310708
C24   C     C_R   0.837691 0.612538 0.142460 -0.310748
C25   C     C_R   0.281981 0.963305 0.821428 0.627770
C26   C     C_R   0.718025 0.463279 0.178581 0.627749
C27   C     C_R   0.228016 0.987743 0.873803 0.533457
C28   C     C_R   0.771991 0.487717 0.126206 0.533479
C29   C     C_R   0.150907 0.215529 0.785980 0.041765
C30   C     C_R   0.849088 0.715532 0.214019 0.041810
C31   C     C_R   0.211324 0.202558 0.736775 -0.032559
C32   C     C_R   0.788660 0.702589 0.263212 -0.032443
C33   C     C_R   0.274970 0.070525 0.752543 -0.253173
C34   C     C_R   0.725025 0.570527 0.247455 -0.253178
C35   C     C_R   0.331541 0.051712 0.700324 0.632053
C36   C     C_R   0.668454 0.551718 0.299674 0.632043
C37   C     C_R   0.268883 0.314202 0.624128 0.078655
C38   C     C_R   0.731094 0.814246 0.375850 0.078680
C39   C     C_R   0.211026 0.323827 0.673544 -0.093488
C40   C     C_R   0.788934 0.823913 0.326417 -0.093503
H5    H     H_    0.168112 0.436735 0.664221 0.133454
H6    H     H_    0.831819 0.936884 0.335710 0.133388
O11   O     O_R   0.920630 0.775410 0.061150 -0.542540
O12   O     O_R   0.079370 0.275410 0.938850 -0.542551
O13   O     O_R   0.086500 0.441450 0.093690 -0.546685
O14   O     O_R   0.913500 0.941450 0.906310 -0.546684
C41   C     C_R   0.113480 0.610896 0.116643 0.755902
C42   C     C_R   0.886521 0.110899 0.883355 0.755922
O15   O     O_R   0.921670 0.445960 0.070740 -0.518680
O16   O     O_R   0.078330 0.945960 0.929260 -0.518704
O17   O     O_R   0.913380 0.271130 0.915780 -0.509831
O18   O     O_R   0.086620 0.771130 0.084220 -0.509834
C43   C     C_R   0.897324 0.613438 0.087566 0.799912
C44   C     C_R   0.102677 0.113440 0.912436 0.799936
O19   O     O_3   0.997500 0.603030 0.949220 -0.396415
O20   O     O_3   0.002500 0.103030 0.050780 -0.396412
V3    V     V_3+5 0.000470 0.329940 0.009420 1.553417
V4    V     V_3+5 0.999530 0.829940 0.990580 1.553399
F1    F     F_    0.239495 0.885460 0.941104 -0.572649
F2    F     F_    0.760518 0.385417 0.058912 -0.572653
C45   C     C_3   0.073249 0.329500 0.759898 -0.291607
C46   C     C_3   0.022618 0.261645 0.681593 -0.813841
H7    H     H_    0.031885 0.111949 0.672682 0.241069
H8    H     H_    0.956775 0.285595 0.681219 0.214139
H9    H     H_    0.038631 0.337738 0.630634 0.218951
H10   H     H_    0.032029 0.325233 0.803268 0.171803
H11   H     H_    0.089177 0.477330 0.755273 0.176683
C47   C     C_3   0.926751 0.829478 0.240110 -0.291655
C48   C     C_3   0.977367 0.761609 0.318419 -0.813709
H12   H     H_    0.968401 0.611718 0.327122 0.241028
H13   H     H_    0.043182 0.786408 0.318956 0.214068
H14   H     H_    0.961076 0.837011 0.369425 0.219028
H15   H     H_    0.967983 0.825163 0.196750 0.171799
H16   H     H_    0.910838 0.977315 0.244731 0.176711
F3    F     F_    0.763387 0.393631 0.867192 -0.605949
F4    F     F_    0.236608 0.893649 0.132807 -0.605958
C49   C     C_3   0.908883 0.771302 0.707076 -0.439003
C50   C     C_3   0.986980 0.815399 0.764156 -0.695858
H17   H     H_    0.040032 0.795307 0.734352 0.188696
H18   H     H_    0.986765 0.961007 0.783691 0.219048
H19   H     H_    0.993736 0.721378 0.815423 0.251719
H20   H     H_    0.912183 0.623688 0.691176 0.206632
H21   H     H_    0.908534 0.856137 0.653217 0.193710
C51   C     C_3   0.091134 0.271280 0.292925 -0.439026
C52   C     C_3   0.013038 0.315212 0.235815 -0.695856
H22   H     H_    0.959981 0.295140 0.265615 0.188671
H23   H     H_    0.013229 0.460783 0.216226 0.218995
H24   H     H_    0.006313 0.221089 0.184586 0.251715
H25   H     H_    0.087858 0.123695 0.308880 0.206591
H26   H     H_    0.091460 0.356214 0.346754 0.193674
F5    F     F_    0.688151 0.722100 0.718057 -0.637022
F6    F     F_    0.311868 0.222091 0.281955 -0.637025
C53   C     C_3   0.749930 0.716925 0.601359 -0.360723
C54   C     C_3   0.774504 0.512719 0.601845 -0.753071
H27   H     H_    0.789580 0.456453 0.662514 0.226619
H28   H     H_    0.724807 0.429381 0.567423 0.218161
H29   H     H_    0.828662 0.495577 0.573317 0.198524
H30   H     H_    0.687241 0.728578 0.567365 0.188542
H31   H     H_    0.791572 0.797018 0.571109 0.115669
C55   C     C_3   0.250081 0.216932 0.398649 -0.360720
C56   C     C_3   0.225524 0.012716 0.398177 -0.753097
H32   H     H_    0.210448 0.956436 0.337511 0.226619
H33   H     H_    0.275229 0.929404 0.432603 0.218185
H34   H     H_    0.171370 0.995557 0.426712 0.198491
H35   H     H_    0.312765 0.228617 0.432648 0.188541
H36   H     H_    0.208426 0.297017 0.428887 0.115697
F7    F     F_    0.394255 0.929981 0.717039 -0.611302
F8    F     F_    0.605743 0.429976 0.282965 -0.611305
C57   C     C_3   0.265109 0.472542 0.565425 -0.425438
C58   C     C_3   0.297249 0.650737 0.606622 -0.557525
H37   H     H_    0.260912 0.690461 0.652026 0.208710
H38   H     H_    0.361983 0.632922 0.634980 0.288972
H39   H     H_    0.292962 0.763799 0.562556 0.169210
H40   H     H_    0.299385 0.448616 0.517789 0.178980
H41   H     H_    0.200866 0.494888 0.535958 0.157617
C59   C     C_3   0.734880 0.972555 0.434566 -0.425464
C60   C     C_3   0.702726 0.150768 0.393391 -0.557448
H42   H     H_    0.739052 0.190529 0.347981 0.208722
H43   H     H_    0.637989 0.132954 0.365044 0.288973
H44   H     H_    0.707021 0.263803 0.437468 0.169190
H45   H     H_    0.700618 0.948592 0.482211 0.178974
H46   H     H_    0.799126 0.994896 0.464021 0.157616
F9    F     F_    0.342310 0.836276 0.839766 -0.536805
F10   F     F_    0.657704 0.336227 0.160251 -0.536817

loop_
_geom_bond_atom_site_label_1
_geom_bond_atom_site_label_2
_ccdc_geom_bond_type
C49   C50   S    
C13   C15   A    
C5    C15   A    
C37   C39   A    
O1    C3    A    
O2    C4    A    
C2    O7    A    
O15   V3    S    
C31   C33   A    
O16   C44   A    
C45   C46   S    
O5    C3    A    
C51   H25   S    
C52   H22   S    
C55   H36   S    
C18   H4    S    
C7    C9    A    
C32   C34   A    
C56   H33   S    
C48   H12   S    
C21   C35   A    
C46   H8    S    
C48   H14   S    
C22   C36   A    
C45   H11   S    
C12   F4    S    
O16   V4    S    
O12   V3    S    
C35   F7    S    
C55   C56   S    
C28   F2    S    
O13   C41   A    
C54   H27   S    
O14   C42   A    
C57   H40   S    
C59   C60   S    
C33   C35   A    
C19   F5    S    
C60   H44   S    
C34   C36   A    
C17   C19   S    
C6    C16   A    
C49   H21   S    
C6    C8    A    
C23   C29   A    
C21   C37   A    
O5    V1    S    
C52   H23   S    
C1    C22   S    
C25   C27   A    
C26   C28   A    
C25   C33   A    
C30   C32   A    
C29   C31   A    
C27   F1    S    
C38   C40   A    
C3    C8    S    
C11   F3    S    
C24   C43   S    
C48   H13   S    
C26   F10   S    
C42   O17   A    
C47   C48   S    
O4    C2    A    
C55   H35   S    
C56   H34   S    
C46   H7    S    
C23   C27   A    
C50   H19   S    
O13   V3    S    
C59   H45   S    
C17   C49   S    
C18   C51   S    
C18   C20   S    
O4    V2    S    
C24   C30   A    
C57   H41   S    
C22   C38   A    
O12   C44   A    
O6    C4    A    
C2    C21   S    
C5    C19   S    
O1    V2    S    
C50   H18   S    
O2    V1    S    
C6    C20   S    
O11   V4    S    
C37   C57   S    
C53   H30   S    
C26   C34   A    
C30   C47   S    
O17   V3    S    
O11   C43   A    
C52   H24   S    
C39   H5    S    
C57   C58   S    
C17   H3    S    
C19   C53   S    
C47   H15   S    
O3    V1    S    
C31   C39   A    
C47   H16   S    
C32   C40   A    
C9    C11   A    
C41   O18   A    
C58   H38   S    
C12   C14   A    
C8    C10   A    
O20   V3    S    
O3    C1    A    
O19   V4    S    
C11   C13   A    
C38   C59   S    
C51   H26   S    
C58   H39   S    
C20   F6    S    
C9    H1    S    
O7    V1    S    
C1    O8    A    
C15   C17   S    
O8    V2    S    
C56   H32   S    
C16   C18   S    
C36   F8    S    
C46   H9    S    
C60   H42   S    
C20   C55   S    
C45   H10   S    
C58   H37   S    
O15   C43   A    
C4    C7    S    
C14   C16   A    
C51   C52   S    
C5    C7    A    
C23   C44   S    
C40   H6    S    
C10   H2    S    
C50   H17   S    
C54   H28   S    
C25   F9    S    
C13   C42   S    
C53   H31   S    
C14   C41   S    
C24   C28   A    
O6    V2    S    
C10   C12   A    
O9    V2    S    
C54   H29   S    
C60   H43   S    
O10   V1    S    
O14   V4    S    
C29   C45   S    
C53   C54   S    
C59   H46   S    
C49   H20   S    
O18   V4    S    
