data_mof_unit_47748.cif
_audit_creation_date              2012-12-10T20:40:02-0500
_audit_creation_method            fapswitch 2.2
_symmetry_space_group_name_H-M    P1
_symmetry_Int_Tables_number       1
_space_group_crystal_system       triclinic
_cell_length_a                    23.07511
_cell_length_b                    10.669813
_cell_length_c                    9.934721
_cell_angle_alpha                 89.51142
_cell_angle_beta                  90.284554
_cell_angle_gamma                 90.849005
_cell_volume                      2445.61282747

loop_
_atom_site_label
_atom_site_type_symbol
_atom_type_description
_atom_site_fract_x
_atom_site_fract_y
_atom_site_fract_z
_atom_type_partial_charge
C1    C     C_R   0.504943 0.260657 0.499979 0.876149
C2    C     C_R   0.121128 0.390046 0.394237 0.515079
C3    C     C_R   0.231524 0.528542 0.568500 -0.100035
C4    C     C_R   0.389410 0.498281 0.500079 0.872628
C5    C     C_R   0.290383 0.557507 0.561920 -0.157057
C6    C     C_R   0.327862 0.473248 0.501835 -0.022521
C7    C     C_R   0.307221 0.357860 0.454223 -0.236422
C8    C     C_R   0.248507 0.328596 0.461317 -0.078720
C9    C     C_R   0.210498 0.414459 0.517244 0.268383
C10   C     C_R   0.750803 0.335442 0.474491 -0.167168
C11   C     C_R   0.691939 0.359157 0.470844 -0.145369
C12   C     C_R   0.968940 0.365871 0.756045 -0.157252
C13   C     C_R   0.672128 0.478637 0.501314 -0.042959
C14   C     C_R   0.710826 0.574797 0.536474 -0.346062
C15   C     C_R   0.770408 0.550888 0.543381 0.593637
C16   C     C_R   0.501668 0.739990 0.499549 0.904146
C17   C     C_R   0.789915 0.430901 0.509751 0.223466
C18   C     C_R   0.517017 0.063391 0.620748 0.119409
C19   C     C_R   0.519064 0.130143 0.499488 -0.157614
C20   C     C_R   0.531847 0.065233 0.378771 -0.067090
C21   C     C_R   0.526142 0.935143 0.379969 -0.228164
C22   C     C_R   0.511965 0.871683 0.499477 -0.106535
C23   C     C_R   0.029270 0.362144 0.757074 -0.151356
C24   C     C_R   0.513287 0.935799 0.620514 0.113251
C25   C     C_3   0.474290 0.930508 0.740720 -0.199522
C26   C     C_3   0.478241 0.072834 0.740534 -0.532674
C27   C     C_R   0.450275 0.474417 0.070113 0.134358
C28   C     C_R   0.610592 0.499685 0.500256 0.895171
C29   C     C_R   0.546834 0.543802 0.071707 -0.088750
C30   C     C_R   0.546362 0.545925 0.927864 -0.091190
C31   C     C_R   0.450667 0.473415 0.928705 0.231641
C32   C     C_3   0.413501 0.359145 0.920050 0.235669
C33   C     C_3   0.412432 0.358917 0.074740 -0.398853
C34   C     C_R   0.060225 0.369832 0.635862 -0.014235
C35   C     C_R   0.878984 0.403826 0.390026 0.545169
C36   C     C_R   0.878398 0.390057 0.630509 0.548467
C37   C     C_R   0.938595 0.377312 0.633788 -0.019506
C38   C     C_R   0.969168 0.380036 0.511342 -0.018122
C39   C     C_R   0.939119 0.390681 0.388020 -0.024200
C40   C     C_3   0.800005 0.697624 0.697568 -0.248228
C41   C     C_2   0.549093 0.127407 0.250207 0.945663
C42   C     C_2   0.414121 0.879713 0.712143 0.941194
C43   C     C_2   0.598037 0.594996 0.142381 1.005259
C44   C     C_2   0.595387 0.605850 0.856507 0.984176
C45   C     C_R   0.030043 0.376201 0.512395 -0.018786
C46   C     C_3   0.333545 0.279834 0.806647 -0.167118
C47   C     C_2   0.353049 0.381206 0.131788 1.078126
C48   C     C_R   0.060647 0.383149 0.390159 -0.016718
C49   C     C_R   0.030200 0.388522 0.267561 -0.149215
C50   C     C_R   0.969919 0.392259 0.266503 -0.152521
C51   C     C_R   0.120794 0.376178 0.634726 0.506518
H1    H     H_    0.946304 0.362659 0.851309 0.191480
H2    H     H_    0.434838 0.277896 0.121857 0.146019
H3    H     H_    0.052833 0.392883 0.172323 0.192690
H4    H     H_    0.947682 0.399278 0.170501 0.191115
H5    H     H_    0.202073 0.595110 0.611658 0.154897
H6    H     H_    0.306600 0.645350 0.602225 0.163985
H7    H     H_    0.336768 0.290057 0.413585 0.168984
H8    H     H_    0.232424 0.240000 0.422761 0.172319
H9    H     H_    0.766209 0.243036 0.450053 0.168817
H10   H     H_    0.792149 0.624596 0.776504 0.196490
H11   H     H_    0.763249 0.763532 0.692117 0.159575
H12   H     H_    0.661779 0.284172 0.445721 0.185906
H13   H     H_    0.838924 0.752509 0.728775 0.206081
H14   H     H_    0.596689 0.262433 0.157370 0.360327
H15   H     H_    0.342855 0.882848 0.593724 0.336316
H16   H     H_    0.632970 0.736019 0.250843 0.335099
H17   H     H_    0.680522 0.602752 0.812875 0.330046
H18   H     H_    0.332447 0.201763 0.881749 0.175064
H19   H     H_    0.356111 0.250737 0.713804 0.137247
H20   H     H_    0.288118 0.301120 0.778689 0.219947
H21   H     H_    0.294135 0.504625 0.196648 0.361142
H22   H     H_    0.694642 0.667477 0.556655 0.153180
H23   H     H_    0.530798 0.884571 0.286844 0.242226
H24   H     H_    0.495637 0.886904 0.829856 0.200246
H25   H     H_    0.436972 0.120064 0.715722 0.205289
H26   H     H_    0.501835 0.110370 0.829667 0.228708
H27   H     H_    0.051542 0.356277 0.853118 0.192282
H28   H     H_    0.437356 0.280157 0.875373 0.079314
N1    N     N_R   0.850386 0.406016 0.510122 -0.341868
N2    N     N_R   0.149624 0.389533 0.515373 -0.356824
N3    N     N_R   0.499610 0.499140 0.142800 -0.149727
N4    N     N_R   0.499610 0.499180 0.857150 -0.178015
O1    O     O_R   0.500010 0.316790 0.614690 -0.630004
O2    O     O_R   0.583850 0.500060 0.614640 -0.608638
O3    O     O_R   0.583840 0.500020 0.385300 -0.585452
O4    O     O_2   0.849338 0.417114 0.273421 -0.521834
O5    O     O_3   0.810826 0.644880 0.570514 -0.606947
O6    O     O_2   0.530344 0.087667 0.143097 -0.644981
O7    O     O_R   0.588445 0.228298 0.251001 -0.789995
O8    O     O_2   0.393389 0.798409 0.785579 -0.594672
O9    O     O_R   0.382404 0.924765 0.602002 -0.818610
O10   O     O_2   0.643374 0.537051 0.142584 -0.570596
O11   O     O_R   0.595088 0.710844 0.205762 -0.809405
O12   O     O_2   0.848055 0.388233 0.746315 -0.548605
O13   O     O_2   0.588792 0.706055 0.798461 -0.637722
O14   O     O_R   0.649800 0.550098 0.860142 -0.759724
O15   O     O_3   0.359825 0.389118 0.859006 -0.552776
O16   O     O_2   0.319574 0.292376 0.146635 -0.625998
O17   O     O_R   0.335410 0.502561 0.162316 -0.748605
O18   O     O_2   0.150735 0.371283 0.751668 -0.542260
O19   O     O_2   0.151241 0.401338 0.278488 -0.533179
O20   O     O_R   0.500000 0.316760 0.385350 -0.612051
O21   O     O_R   0.416160 0.499980 0.614700 -0.570133
O22   O     O_R   0.416150 0.499940 0.385360 -0.599328
O23   O     O_R   0.500000 0.683240 0.614650 -0.592434
O24   O     O_R   0.499990 0.683210 0.385310 -0.588037
Zn1   Zn    Zn3+2 0.500000 0.500020 0.653130 1.014601
Zn2   Zn    Zn3+2 0.500000 0.499980 0.346870 1.015435

loop_
_geom_bond_atom_site_label_1
_geom_bond_atom_site_label_2
_ccdc_geom_bond_type
C41   O6    D    
C10   H9    S    
C19   C20   A    
C18   C26   S    
C20   C41   S    
C40   H11   S    
C7    C8    A    
C27   C33   S    
C1    O1    A    
C12   C23   A    
C34   C51   A    
C37   C38   A    
C3    C9    A    
C36   C37   A    
C18   C19   A    
C11   H12   S    
C8    H8    S    
C38   C39   A    
C2    O19   S    
C10   C17   A    
C49   H3    S    
C35   N1    A    
C30   N4    A    
C43   O11   S    
C31   N4    A    
N4    Zn1   S    
C42   O8    D    
C3    H5    S    
C12   C37   A    
H17   O14   S    
C46   H18   S    
O22   Zn2   S    
C16   O24   A    
C43   O10   D    
C35   O4    S    
C8    C9    A    
C38   C45   A    
H16   O11   S    
C26   H25   S    
C13   C28   S    
O2    Zn1   S    
C1    O20   A    
C7    H7    S    
C42   O9    S    
C16   O23   A    
C41   O7    S    
C46   O15   S    
C13   C14   A    
C29   C43   S    
O24   Zn2   S    
C30   C44   S    
C12   H1    S    
C33   H2    S    
H14   O7    S    
C1    C19   S    
C26   H26   S    
C27   C31   A    
N3    Zn2   S    
O3    Zn2   S    
C24   C25   S    
C4    C6    S    
C36   N1    A    
H15   O9    S    
C2    C48   A    
C25   C26   S    
C21   H23   S    
C17   N1    S    
C47   O17   S    
C25   H24   S    
C35   C39   A    
C14   H22   S    
C29   C30   A    
C44   O13   D    
C44   O14   S    
C31   C32   S    
C23   C34   A    
C34   C45   A    
C46   H20   S    
C48   C49   A    
C28   O3    A    
C33   C47   S    
C18   C24   A    
O21   Zn1   S    
H21   O17   S    
C45   C48   A    
C15   C17   A    
C51   N2    A    
C16   C22   S    
C27   N3    A    
C47   O16   D    
C3    C5    A    
C25   C42   S    
C6    C7    A    
C51   O18   S    
C4    O22   A    
C50   H4    S    
C40   H13   S    
C5    H6    S    
O20   Zn2   S    
C32   C33   S    
C40   O5    S    
C29   N3    A    
C32   H28   S    
C11   C13   A    
C36   O12   S    
C5    C6    A    
O23   Zn1   S    
C4    O21   A    
O1    Zn1   S    
C32   O15   S    
C22   C24   A    
C23   H27   S    
C46   H19   S    
C10   C11   A    
C40   H10   S    
C39   C50   A    
C20   C21   A    
C49   C50   A    
C28   O2    A    
C14   C15   A    
C2    N2    A    
C21   C22   A    
C9    N2    S    
C15   O5    S    
