data_mof_unit_19052.cif
_audit_creation_date              2012-12-11T14:50:36-0500
_audit_creation_method            fapswitch 2.2
_symmetry_space_group_name_H-M    P1
_symmetry_Int_Tables_number       1
_space_group_crystal_system       triclinic
_cell_length_a                    11.196674
_cell_length_b                    11.141685
_cell_length_c                    18.72671
_cell_angle_alpha                 89.388786
_cell_angle_beta                  88.831104
_cell_angle_gamma                 59.937743
_cell_volume                      2021.47693537

loop_
_atom_site_label
_atom_site_type_symbol
_atom_type_description
_atom_site_fract_x
_atom_site_fract_y
_atom_site_fract_z
_atom_type_partial_charge
C1    C     C_R   0.229981 0.648108 0.607838 0.643603
C2    C     C_3   0.689502 0.557130 0.812836 -0.020564
C3    C     C_3   0.719448 0.683354 0.810430 -0.087230
C4    C     C_3   0.673179 0.639241 0.678702 -0.067712
C5    C     C_3   0.824260 0.622915 0.682370 0.202496
C6    C     C_3   0.657415 0.534478 0.733149 0.125223
C7    C     C_R   0.805753 0.097296 0.697071 0.086761
C8    C     C_R   0.812051 0.097669 0.772663 -0.054501
C9    C     C_R   0.697334 0.123621 0.815526 -0.035966
C10   C     C_R   0.577999 0.144012 0.781279 -0.046248
C11   C     C_R   0.574860 0.134890 0.708454 0.261113
C12   C     C_R   0.649853 0.615159 0.603351 0.611897
C13   C     C_R   0.677045 0.138353 0.666120 0.048391
C14   C     C_R   0.205912 0.547773 0.725810 0.300055
C15   C     C_R   0.202683 0.554613 0.800307 0.256478
C16   C     C_R   0.173613 0.679025 0.833292 0.027403
C17   C     C_R   0.161197 0.790302 0.790612 0.254942
C18   C     C_R   0.157299 0.782502 0.717671 -0.043894
C19   C     C_R   0.183325 0.662270 0.683329 0.014676
C20   C     C_R   0.716326 0.499004 0.263652 0.228984
C21   C     C_R   0.715503 0.519019 0.189945 0.285934
C22   C     C_R   0.642611 0.654858 0.161787 0.010893
C23   C     C_R   0.630768 0.220179 0.599469 0.596801
C24   C     C_R   0.547841 0.763513 0.205526 -0.143450
C25   C     C_R   0.535824 0.740313 0.277830 -0.118887
C26   C     C_R   0.624908 0.610471 0.308533 -0.008625
C27   C     C_R   0.693762 0.054369 0.298840 0.059469
C28   C     C_R   0.700831 0.032373 0.225476 -0.124750
C29   C     C_R   0.650427 0.143793 0.177193 0.047470
C30   C     C_R   0.575312 0.281582 0.200866 0.067191
C31   C     C_R   0.571928 0.303456 0.274104 -0.100362
C32   C     C_R   0.637591 0.191893 0.321957 0.066501
C33   C     C_R   0.071076 0.820812 0.311594 0.241397
C34   C     C_R   0.215710 0.652774 0.404179 0.557030
C35   C     C_R   0.042841 0.838126 0.239072 0.192045
C36   C     C_R   0.051192 0.726791 0.198102 -0.030350
C37   C     C_R   0.072271 0.605101 0.234193 0.188090
C38   C     C_R   0.108354 0.586218 0.306578 0.019358
C39   C     C_R   0.123626 0.688841 0.342518 -0.051133
C40   C     C_R   0.706505 0.091376 0.892949 0.593333
C41   C     C_R   0.750844 0.707305 0.883189 0.588603
C42   C     C_R   0.117197 0.708182 0.905883 0.572017
C43   C     C_R   0.674035 0.105414 0.103362 0.613985
C44   C     C_R   0.693074 0.686821 0.095301 0.579811
C45   C     C_R   0.618169 0.589751 0.386109 0.542014
C46   C     C_R   0.031048 0.744326 0.119810 0.559267
C47   C     C_R   0.616844 0.230115 0.395759 0.594464
C48   C     C_3   0.595128 0.819280 0.777039 0.139672
C49   C     C_3   0.566272 0.788827 0.701650 0.092919
C50   C     C_3   0.846705 0.652627 0.761131 -0.011132
Cr1   Cr    Cr6+3 0.392930 0.397900 0.502230 1.186078
Cr2   Cr    Cr6+3 0.398240 0.708600 0.501260 1.156855
Cr3   Cr    Cr6+3 0.708800 0.393470 0.496460 1.229218
Cr4   Cr    Cr6+3 0.937620 0.938540 0.007640 1.164379
Cr5   Cr    Cr6+3 0.625150 0.937450 0.994520 1.151673
Cr6   Cr    Cr6+3 0.937990 0.625080 0.001190 1.199770
H1    H     H_    0.630442 0.893992 0.769652 0.182657
H2    H     H_    0.941453 0.564704 0.782718 0.255130
H3    H     H_    0.903652 0.080054 0.798022 0.226786
H4    H     H_    0.489460 0.154475 0.810836 0.256979
H5    H     H_    0.147456 0.867572 0.686971 0.226406
H6    H     H_    0.489349 0.868252 0.185011 0.176339
H7    H     H_    0.463050 0.826920 0.310439 0.186399
H8    H     H_    0.748071 0.927233 0.205115 0.113274
H9    H     H_    0.516700 0.408559 0.294784 0.113033
H10   H     H_    0.581984 0.852650 0.662784 0.209119
O1    O     O_R   0.507430 0.255570 0.581420 -0.423265
O2    O     O_R   0.524460 0.695920 0.424060 -0.507816
O3    O     O_R   0.736530 0.504260 0.414810 -0.408431
O4    O     O_R   0.691460 0.277160 0.422180 -0.458056
O5    O     O_3   0.499990 0.499990 0.499980 -0.352568
O6    O     O_R   0.089490 0.825610 0.930610 -0.469697
O7    O     O_R   0.818370 0.054540 0.929880 -0.477998
O8    O     O_R   0.605870 0.077310 0.915530 -0.479655
O9    O     O_R   0.646440 0.806700 0.917570 -0.432427
O10   O     O_R   0.837200 0.593290 0.915250 -0.463800
O11   O     O_R   0.065330 0.635370 0.931590 -0.455960
O12   O     O_R   0.280190 0.527390 0.578910 -0.413284
O13   O     O_R   0.068300 0.828790 0.091860 -0.439123
O14   O     O_R   0.798730 0.057480 0.079370 -0.450916
O15   O     O_R   0.584680 0.080480 0.076790 -0.489817
O16   O     O_R   0.626790 0.809640 0.067050 -0.511571
O17   O     O_R   0.816010 0.596460 0.076500 -0.418515
O18   O     O_R   0.045680 0.638310 0.081070 -0.439227
O19   O     O_3   0.833590 0.833690 0.001120 -0.373792
O20   O     O_R   0.260310 0.739740 0.584580 -0.456053
O21   O     O_R   0.532250 0.695150 0.573830 -0.443791
O22   O     O_R   0.744930 0.503430 0.576380 -0.400920
O23   O     O_R   0.699250 0.276390 0.571950 -0.443324
O24   O     O_R   0.499020 0.256400 0.419850 -0.511917
O25   O     O_R   0.272400 0.528160 0.429140 -0.505008
O26   O     O_R   0.251910 0.740570 0.423020 -0.462740
Cl1   Cl    Cl    0.768687 0.366310 0.703663 -0.540047
Cl2   Cl    Cl    0.962849 0.449324 0.662686 -0.322725
C51   C     C_2   0.926226 0.073359 0.651634 0.614156
O27   O     O_2   0.942182 0.023018 0.592051 -0.495257
O28   O     O_R   0.020442 0.110606 0.676342 -0.545395
H11   H     H_    0.094622 0.094336 0.639458 0.397668
Cl3   Cl    Cl    0.448919 0.103985 0.672284 -0.406847
Cl4   Cl    Cl    0.244785 0.392383 0.688288 -0.313170
Cl5   Cl    Cl    0.242505 0.404231 0.851440 -0.424928
Cl6   Cl    Cl    0.155136 0.941694 0.823573 -0.395072
Cl7   Cl    Cl    0.440811 0.929250 0.829370 -0.339523
Cl8   Cl    Cl    0.840391 0.334438 0.297161 -0.375459
Cl9   Cl    Cl    0.810239 0.371988 0.133784 -0.371782
C52   C     C_2   0.742886 0.933871 0.348719 0.584115
O29   O     O_2   0.769528 0.820376 0.326021 -0.533404
O30   O     O_R   0.759922 0.948400 0.421289 -0.654722
H12   H     H_    0.795027 0.858264 0.448687 0.366590
C53   C     C_2   0.498368 0.402358 0.151997 0.609216
O31   O     O_2   0.421614 0.517721 0.176898 -0.533413
O32   O     O_R   0.512407 0.385739 0.077816 -0.627793
H13   H     H_    0.454857 0.475959 0.051156 0.371394
Cl10  Cl    Cl    0.035866 0.968192 0.363609 -0.396609
Cl11  Cl    Cl    0.388506 0.845679 0.689536 -0.411553
Cl12  Cl    Cl    0.000678 0.002600 0.202602 -0.392146
Cl13  Cl    Cl    0.052572 0.474848 0.191523 -0.409514
C54   C     C_2   0.126186 0.460761 0.344604 0.685745
O33   O     O_2   0.059944 0.473430 0.399556 -0.422022
O34   O     O_R   0.219677 0.328750 0.318194 -0.619664
H14   H     H_    0.222893 0.251908 0.349060 0.365315
Cl14  Cl    Cl    0.885619 0.788989 0.768549 -0.768958
C55   C     C_2   0.845400 0.711885 0.624575 0.619909
O35   O     O_2   0.922141 0.656581 0.572910 -0.429677
O36   O     O_R   0.775416 0.856019 0.628255 -0.713189
H15   H     H_    0.792894 0.899633 0.584472 0.362741
C56   C     C_2   0.811896 0.417364 0.841503 0.657937
O37   O     O_2   0.930384 0.374665 0.820278 -0.365533
O38   O     O_R   0.787564 0.334990 0.889877 -0.652186
H16   H     H_    0.875955 0.249961 0.905353 0.374282
C57   C     C_2   0.569510 0.600439 0.867911 0.591949
O39   O     O_2   0.593710 0.573343 0.931461 -0.435192
O40   O     O_R   0.432981 0.680763 0.848272 -0.618389
H17   H     H_    0.369359 0.711156 0.891781 0.370005
C58   C     C_2   0.528500 0.523964 0.726478 0.664027
O41   O     O_2   0.467742 0.556900 0.670847 -0.463335
O42   O     O_R   0.495029 0.448420 0.774876 -0.661210
H18   H     H_    0.566210 0.398097 0.812639 0.333761

loop_
_geom_bond_atom_site_label_1
_geom_bond_atom_site_label_2
_ccdc_geom_bond_type
Cr6   O10   S    
O40   H17   S    
C55   O35   D    
C35   C36   A    
C50   Cl14  S    
C44   O17   A    
Cr3   O3    S    
C54   O34   S    
C5    Cl2   S    
C58   O41   D    
O30   H12   S    
C33   Cl10  S    
C29   C30   A    
C52   O30   S    
C30   C53   S    
C36   C37   A    
O38   H16   S    
C44   O16   A    
Cr1   O24   S    
C3    C41   S    
C38   C39   A    
C55   O36   S    
C52   O29   D    
C15   C16   A    
O28   H11   S    
C3    C48   S    
C40   O7    A    
C13   C23   S    
C11   Cl3   S    
C18   C19   A    
C25   H7    S    
C23   O1    A    
C53   O31   D    
C26   C45   S    
Cr1   O25   S    
C54   O33   D    
Cr5   O8    S    
C22   C44   S    
C51   O27   D    
C8    C9    A    
C17   C18   A    
C23   O23   A    
C36   C46   S    
C34   O25   A    
Cr5   O15   S    
C9    C10   A    
Cr2   O2    S    
Cr5   O9    S    
C2    C56   S    
C21   C22   A    
C29   C43   S    
C1    O12   A    
C2    C6    S    
Cr1   O5    S    
Cr3   O4    S    
O32   H13   S    
C3    C50   S    
Cr6   O18   S    
Cr4   O14   S    
C1    C19   S    
C49   H10   S    
C12   O22   A    
C45   O3    A    
C34   C39   S    
C50   H2    S    
C48   H1    S    
C24   C25   A    
C4    C6    S    
C31   H9    S    
C16   C17   A    
Cr1   O1    S    
C27   C52   S    
C43   O14   A    
C48   Cl7   S    
C9    C40   S    
Cr6   O11   S    
Cr5   O19   S    
C10   H4    S    
C17   Cl6   S    
C56   O38   S    
C47   O4    A    
C37   C38   A    
C41   O9    A    
Cr4   O7    S    
C31   C32   A    
C30   C31   A    
C6    Cl1   S    
C45   O2    A    
C42   O6    A    
C2    C57   S    
Cr4   O6    S    
C35   Cl12  S    
C33   C39   A    
C15   Cl5   S    
Cr5   O16   S    
C46   O18   A    
C28   H8    S    
C48   C49   S    
C49   Cl11  S    
Cr3   O23   S    
O36   H15   S    
C43   O15   A    
C32   C47   S    
C22   C24   A    
C5    C50   S    
Cr2   O26   S    
C6    C58   S    
C4    C12   S    
C57   O39   D    
Cr3   O5    S    
C16   C42   S    
O34   H14   S    
Cr6   O17   S    
Cr4   O13   S    
C1    O20   A    
C58   O42   S    
C28   C29   A    
C24   H6    S    
C12   O21   A    
C27   C32   A    
C14   C19   A    
Cr2   O21   S    
C4    C5    S    
C57   O40   S    
Cr4   O19   S    
C51   O28   S    
C18   H5    S    
C14   Cl4   S    
C20   Cl8   S    
C7    C51   S    
O42   H18   S    
C5    C55   S    
C4    C49   S    
Cr2   O20   S    
C2    C3    S    
C25   C26   A    
Cr1   O12   S    
C8    H3    S    
Cr2   O5    S    
C41   O10   A    
C11   C13   A    
Cr6   O19   S    
C46   O13   A    
C20   C26   A    
C33   C35   A    
C40   O8    A    
Cr3   O22   S    
C53   O32   S    
C47   O24   A    
C7    C8    A    
C10   C11   A    
C38   C54   S    
C7    C13   A    
C37   Cl13  S    
C20   C21   A    
C42   O11   A    
C27   C28   A    
C14   C15   A    
C21   Cl9   S    
C56   O37   D    
C34   O26   A    
