data_mof_unit_67493.cif
_audit_creation_date              2013-03-05T15:41:00-0500
_audit_creation_method            fapswitch 2.2
_symmetry_space_group_name_H-M    P1
_symmetry_Int_Tables_number       1
_space_group_crystal_system       triclinic
_cell_length_a                    10.815422
_cell_length_b                    9.058562
_cell_length_c                    7.617614
_cell_angle_alpha                 103.33923
_cell_angle_beta                  94.48254
_cell_angle_gamma                 96.216552
_cell_volume                      717.793912023

loop_
_atom_site_label
_atom_site_type_symbol
_atom_site_description
_atom_site_fract_x
_atom_site_fract_y
_atom_site_fract_z
_atom_type_partial_charge
O1    O     O_R   0.509140 0.286130 0.619770 -0.526066
O2    O     O_R   0.485380 0.256770 0.308360 -0.562108
C1    C     C_R   0.497504 0.200811 0.454206 0.799852
O3    O     O_R   0.329570 0.514650 0.655700 -0.556287
O4    O     O_R   0.305810 0.485300 0.344290 -0.629976
C2    C     C_R   0.261412 0.500796 0.501875 0.816505
Cu1   Cu    Cu3+1 0.514070 0.517380 0.684380 1.034944
Cu2   Cu    Cu3+1 0.485930 0.482620 0.315620 1.009628
O5    O     O_R   0.514620 0.743230 0.691640 -0.565822
O6    O     O_R   0.490860 0.713870 0.380230 -0.579457
O7    O     O_R   0.694190 0.514700 0.655710 -0.600708
O8    O     O_R   0.670430 0.485350 0.344300 -0.540227
C3    C     C_R   0.503569 0.798730 0.545947 0.766931
C4    C     C_R   0.740475 0.504153 0.501038 0.744965
C5    C     C_3   0.089409 0.524806 0.706749 -0.210185
H1    H     H_    0.131928 0.439052 0.765086 0.231854
C6    C     C_3   0.942775 0.492442 0.701084 -0.165363
H2    H     H_    0.149635 0.743192 0.492740 0.123214
H3    H     H_    0.948521 0.746695 0.596237 0.018538
C7    C     C_3   0.085193 0.636644 0.431789 -0.431961
C8    C     C_3   0.052965 0.356991 0.383331 -0.450998
C9    C     C_3   0.125259 0.505447 0.507862 -0.072140
H4    H     H_    0.088227 0.329439 0.247652 0.198775
H5    H     H_    0.071029 0.265776 0.449877 0.199489
C10   C     C_3   0.881042 0.506266 0.507570 -0.126971
C11   C     C_3   0.947062 0.657429 0.470032 0.400687
C12   C     C_3   0.910567 0.366124 0.361676 0.355259
H6    H     H_    0.862126 0.260201 0.389062 -0.009613
H7    H     H_    0.095178 0.606078 0.284360 0.234781
C13   C     C_2   0.512180 0.037171 0.433457 -0.220879
C14   C     C_2   0.494333 0.962765 0.569568 -0.324550
N1    N     N_2   0.464720 0.456420 0.038520 -0.178568
N2    N     N_2   0.535280 0.543580 0.961480 -0.195507
H8    H     H_    0.613152 0.603326 0.043797 0.254535
C15   C     C_2   0.148657 0.680144 0.828268 0.306560
H9    H     H_    0.128871 0.786376 0.796590 0.064361
O9    O     O_2   0.217944 0.687559 0.965187 -0.559471
O10   O     O_3   0.873177 0.380427 0.184351 -0.531468
C16   C     C_3   0.783975 0.256169 0.087746 0.218676
H10   H     H_    0.736559 0.290894 0.973035 0.216333
H11   H     H_    0.707811 0.228735 0.169663 0.141748
C17   C     C_3   0.847893 0.114508 0.021581 -0.450773
H12   H     H_    0.943606 0.145633 0.989306 0.278378
H13   H     H_    0.858930 0.062478 0.136279 0.163760
C18   C     C_3   0.772509 0.998681 0.861399 -0.767082
H14   H     H_    0.691789 0.938147 0.908412 0.289836
H15   H     H_    0.832008 0.914059 0.798335 0.220284
H16   H     H_    0.739208 0.054352 0.754936 0.253389
O11   O     O_3   0.875828 0.705486 0.334884 -0.556262
C19   C     C_3   0.943960 0.813703 0.259312 0.115698
H17   H     H_    0.874472 0.847524 0.168694 0.146159
H18   H     H_    0.007505 0.758095 0.166449 0.187165
C20   C     C_3   0.015697 0.957185 0.393766 -0.450521
H19   H     H_    0.955554 0.048820 0.406666 0.213731
H20   H     H_    0.035910 0.944671 0.533366 0.241515
C21   C     C_3   0.141451 0.003521 0.327254 -0.859997
H21   H     H_    0.195512 0.905033 0.295395 0.283728
H22   H     H_    0.200544 0.092789 0.434566 0.258192
H23   H     H_    0.125592 0.046575 0.203229 0.252183
C22   C     C_2   0.558819 0.960330 0.262554 0.406695
H24   H     H_    0.641348 0.902214 0.266584 0.060062
O12   O     O_2   0.502088 0.956466 0.116547 -0.492405
C23   C     C_2   0.448494 0.033315 0.742760 0.576352
H25   H     H_    0.354853 0.994739 0.769624 0.081740
O13   O     O_2   0.517674 0.125865 0.861162 -0.515737
C24   C     C_2   0.342448 0.396764 0.954075 0.764934
H26   H     H_    0.262522 0.432971 0.020761 0.041824
O14   O     O_2   0.324303 0.294251 0.816589 -0.601609
C25   C     C_2   0.902329 0.330422 0.721019 0.409575
H27   H     H_    0.803504 0.290325 0.708892 0.081666
O15   O     O_2   0.976589 0.240314 0.733964 -0.619525
C26   C     C_2   0.899201 0.604524 0.858197 0.401326
H28   H     H_    0.920207 0.725997 0.872732 -0.006001
O16   O     O_2   0.835561 0.560966 0.966084 -0.507591

loop_
_geom_bond_atom_site_label_1
_geom_bond_atom_site_label_2
_geom_bond_distance
_ccdc_geom_bond_type
C1    C13   1.481312 S    
C24   O14   1.215465 D    
C23   O13   1.218984 D    
C6    C25   1.530565 S    
O2    C1    1.326631 A    
C10   C12   1.562354 S    
C26   O16   1.218234 D    
C18   H14   1.107668 S    
C19   H18   1.101375 S    
C15   H9    1.083392 S    
C21   H23   1.110547 S    
O8    C4    1.328649 A    
C13   C14   1.375561 D    
Cu2   O8    1.987163 S    
C6    C10   1.607456 S    
N1    N2    1.305175 D    
O11   C19   1.416208 S    
C20   H20   1.102792 S    
N2    H8    1.028389 S    
C8    C12   1.549226 S    
C17   H13   1.088886 S    
C24   H26   1.079826 S    
Cu1   Cu2   2.742284 S    
C16   H11   1.112334 S    
C8    C9    1.545125 S    
C11   O11   1.413656 S    
Cu1   O7    1.979288 S    
Cu1   N2    2.060571 S    
O10   C16   1.418065 S    
Cu2   N1    2.060571 S    
C7    C11   1.567109 S    
O3    Cu1   1.987164 S    
O4    Cu2   1.979288 S    
C5    C6    1.576616 S    
N1    C24   1.416508 S    
C15   O9    1.220049 D    
C21   H22   1.109954 S    
C19   H17   1.096144 S    
C16   C17   1.525390 S    
H2    C7    1.108980 S    
C7    H7    1.109749 S    
C8    H4    1.113178 S    
C4    C10   1.515111 S    
O4    C2    1.310812 A    
O7    C4    1.303290 A    
C25   H27   1.080687 S    
C8    H5    1.091165 S    
C19   C20   1.543841 S    
C17   H12   1.104572 S    
C17   C18   1.524131 S    
C12   O10   1.418339 S    
C23   H25   1.085558 S    
C2    C9    1.481663 S    
C14   C23   1.475322 S    
C12   H6    1.113217 S    
C18   H15   1.103501 S    
C21   H21   1.109931 S    
C6    C26   1.521982 S    
C22   O12   1.218785 D    
O3    C2    1.307407 A    
C5    C9    1.568560 S    
C20   C21   1.537829 S    
C5    C15   1.535743 S    
C16   H10   1.103273 S    
C25   O15   1.219746 D    
H3    C11   1.102054 S    
Cu1   O5    2.033177 S    
C26   H28   1.077214 S    
O5    C3    1.322316 A    
C18   H16   1.106412 S    
C10   C11   1.570819 S    
O1    Cu1   2.032044 S    
C3    C14   1.470338 S    
Cu2   O6    2.032044 S    
O2    Cu2   2.033177 S    
C5    H1    1.103212 S    
C20   H19   1.100500 S    
C7    C9    1.525155 S    
C22   H24   1.086160 S    
O1    C1    1.306959 A    
O6    C3    1.305989 A    
C13   C22   1.481342 S    
