data_mof_unit_26559.cif
_audit_creation_date              2012-12-10T17:29:13-0500
_audit_creation_method            fapswitch 2.2
_symmetry_space_group_name_H-M    P1
_symmetry_Int_Tables_number       1
_space_group_crystal_system       triclinic
_cell_length_a                    12.080599
_cell_length_b                    12.890814
_cell_length_c                    13.202272
_cell_angle_alpha                 86.89838
_cell_angle_beta                  113.922886
_cell_angle_gamma                 92.804656
_cell_volume                      1875.77533056

loop_
_atom_site_label
_atom_site_type_symbol
_atom_type_description
_atom_site_fract_x
_atom_site_fract_y
_atom_site_fract_z
_atom_type_partial_charge
C1    C     C_R   0.477192 0.299729 0.496358 0.907910
C2    C     C_R   0.615285 0.517060 0.829872 -0.182312
C3    C     C_R   0.528701 0.812103 0.486659 -0.072993
C4    C     C_R   0.568413 0.504654 0.708566 0.895762
C5    C     C_R   0.459979 0.189243 0.484666 -0.049425
C6    C     C_R   0.330512 0.034866 0.453201 0.003823
C7    C     C_R   0.347606 0.141340 0.466493 -0.295226
C8    C     C_R   0.555918 0.132278 0.486979 -0.254881
C9    C     C_R   0.543272 0.026230 0.478520 0.153345
C10   C     C_R   0.431122 0.975954 0.464105 0.143872
C11   C     C_R   0.426177 0.868505 0.469038 -0.188795
C12   C     C_R   0.555224 0.505519 0.985433 0.083941
C13   C     C_R   0.636534 0.862447 0.493773 -0.193631
C14   C     C_R   0.643765 0.969734 0.489610 -0.191899
C15   C     C_R   0.008519 0.602640 0.404260 -0.312932
C16   C     C_R   0.520516 0.700521 0.497523 0.895171
C17   C     C_R   0.126880 0.593072 0.411059 0.108077
C18   C     C_R   0.160685 0.453283 0.543976 0.026402
C19   C     C_R   0.038619 0.457971 0.537340 -0.006284
C20   C     C_R   0.963494 0.535824 0.467084 0.050786
C21   C     C_R   0.843618 0.545213 0.459578 -0.067292
C22   C     C_R   0.868048 0.403620 0.587746 0.076068
C23   C     C_R   0.534065 0.543036 0.876864 0.053122
C24   C     C_R   0.987072 0.388711 0.596257 -0.132325
C25   C     C_R   0.432063 0.499523 0.291181 0.875196
C26   C     C_R   0.253682 0.557756 0.986338 -0.203281
C27   C     C_R   0.389255 0.499249 0.170116 -0.120927
C28   C     C_R   0.734096 0.488438 0.901520 -0.000771
C29   C     C_R   0.760415 0.463732 0.012504 -0.165415
C30   C     C_R   0.670972 0.466513 0.052824 -0.198051
C31   C     C_1   0.169811 0.523975 0.124740 0.218395
C32   C     C_2   0.206732 0.991083 0.428700 0.369062
C33   C     C_1   0.819549 0.336743 0.652361 0.259104
C34   C     C_R   0.460938 0.511842 0.022707 0.088646
C35   C     C_1   0.049395 0.298695 0.661646 0.165050
C36   C     C_1   0.167869 0.661520 0.342964 0.290902
C37   C     C_2   0.246101 0.379166 0.621452 0.513313
C38   C     C_1   0.832897 0.489310 0.866542 0.221440
C39   C     C_1   0.437814 0.690474 0.744669 0.173455
C40   C     C_R   0.349313 0.556190 0.952275 0.141708
C41   C     C_R   0.337703 0.605673 0.852599 -0.202410
C42   C     C_R   0.433189 0.606624 0.819623 0.040844
C43   C     C_R   0.476061 0.479764 0.129749 -0.254990
C44   C     C_R   0.272363 0.527894 0.095049 -0.001574
H1    H     H_    0.715802 0.819255 0.505519 0.166518
H2    H     H_    0.698148 0.441405 0.138317 0.138406
H3    H     H_    0.850077 0.439240 0.067965 0.164952
H4    H     H_    0.344819 0.828031 0.466119 0.211172
H5    H     H_    0.149401 0.027539 0.461182 0.068246
H6    H     H_    0.262528 0.307226 0.592102 0.043541
H7    H     H_    0.728912 0.008447 0.498980 0.144463
H8    H     H_    0.272038 0.187191 0.460083 0.146172
H9    H     H_    0.642354 0.169876 0.498678 0.163785
H10   H     H_    0.786233 0.604750 0.405310 0.137697
H11   H     H_    0.951192 0.661938 0.349098 0.159621
H12   H     H_    0.258092 0.650477 0.804897 0.144184
H13   H     H_    0.166112 0.585953 0.929595 0.155361
H14   H     H_    0.558278 0.444869 0.186386 0.162371
N1    N     N_R   0.798200 0.480260 0.519790 -0.123740
N2    N     N_R   0.201820 0.519740 0.480210 -0.155167
N3    N     N_1   0.086435 0.519525 0.147072 -0.232326
N4    N     N_1   0.782324 0.282665 0.704965 -0.203091
N5    N     N_1   0.097853 0.226481 0.713821 -0.177296
N6    N     N_1   0.200080 0.716385 0.287334 -0.163183
N7    N     N_1   0.913310 0.491217 0.840041 -0.213609
N8    N     N_1   0.441611 0.760111 0.687209 -0.216163
O1    O     O_R   0.579910 0.341070 0.505280 -0.626978
O2    O     O_2   0.293587 0.395440 0.720394 -0.566061
O3    O     O_R   0.388440 0.353740 0.492580 -0.652727
O4    O     O_R   0.643280 0.490550 0.663120 -0.609457
O5    O     O_R   0.451810 0.503220 0.650420 -0.582171
O6    O     O_R   0.611560 0.646260 0.507420 -0.626554
O7    O     O_R   0.420090 0.658930 0.494720 -0.625598
O8    O     O_R   0.548190 0.496780 0.349580 -0.622140
O9    O     O_R   0.356720 0.509450 0.336880 -0.615416
O10   O     O_2   0.164391 0.919219 0.366587 -0.576232
Zn1   Zn    Zn3+2 0.627850 0.491540 0.508480 0.954006
Zn2   Zn    Zn3+2 0.372150 0.508460 0.491520 0.967437

loop_
_geom_bond_atom_site_label_1
_geom_bond_atom_site_label_2
_ccdc_geom_bond_type
C6    C32   S    
C41   C42   A    
C31   N3    T    
C19   C20   A    
C16   O6    A    
N1    Zn1   S    
C4    O4    A    
C11   H4    S    
C26   C44   A    
C12   C23   A    
N2    Zn2   S    
C29   C30   A    
C23   C42   A    
C29   H3    S    
C1    C5    S    
C28   C29   A    
C18   C37   S    
C7    H8    S    
C21   N1    A    
C21   H10   S    
C37   O2    D    
C25   O8    A    
C43   H14   S    
C27   C44   A    
C8    C9    A    
O8    Zn1   S    
O1    Zn1   S    
O7    Zn2   S    
C17   C36   S    
C9    C10   A    
C3    C13   A    
C13   C14   A    
O4    Zn1   S    
O3    Zn2   S    
O9    Zn2   S    
C39   C42   S    
C15   C20   A    
C24   C35   S    
C31   C44   S    
C16   O7    A    
C22   N1    A    
C5    C7    A    
C18   C19   A    
C33   N4    T    
C1    O3    A    
C25   O9    A    
C15   H11   S    
C2    C4    S    
C9    C14   A    
C41   H12   S    
C6    C10   A    
O6    Zn1   S    
C14   H7    S    
C38   N7    T    
C28   C38   S    
C18   N2    A    
C40   C41   A    
C39   N8    T    
C34   C40   A    
C12   C34   A    
C15   C17   A    
C22   C33   S    
C12   C30   A    
C30   H2    S    
C34   C43   A    
C8    H9    S    
C32   O10   D    
C5    C8    A    
C2    C28   A    
C6    C7    A    
C25   C27   S    
C19   C24   A    
C13   H1    S    
C37   H6    S    
C26   C40   A    
C1    O1    A    
C22   C24   A    
O5    Zn2   S    
C26   H13   S    
C32   H5    S    
C3    C11   A    
C10   C11   A    
C17   N2    A    
C27   C43   A    
C20   C21   A    
C2    C23   A    
C35   N5    T    
C36   N6    T    
C4    O5    A    
C3    C16   S    
