data_mof_unit_39564.cif
_audit_creation_date              2012-12-10T17:48:55-0500
_audit_creation_method            fapswitch 2.2
_symmetry_space_group_name_H-M    P1
_symmetry_Int_Tables_number       1
_space_group_crystal_system       triclinic
_cell_length_a                    10.727116
_cell_length_b                    14.732622
_cell_length_c                    14.731932
_cell_angle_alpha                 65.027368
_cell_angle_beta                  103.74108
_cell_angle_gamma                 103.157041
_cell_volume                      2028.59239437

loop_
_atom_site_label
_atom_site_type_symbol
_atom_type_description
_atom_site_fract_x
_atom_site_fract_y
_atom_site_fract_z
_atom_type_partial_charge
C1    C     C_R   0.478689 0.119679 0.312252 0.790299
C2    C     C_R   0.504212 0.361942 0.080763 0.100344
C3    C     C_R   0.495723 0.323793 0.005454 0.162122
C4    C     C_R   0.259878 0.999961 0.500040 0.748717
C5    C     C_R   0.528149 0.468512 0.055277 0.020040
C6    C     C_R   0.528548 0.535294 0.952307 0.068232
C7    C     C_R   0.522212 0.494104 0.879709 -0.214045
C8    C     C_R   0.506834 0.390445 0.906200 -0.228518
C9    C     C_R   0.555254 0.509952 0.129884 -0.219433
C10   C     C_R   0.574263 0.614270 0.105174 -0.028990
C11   C     C_R   0.566277 0.681123 0.002115 0.068120
C12   C     C_3   0.877787 0.999129 0.499990 0.144838
C13   C     C_R   0.539266 0.641290 0.925425 0.089411
C14   C     C_R   0.586862 0.787204 0.973136 -0.193377
C15   C     C_R   0.574032 0.852257 0.871345 -0.179027
C16   C     C_R   0.522348 0.880371 0.687824 0.794352
C17   C     C_R   0.520420 0.708826 0.823281 -0.245006
C18   C     C_R   0.714738 0.282511 0.671783 -0.317128
C19   C     C_R   0.681359 0.201983 0.640385 0.075161
C20   C     C_R   0.520336 0.285655 0.509064 0.012505
C21   C     C_R   0.550830 0.370981 0.536433 -0.013846
C22   C     C_R   0.649295 0.367010 0.620572 0.164053
C23   C     C_3   0.958495 0.987309 0.605736 -0.382970
C24   C     C_R   0.486721 0.458750 0.484368 0.107994
C25   C     C_R   0.520103 0.540512 0.518918 0.100668
C26   C     C_R   0.617597 0.531595 0.604236 -0.237545
C27   C     C_R   0.681127 0.446798 0.653455 -0.198784
C28   C     C_R   0.739999 0.999662 0.500089 0.758481
C29   C     C_R   0.391082 0.467646 0.398186 -0.186942
C30   C     C_R   0.328593 0.551880 0.348203 -0.180877
C31   C     C_R   0.358945 0.631179 0.381173 0.112887
C32   C     C_R   0.454699 0.628204 0.466344 -0.009118
C33   C     C_R   0.293719 0.714228 0.327437 -0.271508
C34   C     C_3   0.932728 0.099680 0.419160 -0.366848
C35   C     C_R   0.321913 0.796581 0.355935 0.190054
C36   C     C_R   0.480369 0.713997 0.493375 -0.014152
C37   C     C_3   0.034968 0.910286 0.474827 -0.365531
C38   C     C_3   0.892243 0.909974 0.475020 -0.359389
C39   C     C_3   0.102454 0.987483 0.605734 -0.367908
C40   C     C_3   0.076755 0.099945 0.419271 -0.387729
C41   C     C_3   0.121638 0.999495 0.499991 0.152436
C42   C     C_2   0.596992 0.650132 0.189289 0.360749
C43   C     C_2   0.249942 0.883466 0.291675 0.337902
C44   C     C_R   0.475103 0.187617 0.204948 -0.060995
C45   C     C_R   0.538706 0.813311 0.795879 -0.060820
C46   C     C_R   0.477428 0.219028 0.030475 -0.196755
C47   C     C_R   0.468782 0.151250 0.130011 -0.176852
C48   C     C_R   0.487337 0.291764 0.179026 -0.249972
Cu1   Cu    Cu3+1 0.465900 0.918260 0.475680 0.919426
Cu2   Cu    Cu3+1 0.534100 0.081740 0.524320 0.928987
H1    H     H_    0.064904 0.836828 0.531606 0.175510
H2    H     H_    0.481858 0.315980 0.237201 0.144816
H3    H     H_    0.046003 0.917034 0.398887 0.167008
H4    H     H_    0.533933 0.540112 0.801973 0.138543
H5    H     H_    0.565191 0.462419 0.209469 0.182743
H6    H     H_    0.614651 0.821847 0.027882 0.124202
H7    H     H_    0.755840 0.443470 0.718454 0.143859
H8    H     H_    0.553758 0.718391 0.556030 0.127540
H9    H     H_    0.255801 0.555214 0.282082 0.138797
H10   H     H_    0.790683 0.278417 0.736190 0.139897
H11   H     H_    0.731056 0.136378 0.680557 0.122628
H12   H     H_    0.923864 0.165153 0.435137 0.178577
H13   H     H_    0.444012 0.280355 0.448521 0.116185
H14   H     H_    0.835313 0.916365 0.399285 0.179230
H15   H     H_    0.647453 0.589409 0.634749 0.125561
H16   H     H_    0.362582 0.411208 0.366023 0.117247
H17   H     H_    0.220254 0.714805 0.262336 0.184137
H18   H     H_    0.853935 0.836529 0.532130 0.167720
H19   H     H_    0.134166 0.915583 0.664704 0.154723
H20   H     H_    0.920512 0.915369 0.664773 0.152830
H21   H     H_    0.136630 0.165406 0.435486 0.169423
H22   H     H_    0.089897 0.109804 0.342765 0.152504
H23   H     H_    0.162917 0.050560 0.625856 0.174995
H24   H     H_    0.876097 0.109314 0.342625 0.155584
H25   H     H_    0.572259 0.722287 0.176514 0.065360
H26   H     H_    0.240600 0.938812 0.317902 0.126260
H27   H     H_    0.950340 0.050341 0.625833 0.172263
H28   H     H_    0.503196 0.362325 0.848289 0.149363
H29   H     H_    0.487585 0.681505 0.763195 0.148322
H30   H     H_    0.590550 0.933155 0.851863 0.151055
H31   H     H_    0.472017 0.189606 0.973284 0.137815
H32   H     H_    0.458977 0.070841 0.148501 0.170926
N1    N     N_R   0.585360 0.204570 0.560800 -0.176970
N2    N     N_R   0.414550 0.795430 0.439160 -0.217197
O1    O     O_R   0.455060 0.022100 0.338110 -0.604112
O2    O     O_2   0.197022 0.894259 0.205325 -0.580199
O3    O     O_R   0.512640 0.160150 0.379180 -0.582149
O4    O     O_R   0.288900 0.930980 0.479450 -0.616123
O5    O     O_R   0.346480 0.069030 0.520520 -0.585077
O6    O     O_R   0.487360 0.839850 0.620820 -0.587574
O7    O     O_R   0.544940 0.977900 0.661890 -0.587669
O8    O     O_R   0.653520 0.930970 0.479480 -0.586995
O9    O     O_R   0.711100 0.069020 0.520550 -0.585060
O10   O     O_2   0.642204 0.597909 0.275493 -0.540212

loop_
_geom_bond_atom_site_label_1
_geom_bond_atom_site_label_2
_ccdc_geom_bond_type
C1    O3    A    
C14   H6    S    
C16   O6    A    
C40   H21   S    
C10   C42   S    
C23   H20   S    
C34   H12   S    
Cu1   O6    S    
C7    C8    A    
C39   C41   S    
C12   C23   S    
C42   H25   S    
C29   C30   A    
C12   C28   S    
C34   C40   S    
C32   C36   A    
Cu1   N2    S    
C17   C45   A    
C36   H8    S    
C30   C31   A    
C37   H1    S    
C11   C14   A    
C4    C41   S    
C17   H29   S    
C18   C19   A    
C47   H32   S    
C24   C29   A    
Cu2   O5    S    
C15   H30   S    
C31   C33   A    
C9    H5    S    
C35   C43   S    
C9    C10   A    
C44   C47   A    
C37   H3    S    
C25   C32   A    
C42   O10   D    
C21   C22   A    
C8    H28   S    
C43   O2    D    
Cu1   O4    S    
C19   N1    A    
Cu2   N1    S    
C38   H14   S    
C1    O1    A    
Cu1   O1    S    
C24   C25   A    
C3    C8    A    
C27   H7    S    
C2    C48   A    
C25   C26   A    
C28   O9    A    
C5    C9    A    
C37   C38   S    
C46   H31   S    
C1    C44   S    
C31   C32   A    
C30   H9    S    
C39   H19   S    
C28   O8    A    
C23   H27   S    
Cu2   O3    S    
C34   H24   S    
C18   H10   S    
C40   C41   S    
C38   H18   S    
C22   C27   A    
C26   C27   A    
C21   C24   A    
C2    C5    A    
C15   C45   A    
Cu1   O8    S    
C12   C34   S    
C12   C38   S    
C33   H17   S    
C4    O5    A    
C43   H26   S    
C46   C47   A    
C40   H22   S    
C18   C22   A    
C26   H15   S    
C36   N2    A    
C16   C45   S    
C35   N2    A    
Cu2   O9    S    
C6    C7    A    
C4    O4    A    
C3    C46   A    
C13   C17   A    
C20   H13   S    
C2    C3    A    
C6    C13   A    
C11   C13   A    
C5    C6    A    
C19   H11   S    
C23   C39   S    
C33   C35   A    
C39   H23   S    
C37   C41   S    
C10   C11   A    
C29   H16   S    
Cu2   O7    S    
C48   H2    S    
C20   C21   A    
C16   O7    A    
Cu1   Cu2   S    
C20   N1    A    
C14   C15   A    
C7    H4    S    
C44   C48   A    
