data_mof_unit_58143.cif
_audit_creation_date              2012-12-11T17:08:30-0500
_audit_creation_method            fapswitch 2.2
_symmetry_space_group_name_H-M    P1
_symmetry_Int_Tables_number       1
_space_group_crystal_system       triclinic
_cell_length_a                    6.976525
_cell_length_b                    14.52507
_cell_length_c                    16.094955
_cell_angle_alpha                 89.904899
_cell_angle_beta                  89.69986
_cell_angle_gamma                 89.833011
_cell_volume                      1630.9429321

loop_
_atom_site_label
_atom_site_type_symbol
_atom_type_description
_atom_site_fract_x
_atom_site_fract_y
_atom_site_fract_z
_atom_type_partial_charge
O1    O     O_R   0.505700 0.583890 0.413310 -0.537014
O2    O     O_R   0.175960 0.594920 0.586080 -0.543312
O3    O     O_R   0.005660 0.416110 0.586690 -0.536259
C1    C     C_R   0.344369 0.616809 0.614909 0.696422
O4    O     O_R   0.175980 0.594920 0.413930 -0.543649
O5    O     O_R   0.005680 0.416110 0.413310 -0.543759
C2    C     C_R   0.344795 0.616448 0.384879 0.695669
O6    O     O_R   0.505680 0.583890 0.586690 -0.536229
O7    O     O_3   0.339200 0.441330 0.500000 -0.370659
V1    V     V_3+5 0.064350 0.510880 0.500000 1.386965
O8    O     O_R   0.675960 0.405080 0.413920 -0.540176
C3    C     C_R   0.845658 0.382904 0.385493 0.698727
O9    O     O_R   0.675940 0.405080 0.586070 -0.543087
C4    C     C_R   0.844521 0.383000 0.614656 0.728331
V2    V     V_3+5 0.564340 0.489120 0.500000 1.394717
O10   O     O_3   0.839360 0.558670 0.500000 -0.372380
C5    C     C_R   0.995577 0.320789 0.744855 0.090858
C6    C     C_R   0.851852 0.316561 0.684526 -0.180194
C7    C     C_R   0.708845 0.249079 0.695138 -0.253986
H1    H     H_    0.592628 0.244156 0.651087 0.151122
C8    C     C_R   0.721806 0.182888 0.759181 0.587095
C9    C     C_R   0.876208 0.183980 0.815836 -0.213194
C10   C     C_R   0.006755 0.256486 0.808801 0.000847
C11   C     C_3   0.219781 0.254422 0.805405 -0.360797
C12   C     C_3   0.208299 0.325007 0.735715 -0.372851
H2    H     H_    0.275229 0.186451 0.784966 0.239422
H3    H     H_    0.282819 0.281651 0.863388 0.165769
H4    H     H_    0.258992 0.298190 0.674779 0.180345
H5    H     H_    0.266444 0.393376 0.753360 0.158992
C13   C     C_R   0.715222 0.197237 0.230850 0.023262
C14   C     C_R   0.872808 0.193254 0.177039 -0.153137
C15   C     C_R   0.022318 0.255051 0.192801 -0.153765
H6    H     H_    0.139972 0.259011 0.149827 0.176938
C16   C     C_R   0.016673 0.314771 0.261852 -0.175821
H7    H     H_    0.131047 0.364151 0.269334 0.136300
C17   C     C_R   0.859973 0.314070 0.317799 -0.067486
C18   C     C_R   0.715252 0.249330 0.303734 -0.038955
C19   C     C_3   0.504206 0.264308 0.302668 -0.454325
C20   C     C_3   0.509160 0.222523 0.214975 0.761762
H8    H     H_    0.464779 0.338518 0.303437 0.185119
H9    H     H_    0.437293 0.225879 0.354558 0.131919
C21   C     C_R   0.506766 0.682511 0.741045 0.103416
C22   C     C_R   0.352069 0.682104 0.685749 -0.112692
C23   C     C_R   0.200735 0.743981 0.702080 -0.177064
H10   H     H_    0.077913 0.746167 0.661534 0.135898
C24   C     C_R   0.212538 0.808283 0.767413 -0.160937
H11   H     H_    0.097530 0.857602 0.775383 0.132946
C25   C     C_R   0.376405 0.813007 0.818286 -0.105367
C26   C     C_R   0.518873 0.746357 0.805450 0.091379
C27   C     C_3   0.729024 0.758249 0.792856 -0.408983
C28   C     C_3   0.716027 0.688269 0.723046 -0.394737
H12   H     H_    0.813167 0.733236 0.846874 0.170332
H13   H     H_    0.765200 0.828670 0.770813 0.182144
H14   H     H_    0.791857 0.622636 0.736903 0.166704
H15   H     H_    0.745596 0.717875 0.660560 0.174059
C29   C     C_R   0.511166 0.744401 0.307887 0.107068
C30   C     C_R   0.353183 0.686228 0.317711 -0.110248
C31   C     C_R   0.200010 0.697817 0.261943 -0.177403
H16   H     H_    0.076231 0.653675 0.266485 0.134539
C32   C     C_R   0.211413 0.761725 0.196023 -0.188562
H17   H     H_    0.094776 0.766065 0.152275 0.131756
C33   C     C_R   0.377346 0.815037 0.183343 -0.112859
C34   C     C_R   0.523366 0.806517 0.242127 0.114068
C35   C     C_3   0.731560 0.788667 0.229941 -0.424416
C36   C     C_3   0.718590 0.721052 0.301907 -0.397340
H18   H     H_    0.819765 0.850272 0.244030 0.169866
H19   H     H_    0.761957 0.755035 0.169287 0.169761
H20   H     H_    0.799224 0.743611 0.357643 0.175053
H21   H     H_    0.742307 0.648242 0.283144 0.167669
O11   O     O_R   0.229000 0.916070 0.913330 -0.545092
O12   O     O_R   0.558770 0.905070 0.086080 -0.542223
O13   O     O_R   0.729000 0.083900 0.086690 -0.538083
C37   C     C_R   0.389645 0.882179 0.114062 0.695179
O14   O     O_R   0.558720 0.905070 0.913930 -0.534327
O15   O     O_R   0.728960 0.083900 0.913310 -0.510744
C38   C     C_R   0.390041 0.883185 0.885059 0.730623
O16   O     O_R   0.229050 0.916070 0.086710 -0.541841
O17   O     O_3   0.395460 0.058650 0.000020 -0.364644
V3    V     V_3+5 0.670340 0.989120 0.000000 1.451206
O18   O     O_R   0.058670 0.094960 0.913900 -0.545142
C39   C     C_R   0.889902 0.115541 0.884110 0.752220
O19   O     O_R   0.058720 0.094960 0.086050 -0.529192
C40   C     C_R   0.888027 0.120924 0.111540 0.665395
V4    V     V_3+5 0.170330 0.010930 0.999970 1.438193
O20   O     O_3   0.895340 0.941350 0.999980 -0.381282
O21   O     O_3   0.487094 0.298690 0.159628 -0.596900
C41   C     C_3   0.497243 0.278630 0.073986 0.083455
H22   H     H_    0.357174 0.297518 0.046137 0.123537
H23   H     H_    0.521599 0.205664 0.059537 0.171165
C42   C     C_3   0.654003 0.338046 0.033960 -0.322589
H24   H     H_    0.651748 0.408093 0.061730 0.217944
H25   H     H_    0.796674 0.307078 0.045933 0.173413
C43   C     C_3   0.627052 0.347358 0.940458 -0.854928
H26   H     H_    0.611302 0.278432 0.911962 0.235703
H27   H     H_    0.753416 0.382178 0.912532 0.235284
H28   H     H_    0.497628 0.389419 0.927123 0.228908
O22   O     O_3   0.394952 0.144426 0.193416 -0.581061
C44   C     C_3   0.310002 0.095029 0.260095 0.053026
H29   H     H_    0.203161 0.048013 0.232118 0.158325
H30   H     H_    0.224179 0.139689 0.302005 0.120596
C45   C     C_3   0.454678 0.034647 0.306990 -0.362273
H31   H     H_    0.537630 0.992873 0.261679 0.200004
H32   H     H_    0.557670 0.077178 0.342087 0.189496
C46   C     C_3   0.352951 0.971449 0.368846 -0.814880
H33   H     H_    0.274213 0.012961 0.415891 0.232242
H34   H     H_    0.460230 0.927873 0.401248 0.234064
H35   H     H_    0.250108 0.925911 0.336339 0.231735
F1    F     F_    0.591089 0.113963 0.761819 -0.712106

loop_
_geom_bond_atom_site_label_1
_geom_bond_atom_site_label_2
_ccdc_geom_bond_type
C41   H22   S    
C45   H31   S    
C4    C6    S    
C7    H1    S    
C11   H3    S    
O18   V4    S    
O12   V3    S    
O22   C44   S    
C42   H24   S    
C12   H4    S    
C43   H26   S    
O14   C38   A    
C17   C18   A    
C7    C8    A    
C18   C19   S    
C11   H2    S    
C6    C7    A    
O13   V3    S    
O5    C3    A    
C19   C20   S    
C20   O22   S    
C31   C32   A    
V2    O10   S    
C44   H29   S    
C14   C40   S    
C29   C30   A    
C32   C33   A    
C16   H7    S    
C25   C38   S    
O8    V2    S    
C27   H12   S    
C10   C11   S    
C33   C37   S    
O1    V2    S    
C3    C17   S    
O11   V4    S    
O7    V1    S    
C16   C17   A    
C1    O6    A    
C21   C28   S    
C45   H32   S    
O1    C2    A    
O9    C4    A    
C46   H34   S    
C46   H33   S    
C23   C24   A    
C27   C28   S    
C12   H5    S    
C24   C25   A    
C27   H13   S    
O13   C40   A    
C35   H19   S    
C11   C12   S    
C19   H9    S    
O12   C37   A    
O17   V3    S    
O15   C39   A    
O6    V2    S    
O16   V4    S    
C31   H16   S    
C13   C18   A    
C32   H17   S    
C35   H18   S    
O2    C1    A    
C22   C23   A    
C9    C39   S    
C33   C34   A    
C42   H25   S    
C14   C15   A    
C36   H20   S    
C5    C6    A    
C29   C34   A    
C5    C10   A    
V4    O20   S    
O3    C4    A    
C25   C26   A    
O19   C40   A    
C43   H28   S    
O19   V4    S    
O14   V3    S    
C41   H23   S    
O11   C38   A    
C21   C22   A    
O2    V1    S    
V3    O20   S    
C23   H10   S    
C42   C43   S    
O4    C2    A    
C24   H11   S    
O21   C41   S    
O18   C39   A    
O5    V1    S    
O8    C3    A    
C1    C22   S    
C45   C46   S    
C44   C45   S    
C44   H30   S    
C28   H14   S    
C5    C12   S    
C15   H6    S    
O9    V2    S    
O7    V2    S    
O4    V1    S    
O3    V1    S    
V1    O10   S    
C35   C36   S    
C19   H8    S    
C30   C31   A    
C13   C14   A    
C36   H21   S    
C13   C20   S    
C28   H15   S    
C8    F1    S    
C21   C26   A    
C34   C35   S    
O17   V4    S    
C43   H27   S    
C26   C27   S    
C41   C42   S    
C37   O16   A    
C9    C10   A    
C20   O21   S    
C8    C9    A    
O15   V3    S    
C2    C30   S    
C46   H35   S    
C29   C36   S    
C15   C16   A    
