data_mof_unit_36892.cif
_audit_creation_date              2013-03-05T15:50:04-0500
_audit_creation_method            fapswitch 2.2
_symmetry_space_group_name_H-M    P1
_symmetry_Int_Tables_number       1
_space_group_crystal_system       triclinic
_cell_length_a                    18.286353
_cell_length_b                    25.889102
_cell_length_c                    18.316105
_cell_angle_alpha                 90.144139
_cell_angle_beta                  90.109397
_cell_angle_gamma                 89.857586
_cell_volume                      8671.09027975

loop_
_atom_site_label
_atom_site_type_symbol
_atom_site_description
_atom_site_fract_x
_atom_site_fract_y
_atom_site_fract_z
_atom_type_partial_charge
Zn1   Zn    Zn3+2 0.249990 0.293780 0.913250 0.948438
Zn2   Zn    Zn3+2 0.249990 0.706220 0.086750 0.958875
Zn3   Zn    Zn3+2 0.249990 0.706220 0.913250 0.950081
Zn4   Zn    Zn3+2 0.249990 0.293780 0.086750 0.954477
Zn5   Zn    Zn3+2 0.749990 0.793780 0.413250 0.954515
Zn6   Zn    Zn3+2 0.749990 0.206220 0.586750 0.943075
Zn7   Zn    Zn3+2 0.749990 0.206220 0.413250 0.952816
Zn8   Zn    Zn3+2 0.749990 0.793780 0.586750 0.937937
Zn9   Zn    Zn3+2 0.336760 0.206240 0.000000 0.956042
Zn10  Zn    Zn3+2 0.336760 0.793760 0.000000 0.954889
Zn11  Zn    Zn3+2 0.836760 0.706240 0.500000 0.963759
Zn12  Zn    Zn3+2 0.836760 0.293760 0.500000 0.965544
Zn13  Zn    Zn3+2 0.163250 0.206230 0.000000 0.947661
Zn14  Zn    Zn3+2 0.163250 0.793770 0.000000 0.952937
Zn15  Zn    Zn3+2 0.663250 0.706230 0.500000 0.961836
Zn16  Zn    Zn3+2 0.663250 0.293770 0.500000 0.951632
O1    O     O_3   0.249990 0.250010 0.000000 -0.482723
O2    O     O_3   0.249990 0.749990 0.000000 -0.484274
O3    O     O_3   0.749990 0.750010 0.500000 -0.484554
O4    O     O_3   0.749990 0.249990 0.500000 -0.484054
O5    O     O_R   0.335430 0.280650 0.146160 -0.638872
O6    O     O_R   0.335430 0.719350 0.853840 -0.646716
O7    O     O_R   0.335430 0.719350 0.146160 -0.629795
O8    O     O_R   0.335430 0.280650 0.853840 -0.642204
O9    O     O_R   0.835430 0.780650 0.646160 -0.656221
O10   O     O_R   0.835430 0.219350 0.353840 -0.639773
O11   O     O_R   0.835430 0.219350 0.646160 -0.647926
O12   O     O_R   0.835430 0.780650 0.353840 -0.637228
O13   O     O_R   0.164550 0.280640 0.853840 -0.638497
O14   O     O_R   0.164550 0.719360 0.146160 -0.635385
O15   O     O_R   0.164550 0.719360 0.853840 -0.637142
O16   O     O_R   0.164550 0.280640 0.146160 -0.638944
O17   O     O_R   0.664550 0.780640 0.353840 -0.635549
O18   O     O_R   0.664550 0.219360 0.646160 -0.635215
O19   O     O_R   0.664550 0.219360 0.353840 -0.642300
O20   O     O_R   0.664550 0.780640 0.646160 -0.644692
O21   O     O_R   0.396160 0.219380 0.914560 -0.635080
O22   O     O_R   0.396160 0.780620 0.085440 -0.644953
O23   O     O_R   0.396160 0.780620 0.914560 -0.636926
O24   O     O_R   0.396160 0.219380 0.085440 -0.645976
O25   O     O_R   0.896160 0.719380 0.414560 -0.640226
O26   O     O_R   0.896160 0.280620 0.585440 -0.632858
O27   O     O_R   0.896160 0.280620 0.414560 -0.632806
O28   O     O_R   0.896160 0.719380 0.585440 -0.627998
O29   O     O_R   0.103840 0.219370 0.085450 -0.632681
O30   O     O_R   0.103840 0.780630 0.914550 -0.638608
O31   O     O_R   0.103840 0.780630 0.085450 -0.640123
O32   O     O_R   0.103840 0.219370 0.914550 -0.644400
O33   O     O_R   0.603840 0.719370 0.585450 -0.639653
O34   O     O_R   0.603840 0.280630 0.414550 -0.639731
O35   O     O_R   0.603840 0.280630 0.585450 -0.646182
O36   O     O_R   0.603840 0.719370 0.414550 -0.635715
O37   O     O_R   0.310730 0.133160 0.000000 -0.638872
O38   O     O_R   0.310730 0.866840 0.000000 -0.639113
O39   O     O_R   0.810730 0.633160 0.500000 -0.637807
O40   O     O_R   0.810730 0.366840 0.500000 -0.636367
O41   O     O_R   0.249970 0.366860 0.060720 -0.644413
O42   O     O_R   0.249970 0.633140 0.939280 -0.643876
O43   O     O_R   0.249970 0.633140 0.060720 -0.648340
O44   O     O_R   0.249970 0.366860 0.939280 -0.648555
O45   O     O_R   0.749970 0.866860 0.560720 -0.649592
O46   O     O_R   0.749970 0.133140 0.439280 -0.642765
O47   O     O_R   0.749970 0.133140 0.560720 -0.651299
O48   O     O_R   0.749970 0.866860 0.439280 -0.645899
O49   O     O_R   0.189290 0.133150 0.000000 -0.655652
O50   O     O_R   0.189290 0.866850 0.000000 -0.651674
O51   O     O_R   0.689290 0.633150 0.500000 -0.638413
O52   O     O_R   0.689290 0.366850 0.500000 -0.644530
C1    C     C_R   0.390104 0.250173 0.139497 0.777806
C2    C     C_R   0.389820 0.749980 0.860147 0.778533
C3    C     C_R   0.389734 0.750056 0.139785 0.783438
C4    C     C_R   0.389900 0.249965 0.860299 0.785730
C5    C     C_R   0.889834 0.749876 0.639775 0.783892
C6    C     C_R   0.890174 0.249564 0.360627 0.785706
C7    C     C_R   0.889934 0.249994 0.639589 0.784431
C8    C     C_R   0.889688 0.749612 0.359951 0.780492
C9    C     C_R   0.110020 0.250387 0.860406 0.788822
C10   C     C_R   0.110443 0.750368 0.139988 0.787006
C11   C     C_R   0.110197 0.750110 0.860181 0.787986
C12   C     C_R   0.110030 0.250239 0.139698 0.791790
C13   C     C_R   0.610341 0.749895 0.360146 0.786727
C14   C     C_R   0.610173 0.250038 0.639810 0.789144
C15   C     C_R   0.610234 0.250067 0.360057 0.785694
C16   C     C_R   0.610355 0.749898 0.640021 0.785368
C17   C     C_R   0.249798 0.109285 0.998549 0.790952
C18   C     C_R   0.249813 0.890700 0.999068 0.787438
C19   C     C_R   0.749993 0.609350 0.500492 0.790610
C20   C     C_R   0.749675 0.390710 0.501659 0.790222
C21   C     C_R   0.249976 0.391377 0.000144 0.740444
C22   C     C_R   0.249931 0.608613 0.000023 0.740036
C23   C     C_R   0.750158 0.891374 0.500163 0.740039
C24   C     C_R   0.750156 0.108611 0.500046 0.739640
C25   C     C_3   0.250463 0.470458 0.079839 -0.374106
C26   C     C_3   0.180885 0.529892 0.960892 -0.375168
C27   C     C_3   0.250145 0.529838 0.079743 -0.372849
C28   C     C_3   0.180730 0.470105 0.961339 -0.377789
C29   C     C_3   0.751679 0.970436 0.579959 -0.379381
C30   C     C_3   0.680838 0.029894 0.461846 -0.390516
C31   C     C_3   0.751623 0.029828 0.579874 -0.377644
C32   C     C_3   0.680800 0.970129 0.461983 -0.387583
H1    H     H_    0.299872 0.456397 0.109409 0.180131
H2    H     H_    0.179388 0.543809 0.903469 0.186389
H3    H     H_    0.299215 0.544097 0.109625 0.180922
H4    H     H_    0.178537 0.455553 0.904149 0.185293
H5    H     H_    0.801305 0.956259 0.609086 0.173918
H6    H     H_    0.678519 0.043962 0.404519 0.184618
H7    H     H_    0.801177 0.044000 0.609042 0.168990
H8    H     H_    0.678370 0.955744 0.404719 0.184907
H9    H     H_    0.201634 0.456351 0.109981 0.187916
H10   H     H_    0.130734 0.544605 0.988378 0.176458
H11   H     H_    0.200969 0.544022 0.109525 0.187958
H12   H     H_    0.130812 0.456020 0.989618 0.176881
H13   H     H_    0.703086 0.956428 0.610554 0.182742
H14   H     H_    0.631044 0.044468 0.490122 0.159483
H15   H     H_    0.702973 0.044097 0.610396 0.182660
H16   H     H_    0.631011 0.955909 0.490359 0.165907
H17   H     H_    0.160541 0.905001 0.890375 0.165096
H18   H     H_    0.155014 0.094272 0.893766 0.164491
H19   H     H_    0.680265 0.406139 0.622030 0.150238
H20   H     H_    0.702724 0.596431 0.629251 0.138971
H21   H     H_    0.369092 0.455369 0.987800 0.149827
H22   H     H_    0.320211 0.543877 0.903428 0.181255
H23   H     H_    0.369065 0.543961 0.988412 0.151054
H24   H     H_    0.319638 0.455655 0.903179 0.181004
H25   H     H_    0.869318 0.955427 0.487106 0.145034
H26   H     H_    0.819377 0.043774 0.402723 0.185604
H27   H     H_    0.869303 0.044042 0.487115 0.145617
H28   H     H_    0.819320 0.955525 0.402784 0.184607
C33   C     C_3   0.318648 0.469900 0.960557 -0.394839
C34   C     C_3   0.318767 0.529682 0.960714 -0.392811
C35   C     C_3   0.818688 0.969874 0.460112 -0.398808
C36   C     C_3   0.818704 0.029671 0.460065 -0.394173
C37   C     C_3   0.249977 0.449135 0.000465 0.180136
C38   C     C_3   0.249934 0.550837 0.000288 0.178523
C39   C     C_3   0.750339 0.949128 0.500562 0.193609
C40   C     C_3   0.750338 0.050831 0.500406 0.193471
H29   H     H_    0.155795 0.107716 0.691401 0.122533
H30   H     H_    0.104829 0.918859 0.261918 0.134573
H31   H     H_    0.195509 0.848686 0.649733 0.132866
H32   H     H_    0.171612 0.120475 0.323410 0.130755
H33   H     H_    0.652687 0.605460 0.192855 0.134031
H34   H     H_    0.401178 0.147978 0.556308 0.130923
H35   H     H_    0.371267 0.216140 0.471261 0.144855
H36   H     H_    0.724754 0.725187 0.879825 0.143796
C41   C     C_R   0.015847 0.338651 0.840741 -0.200485
C42   C     C_R   0.026374 0.659236 0.166386 -0.185470
C43   C     C_R   0.973710 0.698443 0.883962 -0.190275
C44   C     C_R   0.989609 0.321895 0.134196 -0.187141
C45   C     C_R   0.499704 0.828493 0.358294 -0.192186
C46   C     C_R   0.635744 0.299223 0.778231 -0.183867
C47   C     C_R   0.649164 0.263232 0.208568 -0.194249
C48   C     C_R   0.459248 0.766714 0.602035 -0.185071
C49   C     C_R   0.972245 0.382313 0.829310 0.069439
C50   C     C_R   0.989744 0.613471 0.181980 0.076935
C51   C     C_R   0.908114 0.672163 0.895424 0.077042
C52   C     C_R   0.930930 0.356543 0.130969 0.080869
C53   C     C_R   0.445555 0.866628 0.358490 0.090244
C54   C     C_R   0.649087 0.322504 0.845824 0.095231
C55   C     C_R   0.668754 0.265527 0.135053 0.056600
C56   C     C_R   0.385881 0.772082 0.582452 0.060484
C57   C     C_R   0.390732 0.865880 0.305606 -0.187507
C58   C     C_R   0.595505 0.321791 0.899604 -0.199230
C59   C     C_R   0.614810 0.265972 0.081795 -0.194080
C60   C     C_R   0.332372 0.771517 0.636039 -0.193635
C61   C     C_R   0.915863 0.380687 0.778222 -0.144204
C62   C     C_R   0.938571 0.612495 0.237894 -0.179354
C63   C     C_R   0.855037 0.671264 0.840831 -0.207653
C64   C     C_R   0.877198 0.355628 0.184586 -0.169594
C65   C     C_R   0.390535 0.827687 0.251843 -0.166122
C66   C     C_R   0.528794 0.297699 0.886473 -0.184980
C67   C     C_R   0.541537 0.263771 0.101480 -0.169508
C68   C     C_R   0.351809 0.765826 0.709032 -0.167586
C69   C     C_R   0.904541 0.336307 0.736687 -0.161432
C70   C     C_R   0.922553 0.657269 0.277192 -0.169967
C71   C     C_R   0.866789 0.697106 0.775275 -0.175390
C72   C     C_R   0.881943 0.320635 0.241874 -0.164427
C73   C     C_R   0.445380 0.788997 0.250113 0.081427
C74   C     C_R   0.514116 0.273599 0.818629 0.081273
C75   C     C_R   0.520400 0.256619 0.175273 0.074436
C76   C     C_R   0.425628 0.757382 0.730085 0.074639
C77   C     C_R   0.951987 0.293217 0.742980 0.068631
C78   C     C_R   0.960846 0.703850 0.264012 0.073950
C79   C     C_R   0.932804 0.724066 0.762533 0.078442
C80   C     C_R   0.940949 0.285324 0.246561 0.082322
C81   C     C_R   0.007423 0.293910 0.796703 0.054166
C82   C     C_R   0.014314 0.704536 0.208549 0.057187
C83   C     C_R   0.987123 0.724491 0.817370 0.054272
C84   C     C_R   0.995399 0.285778 0.191947 0.056837
C85   C     C_R   0.500310 0.789167 0.304350 0.058227
C86   C     C_R   0.568364 0.274162 0.763851 0.057214
C87   C     C_R   0.574958 0.256525 0.229779 0.055659
C88   C     C_R   0.480183 0.757655 0.675720 0.055312
C89   C     C_R   0.446003 0.750090 0.195827 -0.142244
C90   C     C_R   0.446215 0.249634 0.804352 -0.154688
C91   C     C_R   0.446322 0.249681 0.195458 -0.157847
C92   C     C_R   0.446007 0.750052 0.804059 -0.162382
C93   C     C_R   0.946802 0.250526 0.695027 -0.153010
C94   C     C_R   0.946561 0.749555 0.304400 -0.151057
C95   C     C_R   0.946247 0.749321 0.695602 -0.154220
C96   C     C_R   0.946265 0.249684 0.304524 -0.142829
C97   C     C_R   0.500601 0.711364 0.194805 0.074812
C98   C     C_R   0.432713 0.224294 0.737304 0.068766
C99   C     C_R   0.426072 0.240717 0.268824 0.071658
C100  C     C_R   0.520189 0.743355 0.824593 0.077549
C101  C     C_R   0.000580 0.211250 0.695154 0.077672
C102  C     C_R   0.987424 0.795122 0.292391 0.078068
C103  C     C_R   0.013837 0.773693 0.681703 0.076280
C104  C     C_R   0.005685 0.214888 0.309558 0.071765
C105  C     C_R   0.054514 0.210998 0.750418 0.082790
C106  C     C_R   0.041756 0.795471 0.237721 0.071285
C107  C     C_R   0.067404 0.775300 0.737218 0.091075
C108  C     C_R   0.060190 0.215240 0.254983 0.075028
C109  C     C_R   0.555000 0.711143 0.249607 0.070591
C110  C     C_R   0.487431 0.223973 0.682968 0.074346
C111  C     C_R   0.480340 0.241328 0.323613 0.071788
C112  C     C_R   0.574713 0.743183 0.770184 0.080176
C113  C     C_R   0.054829 0.250859 0.803271 -0.146422
C114  C     C_R   0.054130 0.750338 0.195779 -0.146780
C115  C     C_R   0.053874 0.750251 0.804260 -0.140735
C116  C     C_R   0.054215 0.250309 0.196209 -0.141085
C117  C     C_R   0.554236 0.749968 0.303979 -0.139090
C118  C     C_R   0.554157 0.249911 0.696058 -0.148452
C119  C     C_R   0.554246 0.249917 0.303766 -0.154411
C120  C     C_R   0.554245 0.750139 0.696144 -0.155447
C121  C     C_R   0.502605 0.672956 0.139594 -0.159224
C122  C     C_R   0.366199 0.197922 0.723939 -0.140098
C123  C     C_R   0.352804 0.229242 0.288577 -0.145963
C124  C     C_R   0.541355 0.735481 0.898444 -0.153365
C125  C     C_R   0.003866 0.173520 0.639120 -0.149721
C126  C     C_R   0.977037 0.840087 0.335624 -0.150753
C127  C     C_R   0.028829 0.797407 0.613726 -0.167945
C128  C     C_R   0.012274 0.179825 0.368445 -0.145277
C129  C     C_R   0.557079 0.635204 0.139144 -0.151351
C130  C     C_R   0.355065 0.170958 0.658965 -0.133860
C131  C     C_R   0.333479 0.221050 0.361004 -0.144645
C132  C     C_R   0.614526 0.730170 0.917953 -0.154112
C133  C     C_R   0.060136 0.137110 0.637404 -0.146754
C134  C     C_R   0.018657 0.884296 0.324090 -0.151723
C135  C     C_R   0.094205 0.823716 0.602351 -0.151951
C136  C     C_R   0.071692 0.146159 0.373129 -0.141047
C137  C     C_R   0.112672 0.136431 0.692377 -0.137700
C138  C     C_R   0.072037 0.884628 0.270292 -0.135872
C139  C     C_R   0.145622 0.827104 0.658094 -0.166862
C140  C     C_R   0.125435 0.146581 0.319535 -0.151362
C141  C     C_R   0.610414 0.634817 0.193337 -0.128902
C142  C     C_R   0.409483 0.169763 0.606133 -0.158953
C143  C     C_R   0.386540 0.222561 0.415073 -0.148646
C144  C     C_R   0.668052 0.730138 0.864542 -0.149097
C145  C     C_R   0.109584 0.172429 0.748976 -0.137098
C146  C     C_R   0.084051 0.840753 0.227770 -0.144484
C147  C     C_R   0.133058 0.802768 0.724658 -0.142675
C148  C     C_R   0.119991 0.180606 0.260907 -0.152943
C149  C     C_R   0.609709 0.672305 0.248087 -0.142384
C150  C     C_R   0.474736 0.196382 0.617309 -0.152538
C151  C     C_R   0.459340 0.231420 0.396871 -0.146777
C152  C     C_R   0.648608 0.734983 0.791373 -0.126553
H37   H     H_    0.058137 0.341014 0.882044 0.133132
H38   H     H_    0.064383 0.658661 0.121191 0.134519
H39   H     H_    0.014084 0.697933 0.927312 0.125281
H40   H     H_    0.030300 0.323458 0.091348 0.118032
H41   H     H_    0.540901 0.829831 0.400832 0.118555
H42   H     H_    0.678327 0.301051 0.737300 0.117706
H43   H     H_    0.692985 0.266003 0.247985 0.149738
H44   H     H_    0.499026 0.770015 0.558757 0.147750
H45   H     H_    0.347888 0.894869 0.305925 0.132779
H46   H     H_    0.604664 0.341022 0.951407 0.132116
H47   H     H_    0.629577 0.267735 0.024743 0.152785
H48   H     H_    0.275384 0.775859 0.621336 0.153444
H49   H     H_    0.881058 0.414088 0.769681 0.146914
H50   H     H_    0.911018 0.576926 0.250961 0.145733
H51   H     H_    0.804346 0.650505 0.848915 0.131288
H52   H     H_    0.830691 0.381443 0.181333 0.125023
H53   H     H_    0.346841 0.828755 0.211941 0.118074
H54   H     H_    0.488552 0.299024 0.929625 0.118835
H55   H     H_    0.502394 0.266863 0.057586 0.151615
H56   H     H_    0.307861 0.768405 0.748115 0.152817
H57   H     H_    0.859990 0.337063 0.697748 0.131678
H58   H     H_    0.880354 0.654516 0.318174 0.144316
H59   H     H_    0.824019 0.695100 0.734464 0.122514
H60   H     H_    0.838559 0.321372 0.281980 0.113844
H61   H     H_    0.462464 0.671816 0.096122 0.111858
H62   H     H_    0.322662 0.197114 0.763861 0.118801
H63   H     H_    0.309537 0.225588 0.248673 0.138153
H64   H     H_    0.502229 0.732255 0.942222 0.143663
H65   H     H_    0.964108 0.172457 0.595300 0.109912
H66   H     H_    0.937662 0.841542 0.379539 0.128657
H67   H     H_    0.989785 0.796857 0.569278 0.124872
H68   H     H_    0.971897 0.178212 0.411513 0.110555
H69   H     H_    0.062433 0.108906 0.593732 0.117577
H70   H     H_    0.009932 0.918259 0.357601 0.127731
H71   H     H_    0.104388 0.842336 0.550517 0.138458
H72   H     H_    0.076090 0.119704 0.418621 0.123652
H73   H     H_    0.557938 0.606179 0.096494 0.128103
H74   H     H_    0.304269 0.150495 0.649909 0.131054
H75   H     H_    0.277192 0.212906 0.375078 0.145312
H76   H     H_    0.629548 0.724744 0.974630 0.144796
H77   H     H_    0.152013 0.170610 0.790158 0.105187
H78   H     H_    0.127445 0.842733 0.187872 0.131792
H79   H     H_    0.174839 0.806273 0.766277 0.106136
H80   H     H_    0.163226 0.179614 0.220646 0.111404
H81   H     H_    0.652625 0.670635 0.288798 0.115620
H82   H     H_    0.515426 0.194331 0.574579 0.112729
H83   H     H_    0.498431 0.229572 0.441022 0.141564
H84   H     H_    0.692459 0.731791 0.752272 0.138667
C153  C     C_R   0.325837 0.053850 0.110684 -0.141606
C154  C     C_R   0.326958 0.946731 0.110416 -0.145840
C155  C     C_R   0.778296 0.553155 0.369251 -0.148207
C156  C     C_R   0.784775 0.445684 0.371304 -0.139201
C157  C     C_R   0.364352 0.027224 0.164305 -0.145122
C158  C     C_R   0.365142 0.973744 0.164000 -0.148472
C159  C     C_R   0.790278 0.525773 0.304856 -0.160186
C160  C     C_R   0.795161 0.472289 0.306159 -0.128675
C161  C     C_R   0.289195 0.972986 0.053489 0.070166
C162  C     C_R   0.288909 0.027251 0.053469 0.070740
C163  C     C_R   0.768107 0.472585 0.436729 0.072230
C164  C     C_R   0.766609 0.526919 0.436000 0.076424
C165  C     C_R   0.248998 0.946338 0.999041 -0.147826
C166  C     C_R   0.248610 0.053627 0.998955 -0.147621
C167  C     C_R   0.748045 0.446407 0.501189 -0.135686
C168  C     C_R   0.749262 0.553728 0.500819 -0.133282
C169  C     C_R   0.203893 0.972756 0.948113 0.052935
C170  C     C_R   0.203006 0.026912 0.948590 0.057160
C171  C     C_R   0.719834 0.473423 0.562378 0.053624
C172  C     C_R   0.723385 0.527640 0.563262 0.054988
C173  C     C_R   0.157891 0.946328 0.897794 -0.210173
C174  C     C_R   0.154544 0.052902 0.900094 -0.231621
C175  C     C_R   0.685375 0.447739 0.621292 -0.235533
C176  C     C_R   0.697945 0.554830 0.625387 -0.208656
C177  C     C_R   0.102418 0.972126 0.859914 0.001889
C178  C     C_R   0.099591 0.026427 0.862065 0.004607
C179  C     C_R   0.652155 0.475426 0.678245 0.016081
C180  C     C_R   0.660582 0.529528 0.681198 0.015317
H85   H     H_    0.324099 0.095335 0.116499 0.143678
H86   H     H_    0.326317 0.905245 0.115930 0.142530
H87   H     H_    0.775219 0.594810 0.365496 0.109721
H88   H     H_    0.786799 0.403944 0.368941 0.121894
H89   H     H_    0.392470 0.048221 0.207114 0.140089
H90   H     H_    0.394272 0.953104 0.206329 0.144177
H91   H     H_    0.794940 0.546062 0.253539 0.129613
H92   H     H_    0.805256 0.451367 0.256119 0.130005
C181  C     C_R   0.035884 0.056206 0.833225 0.100619
C182  C     C_R   0.009305 0.048680 0.761906 -0.118696
C183  C     C_R   0.946110 0.074188 0.738196 -0.111061
C184  C     C_R   0.910531 0.109145 0.784228 -0.100383
C185  C     C_R   0.937754 0.118336 0.854312 -0.127608
C186  C     C_R   0.999753 0.091839 0.878931 -0.133549
H93   H     H_    0.038181 0.024175 0.723864 0.116977
H94   H     H_    0.925793 0.067814 0.683369 0.116278
H95   H     H_    0.862397 0.129542 0.765269 0.147931
H96   H     H_    0.910455 0.145688 0.889843 0.145525
H97   H     H_    0.018974 0.098628 0.934091 0.152410
C187  C     C_R   0.042945 0.941127 0.827323 0.108843
C188  C     C_R   0.982068 0.927896 0.869875 -0.108252
C189  C     C_R   0.923683 0.900866 0.838681 -0.128537
C190  C     C_R   0.925184 0.887820 0.764639 -0.114845
C191  C     C_R   0.985655 0.900978 0.722120 -0.121106
C192  C     C_R   0.045477 0.926091 0.753767 -0.174239
H98   H     H_    0.979623 0.938962 0.926891 0.134891
H99   H     H_    0.876801 0.890758 0.871616 0.138872
H100  H     H_    0.879381 0.867800 0.740121 0.153741
H101  H     H_    0.985860 0.892109 0.664467 0.135695
H102  H     H_    0.092261 0.935781 0.720359 0.124491
C193  C     C_R   0.626092 0.560794 0.739327 0.105563
C194  C     C_R   0.549884 0.567665 0.740370 -0.109851
C195  C     C_R   0.516395 0.591749 0.799996 -0.136966
C196  C     C_R   0.558704 0.608711 0.858899 -0.095558
C197  C     C_R   0.634764 0.603147 0.857270 -0.119639
C198  C     C_R   0.668577 0.579778 0.797269 -0.202837
H103  H     H_    0.516453 0.553066 0.696056 0.136150
H104  H     H_    0.457563 0.596359 0.801208 0.135479
H105  H     H_    0.532504 0.626079 0.905867 0.115272
H106  H     H_    0.667455 0.616395 0.902902 0.131789
H107  H     H_    0.727337 0.574446 0.797322 0.133859
C199  C     C_R   0.602074 0.448303 0.729137 0.093019
C200  C     C_R   0.608670 0.454446 0.805171 -0.118431
C201  C     C_R   0.553221 0.437243 0.851482 -0.130574
C202  C     C_R   0.492188 0.411974 0.822642 -0.099286
C203  C     C_R   0.487261 0.402917 0.747602 -0.117989
C204  C     C_R   0.541770 0.421128 0.700917 -0.159030
H108  H     H_    0.655511 0.474006 0.828406 0.138135
H109  H     H_    0.557667 0.443353 0.909794 0.123418
H110  H     H_    0.449334 0.398628 0.858598 0.122445
H111  H     H_    0.440484 0.382639 0.725464 0.143146
H112  H     H_    0.535421 0.415884 0.642564 0.148134
C205  C     C_1   0.987694 0.429797 0.867363 0.154975
N1    N     N_1   0.000329 0.468170 0.897331 -0.195227
C206  C     C_1   0.004930 0.567331 0.140443 0.145472
N2    N     N_1   0.017169 0.530291 0.107081 -0.205518
C207  C     C_1   0.895397 0.645842 0.963393 0.131754
N3    N     N_1   0.885111 0.624717 0.018007 -0.202118
C208  C     C_1   0.924972 0.393035 0.072234 0.145794
N4    N     N_1   0.919503 0.422610 0.025340 -0.174428
C209  C     C_1   0.445850 0.906242 0.413827 0.115643
N5    N     N_1   0.446161 0.938055 0.458325 -0.223571
C210  C     C_1   0.717502 0.348004 0.860015 0.121798
N6    N     N_1   0.772296 0.368627 0.871936 -0.202241
C211  C     C_1   0.744471 0.265812 0.113655 0.146374
N7    N     N_1   0.805119 0.265503 0.095783 -0.185178
C212  C     C_1   0.365241 0.778001 0.507008 0.148487
N8    N     N_1   0.348295 0.782503 0.446460 -0.186586

loop_
_geom_bond_atom_site_label_1
_geom_bond_atom_site_label_2
_geom_bond_distance
_ccdc_geom_bond_type
C162  C166  1.415774 A    
C87   C119  1.418666 A    
C94   C102  1.415874 A    
C109  C149  1.416908 A    
C148  H80   1.082379 S    
C176  C180  1.396119 A    
C149  H81   1.082359 S    
C99   C123  1.420784 A    
C75   C91   1.416818 A    
C97   C121  1.416899 A    
O26   C7    1.276771 A    
C154  C158  1.391479 A    
C73   C89   1.413615 A    
C66   C74   1.414610 A    
C130  H74   1.082758 S    
C99   C111  1.410063 A    
C182  H93   1.079031 S    
C4    C90   1.454157 S    
O30   C11   1.274964 A    
C22   C38   1.495786 S    
C30   H14   1.113019 S    
C91   C99   1.414424 A    
C51   C207  1.440294 S    
C136  C140  1.390434 A    
C89   C97   1.413277 A    
C157  H89   1.082759 S    
C70   H58   1.080168 S    
C210  N6    1.156699 T    
Zn12  O26   1.933628 S    
C110  C118  1.413993 A    
C51   C63   1.392377 A    
C19   C168  1.440111 S    
H34   C142  1.082276 S    
C55   C211  1.439766 S    
C20   C167  1.442218 S    
C173  C177  1.397415 A    
C197  H106  1.082244 S    
C92   C100  1.417346 A    
C43   C51   1.396981 A    
C76   C92   1.417644 A    
C32   C39   1.551436 S    
H29   C137  1.082535 S    
C96   C104  1.412745 A    
C34   C38   1.551711 S    
C179  C199  1.486750 S    
C44   H40   1.083405 S    
O11   C7    1.281456 A    
C154  H86   1.079103 S    
C45   H41   1.083293 S    
O34   C15   1.277487 A    
C136  H72   1.082678 S    
C167  C171  1.416997 A    
C62   C70   1.393709 A    
C41   H37   1.082528 S    
C171  C172  1.405338 A    
C137  C145  1.393378 A    
C98   C122  1.416892 A    
Zn1   O44   1.949959 S    
C25   H1    1.113403 S    
C182  C183  1.398521 A    
C18   C165  1.440451 S    
C108  C116  1.413896 A    
C141  C149  1.393853 A    
C153  C162  1.422820 A    
Zn5   O48   1.949959 S    
H32   C140  1.082605 S    
Zn6   O47   1.949960 S    
C112  C120  1.417939 A    
Zn7   O46   1.952286 S    
C46   C86   1.417875 A    
C60   H48   1.081499 S    
C11   C115  1.451158 S    
C190  C191  1.397063 A    
C42   C50   1.392989 A    
Zn16  O4    1.947205 S    
C187  C188  1.403773 A    
Zn12  O4    1.952088 S    
Zn1   O13   1.932654 S    
C98   C110  1.412611 A    
C26   C28   1.547881 S    
Zn4   O16   1.936972 S    
O41   C21   1.279630 A    
C104  C128  1.416239 A    
C9    C113  1.452535 S    
C33   C37   1.552100 S    
C6    C96   1.453294 S    
C28   H4    1.112974 S    
C207  N3    1.157196 T    
C125  C133  1.394081 A    
C206  N2    1.157398 T    
C56   C60   1.387377 A    
C31   H7    1.113534 S    
C71   C79   1.415973 A    
C72   C80   1.415095 A    
C184  H95   1.082399 S    
C71   H59   1.082087 S    
C200  C201  1.397639 A    
C14   C118  1.454214 S    
C44   C84   1.417193 A    
C135  H71   1.082504 S    
C209  N5    1.157256 T    
C45   C85   1.416989 A    
C30   H6    1.112940 S    
Zn10  O22   1.933628 S    
C49   C205  1.439963 S    
C132  H76   1.082743 S    
C105  C113  1.413195 A    
C202  H110  1.082435 S    
C48   C88   1.422045 A    
C133  H69   1.082493 S    
C195  C196  1.396956 A    
O25   C8    1.276734 A    
Zn13  O29   1.935850 S    
C129  C141  1.390273 A    
C204  H112  1.083101 S    
C15   C119  1.451630 S    
Zn10  O2    1.952088 S    
C31   C40   1.555186 S    
O29   C12   1.278589 A    
C171  C175  1.418413 A    
C199  C204  1.406426 A    
Zn15  O33   1.935850 S    
C151  H83   1.079368 S    
C152  H84   1.079032 S    
C67   H55   1.078392 S    
C75   C87   1.410048 A    
C26   H2    1.112888 S    
C169  C170  1.402117 A    
C41   C81   1.418336 A    
C135  C139  1.389415 A    
O48   C23   1.281713 A    
C203  C204  1.398076 A    
C156  H88   1.081898 S    
C196  H105  1.081835 S    
C130  C142  1.389597 A    
C194  H103  1.083103 S    
C175  C179  1.402666 A    
C193  C198  1.402696 A    
C132  C144  1.385181 A    
C101  C125  1.416323 A    
Zn16  O35   1.938181 S    
C77   C93   1.413256 A    
C70   C78   1.417472 A    
C186  H97   1.083159 S    
C200  H108  1.082082 S    
C82   C114  1.413222 A    
C191  H101  1.080097 S    
Zn7   O10   1.936928 S    
O33   C16   1.278257 A    
C25   C37   1.553826 S    
C86   C118  1.413928 A    
C78   C82   1.411471 A    
O40   C20   1.275120 A    
C52   C64   1.390793 A    
C212  N8    1.157014 T    
C1    C91   1.450366 S    
C194  C195  1.397763 A    
C26   H10   1.112947 S    
C185  H96   1.082284 S    
C102  C106  1.412012 A    
C199  C200  1.406300 A    
C153  H85   1.079408 S    
C80   C96   1.411375 A    
Zn5   O17   1.932654 S    
H33   C141  1.082739 S    
H31   C139  1.082285 S    
C150  H82   1.082037 S    
C57   C65   1.393737 A    
C25   C27   1.537297 S    
C103  C107  1.411153 A    
C67   C75   1.419209 A    
C65   C73   1.416020 A    
C27   H3    1.113451 S    
C32   H8    1.112978 S    
Zn8   O3    1.949275 S    
C21   C37   1.495292 S    
O38   C18   1.272515 A    
C146  H78   1.081173 S    
O5    C1    1.277927 A    
C47   C55   1.395457 A    
O32   C9    1.282956 A    
C156  C163  1.417774 A    
H25   C35   1.113099 S    
H26   C36   1.112906 S    
C36   C40   1.551469 S    
Zn15  O51   1.949830 S    
C111  C151  1.420525 A    
Zn11  O28   1.933192 S    
H23   C34   1.113080 S    
C42   H38   1.081955 S    
C29   C39   1.554234 S    
C159  H91   1.081497 S    
H28   C35   1.112977 S    
O8    C4    1.278006 A    
C63   C71   1.393307 A    
C33   C34   1.547694 S    
C64   C72   1.390442 A    
C49   C61   1.391652 A    
C123  H63   1.080256 S    
O50   C18   1.268840 A    
O37   C17   1.275715 A    
C161  C165  1.416717 A    
C107  C115  1.412648 A    
C100  C112  1.411028 A    
Zn1   O1    1.953919 S    
C122  C130  1.393062 A    
C133  C137  1.390477 A    
Zn2   O14   1.934645 S    
C29   H5    1.113697 S    
C211  N7    1.156930 T    
C68   C76   1.419740 A    
C170  C174  1.422713 A    
C153  C157  1.390714 A    
O9    C5    1.278350 A    
C43   H39   1.083263 S    
O36   C13   1.279250 A    
C60   C68   1.390821 A    
O13   C9    1.275546 A    
C184  C185  1.396000 A    
Zn1   O8    1.934602 S    
C2    C92   1.454335 S    
C189  C190  1.397075 A    
Zn2   O7    1.932610 S    
Zn3   O6    1.936928 S    
O18   C14   1.276392 A    
O31   C10   1.276420 A    
C106  C146  1.418395 A    
C156  C160  1.392782 A    
C25   H9    1.113533 S    
C110  C150  1.416279 A    
C93   C101  1.412819 A    
C32   H16   1.113116 S    
C183  C184  1.395910 A    
C188  C189  1.398352 A    
C134  H70   1.082707 S    
Zn14  O30   1.933445 S    
Zn15  O3    1.951789 S    
C74   C90   1.413077 A    
Zn11  O3    1.947504 S    
C61   H49   1.083911 S    
C168  C172  1.412693 A    
Zn16  O34   1.933445 S    
C72   H60   1.082330 S    
C31   H15   1.113404 S    
C74   C86   1.412396 A    
C3    C89   1.452015 S    
Zn2   O2    1.953917 S    
C90   C98   1.412477 A    
Zn8   O20   1.936972 S    
C203  H111  1.082368 S    
C196  C197  1.398305 A    
C109  C117  1.413238 A    
C174  C178  1.401113 A    
C193  C194  1.404596 A    
C121  H61   1.082326 S    
C108  C148  1.416606 A    
C59   C67   1.389569 A    
C47   H43   1.079965 S    
C48   H44   1.080553 S    
C84   C116  1.414634 A    
C69   C77   1.416307 A    
C163  C164  1.406956 A    
C112  C152  1.420757 A    
Zn8   O9    1.932207 S    
C127  H67   1.081895 S    
C24   C40   1.495899 S    
C128  H68   1.082468 S    
C68   H56   1.079073 S    
C69   H57   1.081920 S    
C7    C93   1.452095 S    
C166  C170  1.421796 A    
C138  C146  1.392857 A    
O7    C3    1.279259 A    
C65   H53   1.082165 S    
C88   C120  1.417424 A    
C95   C103  1.412953 A    
C16   C120  1.453778 S    
O19   C15   1.275741 A    
C201  H109  1.082258 S    
C83   C115  1.413609 A    
C54   C210  1.438935 S    
C142  C150  1.393939 A    
C43   C83   1.417283 A    
O44   C21   1.281439 A    
C58   H46   1.083356 S    
Zn9   O24   1.933192 S    
C147  H79   1.082054 S    
Zn6   O18   1.934645 S    
Zn10  O23   1.935600 S    
C179  C180  1.410353 A    
C79   C83   1.411300 A    
C58   C66   1.391737 A    
C172  C176  1.415291 A    
Zn15  O36   1.933880 S    
O15   C11   1.277176 A    
O42   C22   1.282411 A    
C97   C109  1.411836 A    
C28   C37   1.551397 S    
C46   H42   1.083157 S    
Zn4   O1    1.949275 S    
C180  C193  1.477250 S    
C30   C32   1.547278 S    
Zn9   O37   1.952083 S    
C35   C36   1.548109 S    
O12   C8    1.280122 A    
C53   C57   1.392810 A    
Zn11  O39   1.952083 S    
C205  N1    1.157365 T    
C46   C54   1.396912 A    
C59   H47   1.080889 S    
Zn2   O43   1.949960 S    
C154  C161  1.422878 A    
C42   C82   1.419587 A    
H21   C33   1.113049 S    
C181  C186  1.408392 A    
Zn5   O3    1.953919 S    
Zn13  O1    1.951789 S    
C52   C208  1.437337 S    
C13   C117  1.451520 S    
C163  C167  1.412363 A    
C164  C168  1.410000 A    
C121  C129  1.393839 A    
C139  C147  1.393482 A    
C8    C94   1.456328 S    
C10   C114  1.452120 S    
C161  C162  1.404878 A    
H19   C175  1.081383 S    
C129  H73   1.082665 S    
H24   C33   1.113050 S    
C155  C159  1.392004 A    
C27   C38   1.554804 S    
C178  C181  1.491910 S    
O28   C5    1.274037 A    
Zn3   O42   1.952286 S    
C165  C169  1.419748 A    
C23   C39   1.495198 S    
Zn7   O4    1.949277 S    
O21   C4    1.277062 A    
C50   C62   1.388911 A    
C44   C52   1.398117 A    
C45   C53   1.396545 A    
C105  C145  1.416610 A    
C143  C151  1.392691 A    
C145  H77   1.082085 S    
C159  C160  1.387564 A    
C48   C56   1.394769 A    
C102  C126  1.418843 A    
C177  C178  1.407086 A    
Zn14  O2    1.947205 S    
C197  C198  1.397681 A    
C78   C94   1.417888 A    
C122  H62   1.082270 S    
C208  N4    1.156113 T    
Zn13  O49   1.949830 S    
C157  C158  1.384594 A    
C28   H12   1.113067 S    
C81   C113  1.415501 A    
C63   H51   1.083232 S    
Zn12  O27   1.935600 S    
C35   C39   1.551909 S    
C64   H52   1.081959 S    
C198  H107  1.082981 S    
C85   C117  1.413262 A    
O16   C12   1.276876 A    
C61   C69   1.392105 A    
C189  H99   1.082236 S    
C30   C40   1.551099 S    
Zn3   O2    1.949277 S    
C127  C135  1.393638 A    
H27   C36   1.113127 S    
O10   C6    1.277648 A    
C17   C166  1.441199 S    
O46   C24   1.282800 A    
O47   C24   1.278556 A    
Zn16  O52   1.952125 S    
C100  C124  1.421290 A    
C188  H98   1.083180 S    
H30   C138  1.082652 S    
C104  C108  1.412996 A    
Zn8   O45   1.952284 S    
C41   C49   1.397632 A    
C124  H64   1.079177 S    
O27   C6    1.276821 A    
C47   C87   1.423352 A    
C190  H100  1.082295 S    
C125  H65   1.082249 S    
C183  H94   1.082481 S    
O39   C19   1.271649 A    
C62   H50   1.078406 S    
C131  C143  1.385653 A    
C29   C31   1.537608 S    
C160  H92   1.079443 S    
C131  H75   1.082913 S    
C73   C85   1.411395 A    
O24   C1    1.274412 A    
C76   C88   1.410909 A    
C57   H45   1.083584 S    
C77   C81   1.411529 A    
C79   C95   1.413069 A    
C80   C84   1.412837 A    
O43   C22   1.278910 A    
H18   C174  1.077632 S    
Zn4   O41   1.952284 S    
Zn3   O15   1.932251 S    
Zn5   O12   1.934602 S    
C53   C209  1.440112 S    
Zn6   O11   1.932610 S    
C101  C105  1.411926 A    
Zn6   O4    1.953917 S    
C126  H66   1.081084 S    
Zn9   O21   1.937931 S    
Zn14  O50   1.952125 S    
H17   C173  1.079146 S    
O35   C14   1.278695 A    
C202  C203  1.396493 A    
Zn12  O40   1.949788 S    
C195  H104  1.082390 S    
Zn9   O1    1.947504 S    
H20   C176  1.082879 S    
H35   C143  1.080266 S    
H36   C144  1.080892 S    
O52   C20   1.266886 A    
C55   C59   1.386037 A    
C126  C134  1.392830 A    
C29   H13   1.113396 S    
C66   H54   1.081368 S    
C158  H90   1.081431 S    
C201  C202  1.397224 A    
C192  H102  1.083083 S    
O22   C3    1.278903 A    
C140  C148  1.393878 A    
Zn7   O19   1.932251 S    
C50   C206  1.441313 S    
C56   C212  1.440202 S    
C111  C119  1.418388 A    
C12   C116  1.455010 S    
Zn13  O32   1.933880 S    
C144  C152  1.391776 A    
O49   C17   1.266236 A    
Zn14  O31   1.938181 S    
C123  C131  1.390413 A    
C134  C138  1.388381 A    
O51   C19   1.268277 A    
C106  C114  1.414740 A    
C27   H11   1.113677 S    
Zn4   O5    1.932207 S    
C103  C127  1.417145 A    
O20   C16   1.277209 A    
C169  C173  1.421942 A    
C5    C95   1.451192 S    
C191  C192  1.398060 A    
C26   C38   1.551436 S    
O23   C2    1.277501 A    
O6    C2    1.278431 A    
Zn11  O25   1.937931 S    
Zn10  O38   1.949788 S    
C155  H87   1.082104 S    
C124  C132  1.390828 A    
C54   C58   1.390883 A    
O14   C10   1.277598 A    
C128  C136  1.393876 A    
C181  C182  1.406175 A    
C155  C164  1.416907 A    
C177  C187  1.477356 S    
C107  C147  1.416373 A    
C185  C186  1.398218 A    
C187  C192  1.402252 A    
O17   C13   1.278419 A    
H22   C34   1.113007 S    
O45   C23   1.279297 A    
