data_mof_unit_20349.cif
_audit_creation_date              2013-03-05T16:47:34-0500
_audit_creation_method            fapswitch 2.2
_symmetry_space_group_name_H-M    P1
_symmetry_Int_Tables_number       1
_space_group_crystal_system       triclinic
_cell_length_a                    15.772278
_cell_length_b                    8.928807
_cell_length_c                    8.109314
_cell_angle_alpha                 89.99173
_cell_angle_beta                  90.10646
_cell_angle_gamma                 89.99805
_cell_volume                      1142.01345689

loop_
_atom_site_label
_atom_site_type_symbol
_atom_site_description
_atom_site_fract_x
_atom_site_fract_y
_atom_site_fract_z
_atom_type_partial_charge
O1    O     O_R   0.500000 0.285340 0.636850 -0.609234
O2    O     O_R   0.500000 0.285340 0.363150 -0.609091
H1    H     H_    0.071476 0.706338 0.576864 0.273932
H2    H     H_    0.072474 0.681027 0.359978 0.272348
H3    H     H_    0.927468 0.709811 0.570279 0.272070
H4    H     H_    0.928452 0.675718 0.354771 0.275005
C1    C     C_R   0.500000 0.217994 0.500008 0.947195
O3    O     O_R   0.377140 0.500000 0.636930 -0.599460
O4    O     O_R   0.377140 0.500000 0.363070 -0.600976
O5    O     O_R   0.622860 0.500000 0.636930 -0.599009
O6    O     O_R   0.622860 0.500000 0.363070 -0.601064
C2    C     C_R   0.337832 0.499881 0.499845 0.883947
C3    C     C_R   0.662167 0.499894 0.500188 0.883756
Zn1   Zn    Zn3+2 0.500000 0.499990 0.682780 1.065148
Zn2   Zn    Zn3+2 0.500000 0.499990 0.317220 1.063753
C4    C     C_1   0.500000 0.934790 0.499989 -0.136613
O7    O     O_R   0.500000 0.714650 0.636900 -0.613436
O8    O     O_R   0.500000 0.714650 0.363100 -0.613729
C5    C     C_1   0.500000 0.065192 0.500011 -0.130374
C6    C     C_R   0.500000 0.781984 0.499992 0.930499
C7    C     C_3   0.051215 0.413279 0.674693 0.609631
C8    C     C_3   0.049138 0.372312 0.349953 0.637331
C9    C     C_3   0.950893 0.417344 0.680187 0.632788
C10   C     C_3   0.948779 0.369429 0.356938 0.612959
N1    N     N_1   0.500000 0.500030 0.073640 -0.002263
N2    N     N_1   0.500000 0.500030 0.926360 -0.002124
C11   C     C_1   0.750717 0.490814 0.501012 -0.046321
C12   C     C_1   0.249290 0.490577 0.499491 -0.046561
C13   C     C_3   0.082978 0.468554 0.500677 -0.331779
C14   C     C_3   0.917044 0.469106 0.505017 -0.331337
C15   C     C_3   0.951276 0.630619 0.474935 -0.330397
C16   C     C_3   0.048689 0.630924 0.476819 -0.331190
C17   C     C_1   0.825664 0.480611 0.502885 0.237673
C18   C     C_1   0.174348 0.480148 0.499524 0.236542
N3    N     N_R   0.913473 0.277360 0.744470 0.239480
O9    O     O_R   0.842232 0.225607 0.686695 -0.340979
O10   O     O_R   0.936804 0.231769 0.890205 -0.158014
N4    N     N_R   0.911133 0.217882 0.359790 0.216009
O11   O     O_R   0.940653 0.111309 0.452632 -0.326130
O12   O     O_R   0.847255 0.187574 0.263422 -0.239271
N5    N     N_R   0.088957 0.267990 0.722108 0.220155
O13   O     O_R   0.060865 0.141338 0.665284 -0.307447
O14   O     O_R   0.150158 0.264755 0.830003 -0.214692
N6    N     N_R   0.086898 0.221659 0.333243 0.233846
O15   O     O_R   0.158439 0.188080 0.404368 -0.352616
O16   O     O_R   0.063528 0.139316 0.208669 -0.199423
F1    F     F_    0.072680 0.448106 0.207122 -0.514284
F2    F     F_    0.080105 0.517071 0.790384 -0.518647
F3    F     F_    0.919593 0.437025 0.212548 -0.513039
F4    F     F_    0.926999 0.527569 0.792291 -0.524567

loop_
_geom_bond_atom_site_label_1
_geom_bond_atom_site_label_2
_geom_bond_distance
_ccdc_geom_bond_type
Zn2   O8    1.952488 S    
C10   N4    1.477889 S    
C8    C13   1.585929 S    
O6    C3    1.272078 A    
N5    O13   1.298808 A    
C9    N3    1.477598 S    
N3    O9    1.301441 A    
O3    C2    1.271852 A    
C14   C15   1.559217 S    
C4    C6    1.364382 S    
C7    F2    1.394749 S    
Zn1   N2    1.975267 S    
C8    F1    1.392418 S    
O4    Zn2   1.973809 S    
C12   C18   1.185665 T    
C11   C17   1.185667 T    
N4    O12   1.302364 A    
O2    Zn2   1.952372 S    
N5    O14   1.301918 A    
Zn1   O7    1.952382 S    
H2    C16   1.113481 S    
O6    Zn2   1.972450 S    
C2    C12   1.398985 S    
C4    C5    1.164332 T    
C7    N5    1.477851 S    
N3    O10   1.302314 A    
N6    O16   1.302220 A    
H4    C15   1.113493 S    
C13   C16   1.559232 S    
O8    C6    1.262527 A    
C7    C9    1.583434 S    
O2    C1    1.262178 A    
H1    C16   1.113494 S    
O4    C2    1.271665 A    
C8    C10   1.584209 S    
Zn2   N1    1.975267 S    
C10   C14   1.577049 S    
C9    C14   1.585383 S    
O7    C6    1.262482 A    
N4    O11   1.299064 A    
N6    O15   1.301268 A    
O5    Zn1   1.973807 S    
C10   F3    1.394623 S    
C3    C11   1.398981 S    
C1    C5    1.364339 S    
O3    Zn1   1.972452 S    
O1    Zn1   1.952477 S    
C14   C17   1.444997 S    
H3    C15   1.113551 S    
N1    N2    1.194339 T    
O1    C1    1.262223 A    
C7    C13   1.577445 S    
C13   C18   1.444892 S    
C8    N6    1.477432 S    
C15   C16   1.536486 S    
C9    F4    1.392325 S    
O5    C3    1.271433 A    
