data_mof_unit_30983.cif
_audit_creation_date              2012-12-11T17:19:11-0500
_audit_creation_method            fapswitch 2.2
_symmetry_space_group_name_H-M    P1
_symmetry_Int_Tables_number       1
_space_group_crystal_system       triclinic
_cell_length_a                    14.618306
_cell_length_b                    7.266913
_cell_length_c                    13.50983
_cell_angle_alpha                 90.000375
_cell_angle_beta                  99.829843
_cell_angle_gamma                 89.999043
_cell_volume                      1414.07941189

loop_
_atom_site_label
_atom_site_type_symbol
_atom_type_description
_atom_site_fract_x
_atom_site_fract_y
_atom_site_fract_z
_atom_type_partial_charge
O1    O     O_R   0.648180 0.355050 0.151550 -0.535169
O2    O     O_R   0.351820 0.644950 0.848450 -0.535168
O3    O     O_R   0.851820 0.855050 0.348450 -0.535164
O4    O     O_R   0.148180 0.144950 0.651550 -0.535166
O5    O     O_R   0.835240 0.681980 0.154280 -0.538267
O6    O     O_R   0.164760 0.318020 0.845720 -0.538271
O7    O     O_R   0.664760 0.181980 0.345720 -0.538279
O8    O     O_R   0.335240 0.818020 0.654280 -0.538279
H1    H     H_    0.670655 0.814639 0.817183 0.119199
H2    H     H_    0.329341 0.185348 0.182821 0.119194
H3    H     H_    0.829350 0.314699 0.682800 0.119196
H4    H     H_    0.170660 0.685059 0.317233 0.119196
C1    C     C_R   0.863971 0.516348 0.133632 0.688224
C2    C     C_R   0.136025 0.483652 0.866363 0.688223
C3    C     C_R   0.636024 0.016353 0.366362 0.688222
C4    C     C_R   0.363978 0.983646 0.633640 0.688228
O9    O     O_R   0.647870 0.684600 0.139630 -0.535448
O10   O     O_R   0.352130 0.315400 0.860370 -0.535448
O11   O     O_R   0.852130 0.184600 0.360370 -0.535450
O12   O     O_R   0.147870 0.815400 0.639630 -0.535449
O13   O     O_R   0.663110 0.857440 0.333700 -0.532667
O14   O     O_R   0.336890 0.142560 0.666300 -0.532666
O15   O     O_R   0.836890 0.357440 0.166300 -0.532672
O16   O     O_R   0.163110 0.642560 0.833700 -0.532675
C5    C     C_R   0.615058 0.515971 0.113214 0.716108
C6    C     C_R   0.384942 0.484028 0.886786 0.716114
C7    C     C_R   0.884942 0.015970 0.386786 0.716124
C8    C     C_R   0.115058 0.984029 0.613214 0.716120
H5    H     H_    0.509192 0.883943 0.755243 0.120411
H6    H     H_    0.490812 0.116114 0.244767 0.120416
H7    H     H_    0.990808 0.384031 0.744741 0.120406
H8    H     H_    0.009200 0.615784 0.255278 0.120391
O17   O     O_3   0.755220 0.522230 0.313690 -0.376002
O18   O     O_3   0.244780 0.477770 0.686310 -0.376001
O19   O     O_3   0.744780 0.022230 0.186310 -0.376000
O20   O     O_3   0.255220 0.977770 0.813690 -0.376002
V1    V     V_3+5 0.749030 0.796100 0.238190 1.419769
V2    V     V_3+5 0.250970 0.203900 0.761810 1.419759
V3    V     V_3+5 0.750970 0.296100 0.261810 1.419747
V4    V     V_3+5 0.249030 0.703900 0.738190 1.419742
C9    C     C_1   0.966030 0.005336 0.466761 -0.186815
C10   C     C_1   0.033969 0.994664 0.533239 -0.186818
C11   C     C_1   0.533969 0.505339 0.033239 -0.186818
C12   C     C_1   0.466031 0.494661 0.966761 -0.186817
C13   C     C_R   0.557266 0.893567 0.702801 -0.199860
C14   C     C_R   0.442735 0.106447 0.297205 -0.199866
C15   C     C_R   0.942735 0.393634 0.797186 -0.199853
C16   C     C_R   0.057269 0.606242 0.202827 -0.199844
C17   C     C_R   0.650207 0.853497 0.739124 -0.126409
C18   C     C_R   0.349790 0.146477 0.260877 -0.126415
C19   C     C_R   0.849796 0.353553 0.760861 -0.126412
C20   C     C_R   0.150209 0.646292 0.239160 -0.126425
C21   C     C_R   0.716339 0.866731 0.676128 0.216769
C22   C     C_R   0.283654 0.133182 0.323866 0.216795
C23   C     C_R   0.783663 0.366767 0.823857 0.216775
C24   C     C_R   0.216336 0.633165 0.176152 0.216776
C25   C     C_R   0.688416 0.917146 0.575614 -0.158568
C26   C     C_R   0.311580 0.082777 0.424381 -0.158542
C27   C     C_R   0.811582 0.417180 0.924372 -0.158583
C28   C     C_R   0.188411 0.582844 0.075623 -0.158574
C29   C     C_R   0.594353 0.956571 0.536571 0.025881
C30   C     C_R   0.405646 0.043401 0.463429 0.025886
C31   C     C_R   0.905644 0.456598 0.963420 0.025869
C32   C     C_R   0.094351 0.543406 0.036575 0.025874
C33   C     C_R   0.527603 0.946585 0.601663 0.069664
C34   C     C_R   0.472398 0.053411 0.398340 0.069676
C35   C     C_R   0.972397 0.446626 0.898329 0.069668
C36   C     C_R   0.027602 0.553337 0.101671 0.069675
C37   C     C_R   0.566649 0.008622 0.434741 -0.152117
C38   C     C_R   0.433352 0.991372 0.565261 -0.152118
C39   C     C_R   0.933348 0.508602 0.065257 -0.152103
C40   C     C_R   0.066648 0.491396 0.934738 -0.152110
H9    H     H_    0.741408 0.926684 0.528809 0.104801
H10   H     H_    0.258586 0.073200 0.471181 0.104779
H11   H     H_    0.758590 0.426705 0.971176 0.104796
H12   H     H_    0.241400 0.573386 0.028810 0.104813
C41   C     C_3   0.182938 0.170191 0.284733 -0.772761
H13   H     H_    0.171265 0.210202 0.204196 0.217730
H14   H     H_    0.141509 0.044784 0.292812 0.204388
H15   H     H_    0.158067 0.283164 0.328640 0.211151
C42   C     C_3   0.817050 0.829656 0.715256 -0.772767
H16   H     H_    0.828712 0.789578 0.795783 0.217736
H17   H     H_    0.841909 0.716703 0.671327 0.211156
H18   H     H_    0.858497 0.955050 0.707208 0.204383
C43   C     C_3   0.317044 0.670255 0.215285 -0.772745
H19   H     H_    0.328712 0.710135 0.295842 0.217713
H20   H     H_    0.358515 0.544930 0.207143 0.204355
H21   H     H_    0.341872 0.783350 0.171430 0.211180
C44   C     C_3   0.682956 0.329656 0.784731 -0.772761
H22   H     H_    0.671298 0.289581 0.704203 0.217730
H23   H     H_    0.658111 0.216688 0.828658 0.211159
H24   H     H_    0.641494 0.455033 0.792781 0.204380

loop_
_geom_bond_atom_site_label_1
_geom_bond_atom_site_label_2
_ccdc_geom_bond_type
C26   C30   A    
O5    V1    S    
C9    C10   T    
O10   C6    A    
C5    C11   S    
C42   H16   S    
C6    C12   S    
C43   H19   S    
C30   C38   A    
C18   C22   A    
O18   V4    S    
C32   C36   A    
O19   V1    S    
C14   C34   A    
C23   C27   A    
O12   V4    S    
C17   C21   A    
C41   H15   S    
C34   C37   A    
C25   H9    S    
C33   C38   A    
O14   V2    S    
C1    O15   A    
C21   C42   S    
C35   C40   A    
C2    O16   A    
C42   H17   S    
O17   V3    S    
O6    V2    S    
C44   H23   S    
O11   C7    A    
O5    C1    A    
C22   C41   S    
O7    C3    A    
O8    C4    A    
H7    C15   S    
O1    C5    A    
H8    C16   S    
C15   C35   A    
O4    C8    A    
C41   H14   S    
C3    C37   S    
C31   C35   A    
C30   C34   A    
C43   H20   S    
H1    C17   S    
C21   C25   A    
C15   C19   A    
O12   C8    A    
C41   H13   S    
C28   H12   S    
C24   C28   A    
H5    C13   S    
C11   C12   T    
C29   C33   A    
O6    C2    A    
C7    C9    S    
C13   C17   A    
C4    C38   S    
O2    C6    A    
O9    V1    S    
C16   C36   A    
C44   H24   S    
O11   V3    S    
O4    V2    S    
C13   C33   A    
O20   V2    S    
H2    C18   S    
C27   H11   S    
C42   H18   S    
C26   H10   S    
C22   C26   A    
C43   H21   S    
C29   C37   A    
C4    O14   A    
C2    C40   S    
H6    C14   S    
C31   C39   A    
C25   C29   A    
C1    C39   S    
C14   C18   A    
C27   C31   A    
C28   C32   A    
O9    C5    A    
O3    C7    A    
H4    C20   S    
C23   C44   S    
C24   C43   S    
C3    O13   A    
C36   C39   A    
O15   V3    S    
C8    C10   S    
O16   V4    S    
C19   C23   A    
C32   C40   A    
O10   V2    S    
H3    C19   S    
O1    V3    S    
O2    V4    S    
C16   C20   A    
O13   V1    S    
O3    V1    S    
O7    V3    S    
O8    V4    S    
C44   H22   S    
C20   C24   A    
