data_mof_unit_32895.cif
_audit_creation_date              2013-03-05T16:04:39-0500
_audit_creation_method            fapswitch 2.2
_symmetry_space_group_name_H-M    P1
_symmetry_Int_Tables_number       1
_space_group_crystal_system       triclinic
_cell_length_a                    9.522494
_cell_length_b                    10.79132
_cell_length_c                    15.430973
_cell_angle_alpha                 89.925879
_cell_angle_beta                  73.260741
_cell_angle_gamma                 90.111026
_cell_volume                      1518.49234305

loop_
_atom_site_label
_atom_site_type_symbol
_atom_site_description
_atom_site_fract_x
_atom_site_fract_y
_atom_site_fract_z
_atom_type_partial_charge
O1    O     O_R   0.118740 0.319660 0.500000 -0.572234
O2    O     O_R   0.881260 0.680340 0.500000 -0.571616
O3    O     O_R   0.881170 0.319630 0.500010 -0.590397
O4    O     O_R   0.118830 0.680370 0.499990 -0.588446
C1    C     C_R   0.001112 0.262404 0.497217 0.778499
C2    C     C_R   0.998967 0.737631 0.502650 0.768808
O5    O     O_R   0.055570 0.500030 0.629830 -0.557871
O6    O     O_R   0.944430 0.499970 0.370170 -0.582955
O7    O     O_R   0.818000 0.500000 0.629840 -0.589371
O8    O     O_R   0.182000 0.500000 0.370160 -0.577828
C3    C     C_R   0.916594 0.504842 0.672501 0.790005
C4    C     C_R   0.083012 0.497624 0.327518 0.790307
Cu1   Cu    Cu3+1 0.140660 0.500020 0.500000 0.980136
Cu2   Cu    Cu3+1 0.859340 0.499980 0.500000 0.959338
C5    C     C_R   0.866403 0.536085 0.769142 -0.031772
C6    C     C_R   0.128417 0.491383 0.228479 -0.049991
C7    C     C_R   0.889445 0.661791 0.894045 -0.083586
C8    C     C_R   0.084444 0.422403 0.090014 -0.090080
C9    C     C_R   0.951272 0.610686 0.808539 -0.109831
C10   C     C_R   0.037841 0.434723 0.183481 -0.166627
C11   C     C_R   0.720675 0.511559 0.816871 -0.195219
C12   C     C_R   0.264277 0.538874 0.178863 -0.216014
C13   C     C_R   0.651305 0.574115 0.897759 0.053954
C14   C     C_R   0.306670 0.540900 0.083397 0.067923
C15   C     C_R   0.738867 0.645550 0.939202 0.005557
C16   C     C_R   0.218240 0.475108 0.038485 0.004682
C17   C     C_R   0.498385 0.561115 0.940242 -0.064342
C18   C     C_R   0.442419 0.594564 0.032359 -0.062723
C19   C     C_R   0.524088 0.681015 0.068897 -0.121722
C20   C     C_R   0.399074 0.516949 0.893756 -0.103006
C21   C     C_R   0.673932 0.702371 0.023244 0.311592
C22   C     C_R   0.265299 0.462723 0.943508 0.312826
H1    H     H_    0.337565 0.570958 0.216007 0.153301
H2    H     H_    0.660810 0.445598 0.788288 0.151796
H3    H     H_    0.933497 0.394812 0.220978 0.160782
H4    H     H_    0.064404 0.631378 0.772745 0.183900
H5    H     H_    0.959566 0.716719 0.923169 0.188606
H6    H     H_    0.014031 0.370736 0.059461 0.204584
C23   C     C_R   0.939597 0.061190 0.437508 -0.015907
C24   C     C_R   0.060994 0.938949 0.562043 -0.010748
C25   C     C_R   0.937331 0.932371 0.443458 -0.120072
C26   C     C_R   0.063016 0.067736 0.556190 -0.116651
H7    H     H_    0.892163 0.878315 0.398565 0.189712
H8    H     H_    0.108241 0.121806 0.601050 0.190627
C27   C     C_R   0.998385 0.871572 0.504078 -0.146963
C28   C     C_R   0.001892 0.128512 0.495626 -0.147957
C29   C     C_R   0.548223 0.422116 0.555614 0.016040
C30   C     C_R   0.451855 0.577679 0.444206 -0.000783
H9    H     H_    0.583184 0.359903 0.600352 0.143542
H10   H     H_    0.416853 0.639953 0.399511 0.152252
C31   C     C_R   0.399496 0.421981 0.555455 0.073108
C32   C     C_R   0.600672 0.577579 0.444181 0.004066
H11   H     H_    0.322471 0.359585 0.600005 0.163189
H12   H     H_    0.677770 0.639760 0.399471 0.154890
N1    N     N_R   0.352080 0.500030 0.499980 -0.183287
N2    N     N_R   0.647920 0.499970 0.500020 -0.182318
N3    N     N_R   0.759676 0.783494 0.061412 0.152292
O9    O     O_R   0.797024 0.892685 0.026444 -0.311565
O10   O     O_R   0.810553 0.744139 0.126176 -0.313739
N4    N     N_R   0.185221 0.386095 0.897877 0.151289
O11   O     O_R   0.049403 0.410069 0.902925 -0.364186
O12   O     O_R   0.250733 0.294142 0.848005 -0.300001
C33   C     C_2   0.446469 0.765664 0.143748 0.401460
H13   H     H_    0.330316 0.783473 0.155559 0.081882
O13   O     O_2   0.509157 0.815067 0.193362 -0.463828
C34   C     C_2   0.421476 0.551656 0.796743 0.374791
H14   H     H_    0.511008 0.612644 0.762523 0.086506
O14   O     O_2   0.337095 0.518566 0.754896 -0.520392
C35   C     C_2   0.884139 0.122691 0.367490 0.399143
H15   H     H_    0.906292 0.219837 0.351225 0.067093
O15   O     O_2   0.814087 0.064814 0.325942 -0.493755
C36   C     C_2   0.117300 0.877563 0.631720 0.395664
H16   H     H_    0.096999 0.780129 0.647146 0.066737
O16   O     O_2   0.186114 0.935824 0.673837 -0.513097

loop_
_geom_bond_atom_site_label_1
_geom_bond_atom_site_label_2
_geom_bond_distance
_ccdc_geom_bond_type
C15   C21   1.407748 A    
C30   N1    1.367325 A    
Cu2   N2    2.013156 S    
C19   C33   1.492783 S    
C16   C22   1.410341 A    
C2    C27   1.445586 S    
C34   O14   1.220041 D    
C8    C16   1.411191 A    
C33   O13   1.220552 D    
C29   H9    1.081756 S    
C5    C9    1.397346 A    
O1    C1    1.289713 A    
C18   C19   1.429752 A    
C14   C16   1.424279 A    
C30   C32   1.416997 A    
C9    H4    1.082355 S    
N3    O10   1.300928 A    
N4    O12   1.301496 A    
C26   C28   1.398405 A    
O4    Cu1   1.957690 S    
C35   O15   1.221429 D    
C10   H3    1.083547 S    
C3    C5    1.468782 S    
C4    C6    1.465203 S    
O6    Cu2   1.932638 S    
C13   C17   1.420910 A    
C8    C10   1.388117 A    
C6    C10   1.394253 A    
C30   H10   1.081882 S    
C34   H14   1.084642 S    
Cu1   Cu2   2.678868 S    
C17   C20   1.423344 A    
C25   H7    1.084848 S    
O2    C2    1.289970 A    
C26   H8    1.084855 S    
C32   H12   1.081834 S    
C24   C27   1.411138 A    
C36   O16   1.221404 D    
C29   C31   1.416954 A    
C11   H2    1.081782 S    
N4    O11   1.299620 A    
C31   H11   1.081838 S    
O5    C3    1.298477 A    
O7    Cu2   1.927403 S    
C5    C11   1.395533 A    
O6    C4    1.294277 A    
C23   C35   1.488246 S    
C7    H5    1.082228 S    
O7    C3    1.293633 A    
C20   C34   1.497033 S    
O3    Cu2   1.957690 S    
O8    C4    1.295912 A    
C23   C28   1.410832 A    
O4    C2    1.289227 A    
C11   C13   1.406766 A    
C12   C14   1.410978 A    
O1    Cu1   1.957081 S    
C22   N4    1.438539 S    
C12   H1    1.079556 S    
C6    C12   1.395857 A    
C24   C36   1.487934 S    
C14   C18   1.426920 A    
C36   H16   1.082416 S    
O3    C1    1.289249 A    
O8    Cu1   1.927405 S    
C1    C28   1.445109 S    
C7    C15   1.412606 A    
C21   N3    1.433702 S    
C8    H6    1.078915 S    
C19   C21   1.415863 A    
C20   C22   1.409669 A    
N3    O9    1.300863 A    
C24   C26   1.392338 A    
C7    C9    1.395464 A    
C31   N1    1.366866 A    
C13   C15   1.415764 A    
C35   H15   1.083723 S    
O2    Cu2   1.957081 S    
C33   H13   1.085514 S    
O5    Cu1   1.932638 S    
C23   C25   1.392763 A    
C17   C18   1.414411 A    
C25   C27   1.398808 A    
C32   N2    1.367182 A    
C29   N2    1.367107 A    
Cu1   N1    2.013155 S    
