data_mof_unit_7935.cif
_audit_creation_date              2012-12-11T15:09:36-0500
_audit_creation_method            fapswitch 2.2
_symmetry_space_group_name_H-M    P1
_symmetry_Int_Tables_number       1
_space_group_crystal_system       triclinic
_cell_length_a                    20.980029
_cell_length_b                    7.128835
_cell_length_c                    14.046788
_cell_angle_alpha                 90.000119
_cell_angle_beta                  98.430996
_cell_angle_gamma                 89.999782
_cell_volume                      2078.17817519

loop_
_atom_site_label
_atom_site_type_symbol
_atom_type_description
_atom_site_fract_x
_atom_site_fract_y
_atom_site_fract_z
_atom_type_partial_charge
O1    O     O_R   0.447130 0.507140 0.597350 -0.544777
O2    O     O_R   0.552870 0.007140 0.402650 -0.544778
O3    O     O_R   0.578910 0.181280 0.586990 -0.545281
O4    O     O_R   0.421090 0.681280 0.413010 -0.545280
C1    C     C_R   0.604314 0.344429 0.607812 0.722700
C2    C     C_R   0.395686 0.844430 0.392188 0.722702
O5    O     O_R   0.449230 0.177860 0.608640 -0.538597
O6    O     O_R   0.550770 0.677860 0.391360 -0.538598
O7    O     O_R   0.422260 0.000770 0.424450 -0.527278
O8    O     O_R   0.577740 0.500770 0.575550 -0.527279
C3    C     C_R   0.432219 0.346117 0.633574 0.703409
C4    C     C_R   0.567781 0.846116 0.366427 0.703407
O9    O     O_3   0.491310 0.336980 0.439550 -0.374783
O10   O     O_3   0.508690 0.836980 0.560450 -0.374784
V1    V     V_3+5 0.501610 0.064760 0.511210 1.430606
V2    V     V_3+5 0.498390 0.564760 0.488790 1.430606
C5    C     C_R   0.622864 0.848504 0.125757 -0.162319
C6    C     C_R   0.377136 0.348560 0.874242 -0.162319
H1    H     H_    0.531948 0.860993 0.177033 0.109499
H2    H     H_    0.468052 0.361033 0.822966 0.109499
H3    H     H_    0.705550 0.808843 0.002297 0.124427
H4    H     H_    0.294451 0.308939 0.997705 0.124427
H5    H     H_    0.600430 0.842130 0.051227 0.116589
H6    H     H_    0.399570 0.342209 0.948772 0.116589
C7    C     C_R   0.610990 0.854285 0.293902 -0.059656
C8    C     C_R   0.389010 0.354292 0.706098 -0.059655
C9    C     C_R   0.923582 0.913831 0.304088 -0.163847
C10   C     C_R   0.076415 0.413778 0.695907 -0.163852
C11   C     C_R   0.887018 0.961251 0.375657 0.211615
C12   C     C_R   0.112977 0.461182 0.624334 0.211611
C13   C     C_R   0.819905 0.953745 0.355558 -0.161599
C14   C     C_R   0.180089 0.453710 0.644433 -0.161601
C15   C     C_R   0.787908 0.884261 0.266865 0.029233
C16   C     C_R   0.212091 0.384264 0.733133 0.029233
C17   C     C_R   0.825476 0.852982 0.191939 0.063034
C18   C     C_R   0.174524 0.353001 0.808061 0.063036
C19   C     C_R   0.719342 0.861117 0.247512 0.039719
C20   C     C_R   0.280657 0.361135 0.752486 0.039718
C21   C     C_R   0.689998 0.846101 0.149811 0.133737
C22   C     C_R   0.310002 0.346149 0.850188 0.133737
C23   C     C_R   0.727766 0.825539 0.076507 -0.197332
C24   C     C_R   0.272235 0.325609 0.923494 -0.197331
C25   C     C_R   0.794400 0.821267 0.097612 -0.180895
C26   C     C_R   0.205601 0.321324 0.902391 -0.180892
C27   C     C_R   0.678655 0.847470 0.320584 -0.070532
C28   C     C_R   0.321346 0.347472 0.679415 -0.070529
C29   C     C_R   0.583823 0.858455 0.197192 -0.192777
C30   C     C_R   0.416177 0.358488 0.802807 -0.192780
C31   C     C_R   0.893400 0.866091 0.211865 -0.115261
C32   C     C_R   0.106599 0.366085 0.788135 -0.115255
H7    H     H_    0.975634 0.926570 0.318060 0.104856
H8    H     H_    0.024363 0.426491 0.681934 0.104855
H9    H     H_    0.793763 0.013412 0.408510 0.137773
H10   H     H_    0.206228 0.513368 0.591476 0.137779
H11   H     H_    0.821356 0.800002 0.038432 0.123185
H12   H     H_    0.178646 0.300075 0.961572 0.123179
C33   C     C_1   0.167058 0.856388 0.167133 -0.197467
C34   C     C_1   0.832942 0.356390 0.832867 -0.197467
C35   C     C_1   0.219747 0.853084 0.217475 -0.019953
C36   C     C_1   0.780253 0.353086 0.782524 -0.019951
C37   C     C_1   0.281602 0.851769 0.277253 -0.015003
C38   C     C_1   0.718398 0.351771 0.722747 -0.015001
C39   C     C_1   0.333725 0.850465 0.329138 -0.190969
C40   C     C_1   0.666275 0.350465 0.670861 -0.190970
O11   O     O_R   0.922300 0.202240 0.924350 -0.531673
O12   O     O_R   0.077700 0.702240 0.075650 -0.531675
O13   O     O_R   0.050780 0.535130 0.891350 -0.538802
O14   O     O_R   0.949220 0.035130 0.108650 -0.538802
C41   C     C_R   0.067091 0.368501 0.865407 0.697227
C42   C     C_R   0.932909 0.868502 0.134593 0.697228
O15   O     O_R   0.921100 0.531560 0.912990 -0.541633
O16   O     O_R   0.078900 0.031560 0.087010 -0.541632
O17   O     O_R   0.947120 0.708470 0.097370 -0.540063
O18   O     O_R   0.052880 0.208470 0.902630 -0.540061
C43   C     C_R   0.895765 0.363491 0.893726 0.716016
C44   C     C_R   0.104234 0.863490 0.106274 0.716018
O19   O     O_3   0.008710 0.375800 0.060400 -0.374606
O20   O     O_3   0.991290 0.875800 0.939600 -0.374606
V3    V     V_3+5 0.998380 0.648080 0.988790 1.423674
V4    V     V_3+5 0.001620 0.148080 0.011210 1.423675
C45   C     C_R   0.704935 0.796656 0.421543 0.060533
C46   C     C_R   0.698783 0.920203 0.497763 -0.138392
C47   C     C_R   0.729533 0.880568 0.590642 -0.118581
C48   C     C_R   0.766655 0.718386 0.608144 -0.091619
C49   C     C_R   0.771504 0.592007 0.533489 -0.122646
C50   C     C_R   0.740483 0.630202 0.440549 -0.107642
H13   H     H_    0.673082 0.051306 0.484303 0.118131
H14   H     H_    0.725770 0.977347 0.648772 0.122731
H15   H     H_    0.791726 0.691060 0.679672 0.118555
H16   H     H_    0.799885 0.465512 0.547430 0.110529
H17   H     H_    0.745701 0.533193 0.382841 0.112265
C51   C     C_R   0.295067 0.296653 0.578456 0.060530
C52   C     C_R   0.301217 0.420203 0.502237 -0.138391
C53   C     C_R   0.270468 0.380567 0.409357 -0.118583
C54   C     C_R   0.233347 0.218382 0.391855 -0.091623
C55   C     C_R   0.228501 0.092000 0.466510 -0.122649
C56   C     C_R   0.259521 0.130196 0.559449 -0.107643
H18   H     H_    0.326917 0.551308 0.515698 0.118130
H19   H     H_    0.274229 0.477349 0.351229 0.122731
H20   H     H_    0.208276 0.191057 0.320327 0.118556
H21   H     H_    0.200121 0.965502 0.452569 0.110531
H22   H     H_    0.254305 0.033185 0.617158 0.112267
C57   C     C_3   0.918807 0.028154 0.472490 -0.794936
H23   H     H_    0.972173 0.027448 0.477892 0.209792
H24   H     H_    0.902911 0.173495 0.485122 0.204058
H25   H     H_    0.904940 0.935066 0.529456 0.215025
C58   C     C_3   0.081184 0.528024 0.527492 -0.794938
H26   H     H_    0.027819 0.527289 0.522090 0.209792
H27   H     H_    0.097070 0.673364 0.514841 0.204065
H28   H     H_    0.095059 0.434917 0.470540 0.215025

loop_
_geom_bond_atom_site_label_1
_geom_bond_atom_site_label_2
_ccdc_geom_bond_type
O14   V4    S    
C12   C14   A    
C52   C53   A    
C12   C58   S    
C9    C11   A    
C23   C25   A    
C54   C55   A    
O1    C3    A    
O16   C44   A    
O2    C4    A    
C2    O7    A    
O15   V3    S    
C45   C46   A    
O3    V1    S    
C21   C23   A    
C49   C50   A    
O5    C3    A    
O12   V3    S    
C5    H5    S    
C6    H6    S    
C33   C44   S    
C20   C22   A    
C32   C41   S    
C50   H17   S    
O20   V4    S    
C33   C35   T    
C28   C51   S    
C34   C36   T    
C46   H13   S    
C11   C57   S    
C36   C38   S    
C5    C21   A    
C37   C39   T    
C6    C22   A    
C38   C40   T    
C10   C32   A    
C17   C31   A    
C58   H26   S    
C13   C15   A    
C17   C25   A    
C7    C29   A    
C16   C18   A    
C56   H22   S    
C8    C30   A    
O5    V1    S    
C47   H14   S    
O6    V2    S    
O11   V4    S    
O18   V4    S    
C55   H21   S    
C11   C13   A    
C58   H27   S    
C24   C26   A    
C14   H10   S    
C9    H7    S    
C51   C56   A    
O19   V3    S    
C35   C37   S    
O13   V3    S    
C48   C49   A    
O4    C2    A    
C54   H20   S    
C16   C20   A    
C3    C8    S    
C15   C19   A    
C1    C40   S    
O13   C41   A    
C14   C16   A    
C2    C39   S    
O4    V2    S    
C26   H12   S    
C47   C48   A    
O6    C4    A    
O12   C44   A    
C55   C56   A    
C42   O17   A    
O17   V3    S    
C45   C50   A    
C41   O18   A    
C57   H24   S    
O1    V2    S    
C13   H9    S    
O2    V1    S    
H2    C30   S    
H3    C23   S    
C25   H11   S    
C31   C42   S    
C58   H28   S    
C18   C26   A    
C48   H15   S    
C19   C27   A    
C7    C27   A    
C18   C32   A    
O19   V4    S    
O20   V3    S    
C27   C45   S    
C5    C29   A    
O3    C1    A    
C6    C30   A    
C49   H16   S    
O11   C43   A    
C4    C7    S    
C10   C12   A    
O7    V1    S    
C1    O8    A    
C19   C21   A    
O8    V2    S    
O15   C43   A    
C10   H8    S    
H4    C24   S    
C53   H19   S    
C22   C24   A    
C51   C52   A    
C15   C17   A    
C57   H25   S    
H1    C29   S    
C53   C54   A    
C20   C28   A    
C8    C28   A    
O16   V4    S    
C46   C47   A    
O9    V2    S    
C57   H23   S    
O14   C42   A    
O10   V1    S    
C52   H18   S    
C9    C31   A    
C34   C43   S    
