data_mof_unit_23189.cif
_audit_creation_date              2012-10-26T18:45:07-0400
_audit_creation_method            fapswitch 2.2
_symmetry_space_group_name_H-M    P1
_symmetry_Int_Tables_number       1
_space_group_crystal_system       triclinic
_cell_length_a                    15.953393
_cell_length_b                    14.693506
_cell_length_c                    10.912648
_cell_angle_alpha                 90.210427
_cell_angle_beta                  92.766881
_cell_angle_gamma                 89.334402
_cell_volume                      2554.88078197

loop_
_atom_site_label
_atom_site_type_symbol
_atom_type_description
_atom_site_fract_x
_atom_site_fract_y
_atom_site_fract_z
_atom_type_partial_charge
Br1   Br    Br    0.600149 0.677964 0.163826 -0.355284
Br2   Br    Br    0.407660 0.327655 0.104536 -0.442484
Br3   Br    Br    0.417160 0.678902 0.110419 -0.464338
Br4   Br    Br    0.320457 0.493983 0.159780 -0.502728
Br5   Br    Br    0.648380 0.629086 0.893377 -0.530471
Br6   Br    Br    0.368298 0.365750 0.826484 -0.450652
Br7   Br    Br    0.689581 0.486498 0.138000 -0.365412
Br8   Br    Br    0.604290 0.322769 0.176265 -0.426076
C1    C     C_R   0.340719 0.500577 0.501276 0.594224
C2    C     C_1   0.176473 0.503471 0.505884 0.031777
C3    C     C_1   0.251586 0.502218 0.504009 0.016940
C4    C     C_1   0.747281 0.499321 0.485327 0.023967
C5    C     C_R   0.577331 0.950282 0.489264 0.236293
C6    C     C_R   0.577353 0.046893 0.489582 0.230612
C7    C     C_R   0.503051 0.499766 0.259759 0.672266
C8    C     C_R   0.500902 0.902587 0.493646 -0.087709
C9    C     C_R   0.501360 0.096912 0.494555 -0.082181
C10   C     C_R   0.424407 0.952687 0.491659 0.221252
C11   C     C_R   0.424965 0.049145 0.491487 0.237510
C12   C     C_3   0.574727 0.422649 0.934075 0.465784
C13   C     C_1   0.500720 0.802666 0.497267 0.168554
C14   C     C_1   0.500867 0.197174 0.497660 0.219954
C15   C     C_R   0.658507 0.499673 0.490339 0.548580
C16   C     C_R   0.503774 0.500055 0.741352 0.613682
C17   C     C_3   0.515478 0.601737 0.072828 0.300800
C18   C     C_3   0.418021 0.458038 0.065664 0.252597
C19   C     C_3   0.529544 0.600612 0.930224 0.365225
C20   C     C_3   0.412257 0.474664 0.919604 0.398696
C21   C     C_3   0.580628 0.435151 0.080414 0.279327
C22   C     C_3   0.504544 0.498825 0.122619 -0.070928
C23   C     C_R   0.953276 0.582208 0.475213 -0.106262
C24   C     C_3   0.506889 0.499293 0.880158 0.012616
C25   C     C_3   0.328982 0.862360 0.384205 0.021261
C26   C     C_3   0.233920 0.856646 0.363729 -0.264964
C27   C     C_3   0.209714 0.800680 0.249548 -0.442513
C28   C     C_3   0.325087 0.113617 0.363401 0.023827
C29   C     C_3   0.244866 0.171520 0.355139 -0.258300
C30   C     C_3   0.260505 0.268435 0.400256 -0.343367
C31   C     C_3   0.500187 0.745355 0.818008 0.091011
C32   C     C_3   0.517905 0.822332 0.910629 -0.245118
C33   C     C_3   0.536788 0.911493 0.846613 -0.502931
C34   C     C_R   0.956879 0.420438 0.517709 -0.118265
C35   C     C_3   0.274766 0.564360 0.896420 0.089614
C36   C     C_3   0.214672 0.484178 0.875050 -0.267584
C37   C     C_3   0.123833 0.514230 0.890713 -0.486567
C38   C     C_3   0.677007 0.420189 0.774379 0.061948
C39   C     C_3   0.771856 0.402947 0.767218 -0.270715
C40   C     C_3   0.823155 0.487703 0.799382 -0.367864
C41   C     C_3   0.575801 0.249215 0.917100 0.090735
C42   C     C_3   0.671584 0.235066 0.922002 -0.274791
C43   C     C_3   0.695596 0.141541 0.974179 -0.471288
C44   C     C_3   0.066663 0.728957 0.561872 -0.002676
C45   C     C_R   0.911788 0.500467 0.491033 -0.044218
C46   C     C_3   0.021112 0.812967 0.507333 -0.261464
C47   C     C_3   0.011553 0.887505 0.603619 -0.488417
C48   C     C_3   0.064260 0.293565 0.650114 -0.010920
C49   C     C_3   0.136827 0.235381 0.704164 -0.243625
C50   C     C_3   0.110527 0.180988 0.814482 -0.469146
C51   C     C_3   0.690771 0.118552 0.582457 0.026426
C52   C     C_3   0.785836 0.110713 0.571247 -0.240652
C53   C     C_3   0.833822 0.134546 0.691049 -0.506072
C54   C     C_3   0.686941 0.867594 0.577061 0.020725
C55   C     C_3   0.764848 0.811404 0.548476 -0.245591
C56   C     C_R   0.045118 0.421435 0.527848 0.231750
C57   C     C_3   0.803220 0.765341 0.663426 -0.483625
C58   C     C_R   0.041081 0.584831 0.485399 0.241083
C59   C     C_R   0.086636 0.503398 0.506392 0.059463
C60   C     C_1   0.822323 0.499614 0.485137 -0.029141
Cu1   Cu    Cu3+1 0.500000 0.589220 0.500040 1.073877
Cu2   Cu    Cu3+1 0.500000 0.410780 0.500040 1.080634
H1    H     H_    0.917382 0.643609 0.454424 0.128715
H2    H     H_    0.311563 0.048674 0.314439 0.122136
H3    H     H_    0.374907 0.149428 0.314639 0.157243
H4    H     H_    0.220945 0.174204 0.257817 0.134463
H5    H     H_    0.196062 0.139716 0.409791 0.171723
H6    H     H_    0.310839 0.299946 0.348522 0.210608
H7    H     H_    0.278783 0.268645 0.499772 0.207288
H8    H     H_    0.202462 0.309881 0.384736 0.186558
H9    H     H_    0.448113 0.769352 0.754526 0.160090
H10   H     H_    0.552783 0.733364 0.757251 0.158593
H11   H     H_    0.462235 0.833528 0.966220 0.213873
H12   H     H_    0.923330 0.357604 0.529127 0.113366
H13   H     H_    0.572494 0.804281 0.972456 0.240841
H14   H     H_    0.595811 0.904887 0.797654 0.129221
H15   H     H_    0.544583 0.966618 0.915958 0.161713
H16   H     H_    0.484574 0.930797 0.780408 0.158573
H17   H     H_    0.253268 0.616916 0.828623 0.146450
H18   H     H_    0.265590 0.599629 0.984251 0.206344
H19   H     H_    0.219009 0.458185 0.779851 0.190806
H20   H     H_    0.229506 0.428995 0.941917 0.240154
H21   H     H_    0.116497 0.542635 0.984122 0.180286
H22   H     H_    0.081878 0.454854 0.878264 0.148119
H23   H     H_    0.353976 0.791686 0.390712 0.184310
H24   H     H_    0.104511 0.566462 0.821233 0.135031
H25   H     H_    0.661287 0.482456 0.722083 0.159529
H26   H     H_    0.642969 0.361788 0.732250 0.158852
H27   H     H_    0.793205 0.348268 0.831406 0.156735
H28   H     H_    0.785514 0.379468 0.673508 0.105973
H29   H     H_    0.890612 0.473249 0.786129 0.111249
H30   H     H_    0.815823 0.507085 0.896753 0.246227
H31   H     H_    0.802836 0.545659 0.739727 0.156992
H32   H     H_    0.551250 0.203800 0.842354 0.140049
H33   H     H_    0.546107 0.220872 0.997834 0.213360
H34   H     H_    0.355198 0.895810 0.302925 0.127209
H35   H     H_    0.693924 0.236889 0.827684 0.115358
H36   H     H_    0.704411 0.286986 0.979455 0.252587
H37   H     H_    0.674039 0.134746 0.068948 0.207325
H38   H     H_    0.764889 0.132873 0.977047 0.153685
H39   H     H_    0.667172 0.087008 0.915494 0.128982
H40   H     H_    0.128083 0.750101 0.604401 0.152288
H41   H     H_    0.030180 0.701233 0.638060 0.107361
H42   H     H_    0.056541 0.840322 0.430815 0.172653
H43   H     H_    0.957943 0.793868 0.469599 0.157737
H44   H     H_    0.976212 0.861867 0.681366 0.149045
H45   H     H_    0.207744 0.824109 0.444889 0.194574
H46   H     H_    0.976556 0.946350 0.561920 0.144943
H47   H     H_    0.074216 0.910954 0.638613 0.158578
H48   H     H_    0.012519 0.247862 0.618280 0.135767
H49   H     H_    0.041962 0.339431 0.723817 0.121975
H50   H     H_    0.158720 0.187559 0.632994 0.185350
H51   H     H_    0.189855 0.280177 0.733284 0.206484
H52   H     H_    0.090010 0.227615 0.887894 0.154480
H53   H     H_    0.164611 0.139568 0.851367 0.173148
H54   H     H_    0.058404 0.134562 0.787027 0.137588
H55   H     H_    0.672596 0.077056 0.662336 0.091339
H56   H     H_    0.206510 0.926268 0.353918 0.158229
H57   H     H_    0.673746 0.190748 0.600816 0.134851
H58   H     H_    0.802551 0.039879 0.544937 0.181102
H59   H     H_    0.805416 0.157101 0.497890 0.182863
H60   H     H_    0.821407 0.206395 0.716426 0.134972
H61   H     H_    0.902192 0.125663 0.679485 0.137385
H62   H     H_    0.815248 0.088997 0.765780 0.151342
H63   H     H_    0.642607 0.822304 0.622287 0.121821
H64   H     H_    0.705913 0.923125 0.641623 0.116954
H65   H     H_    0.747548 0.758217 0.479338 0.208410
H66   H     H_    0.812134 0.856528 0.509427 0.164152
H67   H     H_    0.235247 0.831970 0.166880 0.158494
H68   H     H_    0.821002 0.817040 0.734208 0.155828
H69   H     H_    0.860256 0.726220 0.640241 0.134159
H70   H     H_    0.757736 0.717518 0.701082 0.194229
H71   H     H_    0.140300 0.798274 0.236999 0.158727
H72   H     H_    0.234339 0.729902 0.259518 0.213062
N1    N     N_1   0.499980 0.276710 0.500040 -0.170011
N2    N     N_1   0.499980 0.723290 0.500040 -0.198586
O1    O     O_R   0.380310 0.575320 0.500060 -0.484040
O2    O     O_3   0.349584 0.096886 0.487756 -0.527163
O3    O     O_3   0.470802 0.665240 0.873886 -0.478024
O4    O     O_3   0.361660 0.550741 0.876107 -0.507933
O5    O     O_3   0.658821 0.435095 0.897693 -0.521279
O6    O     O_3   0.541992 0.337303 0.888599 -0.527958
O7    O     O_3   0.082983 0.665459 0.467409 -0.569794
O8    O     O_3   0.092656 0.342745 0.549327 -0.587849
O9    O     O_3   0.651332 0.091436 0.469534 -0.514894
O10   O     O_3   0.651109 0.903813 0.466542 -0.509187
O11   O     O_R   0.380310 0.424680 0.500060 -0.491056
O12   O     O_R   0.499990 0.575340 0.317720 -0.424809
O13   O     O_R   0.499990 0.424660 0.317720 -0.423422
O14   O     O_R   0.619690 0.575360 0.500000 -0.497408
O15   O     O_R   0.619690 0.424640 0.500000 -0.520258
O16   O     O_R   0.500010 0.575340 0.682340 -0.479101
O17   O     O_R   0.500010 0.424660 0.682340 -0.468723
O18   O     O_3   0.347743 0.909381 0.495675 -0.547677

loop_
_geom_bond_atom_site_label_1
_geom_bond_atom_site_label_2
_ccdc_geom_bond_type
C23   C58   A    
C29   H4    S    
C55   C57   S    
C8    C13   S    
Br7   C21   S    
C25   H34   S    
Cu1   O1    S    
C46   C47   S    
C16   O17   A    
C34   H12   S    
C51   O9    S    
C30   H6    S    
C2    C59   S    
C12   O5    S    
Cu1   N2    S    
C33   H16   S    
C4    C60   T    
C4    C15   S    
Cu2   N1    S    
C29   C30   S    
C39   H28   S    
C41   O6    S    
C56   O8    S    
Br8   C21   S    
C54   H63   S    
C28   C29   S    
C26   C27   S    
C34   C45   A    
C12   C24   S    
C47   H46   S    
C51   H57   S    
C46   H43   S    
Cu1   O16   S    
C48   C49   S    
Cu2   O15   S    
C45   C60   S    
C37   H22   S    
C35   O4    S    
C53   H62   S    
Br5   C19   S    
C57   H70   S    
Br6   C20   S    
C38   H25   S    
C12   O6    S    
C43   H38   S    
C15   O15   A    
C14   N1    T    
C42   H35   S    
C48   O8    S    
C23   H1    S    
C58   C59   A    
C29   H5    S    
C51   C52   S    
C43   H39   S    
C5    C6    A    
Br1   C17   S    
C32   H13   S    
C37   H24   S    
C20   C24   S    
C44   C46   S    
C42   C43   S    
C12   C21   S    
C40   H30   S    
C20   O4    S    
C11   O2    S    
C50   H52   S    
Cu2   O11   S    
Cu1   O12   S    
C56   C59   A    
Br3   C17   S    
C13   N2    T    
C28   H3    S    
C41   H32   S    
C10   C11   A    
C30   H8    S    
C44   H41   S    
C26   H45   S    
C33   H14   S    
C54   O10   S    
C52   C53   S    
C55   H65   S    
C35   C36   S    
C16   C24   S    
C21   C22   S    
C39   C40   S    
C44   H40   S    
C26   H56   S    
C15   O14   A    
C54   C55   S    
Cu1   O14   S    
C50   H53   S    
C46   H42   S    
Br2   C18   S    
C8    C10   A    
C23   C45   A    
C1    C3    S    
C7    O12   A    
C53   H60   S    
C27   H71   S    
C49   H50   S    
C57   H68   S    
C28   O2    S    
C32   C33   S    
C30   H7    S    
C18   C22   S    
C6    O9    S    
C48   H49   S    
C51   H55   S    
C35   H18   S    
Cu2   O17   S    
C34   C56   A    
C31   C32   S    
C36   H20   S    
C36   C37   S    
C7    C22   S    
C47   H47   S    
C17   C22   S    
C40   H29   S    
C38   C39   S    
C19   C24   S    
C48   H48   S    
C32   H11   S    
C52   H58   S    
C50   H54   S    
C25   H23   S    
C52   H59   S    
C41   H33   S    
Br4   C18   S    
C16   O16   A    
C7    O13   A    
C47   H44   S    
C17   C19   S    
C33   H15   S    
C18   C20   S    
C9    C14   S    
C39   H27   S    
Cu2   O13   S    
C35   H17   S    
C55   H66   S    
C54   H64   S    
C25   O18   S    
C58   O7    S    
C19   O3    S    
C31   H10   S    
C10   O18   S    
C49   C50   S    
C44   O7    S    
C40   H31   S    
C1    O1    A    
C9    C11   A    
C25   C26   S    
Cu1   Cu2   S    
C37   H21   S    
C5    O10   S    
C2    C3    T    
C53   H61   S    
C27   H72   S    
C49   H51   S    
C57   H69   S    
C38   O5    S    
C38   H26   S    
C1    O11   A    
C43   H37   S    
C41   C42   S    
C5    C8    A    
C31   O3    S    
C42   H36   S    
C27   H67   S    
C36   H19   S    
C28   H2    S    
C31   H9    S    
C6    C9    A    
