data_mof_unit_41109.cif
_audit_creation_date              2012-12-10T17:50:16-0500
_audit_creation_method            fapswitch 2.2
_symmetry_space_group_name_H-M    P1
_symmetry_Int_Tables_number       1
_space_group_crystal_system       triclinic
_cell_length_a                    10.6064
_cell_length_b                    14.796913
_cell_length_c                    14.872915
_cell_angle_alpha                 64.416814
_cell_angle_beta                  104.625107
_cell_angle_gamma                 102.912633
_cell_volume                      2019.53612909

loop_
_atom_site_label
_atom_site_type_symbol
_atom_type_description
_atom_site_fract_x
_atom_site_fract_y
_atom_site_fract_z
_atom_type_partial_charge
C1    C     C_R   0.479271 0.119734 0.312505 0.810464
C2    C     C_R   0.522953 0.880221 0.687566 0.826118
C3    C     C_R   0.498123 0.291658 0.178624 -0.250779
C4    C     C_R   0.521077 0.708048 0.822025 -0.246577
C5    C     C_R   0.509951 0.360196 0.079446 0.010851
C6    C     C_R   0.547548 0.639461 0.923113 0.013882
C7    C     C_R   0.488222 0.321417 0.003762 0.120396
C8    C     C_R   0.587265 0.678207 0.999678 0.116108
C9    C     C_R   0.540101 0.466321 0.053472 0.091237
C10   C     C_R   0.532036 0.533284 0.949906 0.097448
C11   C     C_R   0.512296 0.492034 0.876736 -0.250464
C12   C     C_R   0.581491 0.507519 0.127786 -0.241581
C13   C     C_R   0.492281 0.388474 0.903432 -0.175596
C14   C     C_R   0.605847 0.611087 0.101218 -0.172715
C15   C     C_R   0.736061 0.288872 0.658218 -0.308279
C16   C     C_R   0.262987 0.705521 0.349200 -0.306663
C17   C     C_R   0.689286 0.203213 0.636668 0.008952
C18   C     C_R   0.306858 0.792466 0.367869 -0.012214
C19   C     C_R   0.520963 0.288565 0.507094 0.508598
C20   C     C_R   0.486027 0.716138 0.491805 0.552104
C21   C     C_R   0.553628 0.372258 0.535502 -0.032281
C22   C     C_R   0.453531 0.628340 0.468611 -0.117245
C23   C     C_R   0.259552 0.000088 0.499774 0.770680
C24   C     C_R   0.740444 0.999917 0.500216 0.787846
C25   C     C_R   0.670045 0.374362 0.606257 0.104905
C26   C     C_R   0.334013 0.622821 0.400626 0.122928
C27   C     C_R   0.477943 0.455326 0.493413 0.100719
C28   C     C_R   0.530453 0.545359 0.511107 0.060836
C29   C     C_R   0.658868 0.549313 0.568072 -0.238006
C30   C     C_R   0.349265 0.449530 0.437853 -0.166609
C31   C     C_R   0.723010 0.463617 0.620015 -0.190459
C32   C     C_R   0.282374 0.533160 0.387905 -0.191889
C33   C     C_3   0.008613 0.924303 0.475742 -0.127888
C34   C     C_3   0.991369 0.075732 0.524202 -0.135128
C35   C     C_3   0.929282 0.013494 0.407409 -0.161613
C36   C     C_3   0.070697 0.986543 0.592536 -0.173669
C37   C     C_3   0.877617 0.000289 0.500211 0.019497
C38   C     C_3   0.122369 0.999744 0.499738 0.022444
C39   C     C_3   0.954700 0.911197 0.568571 -0.157636
C40   C     C_3   0.045287 0.088838 0.431375 -0.177824
C41   C     C_R   0.476298 0.187505 0.205233 -0.098191
C42   C     C_R   0.542899 0.812236 0.795434 -0.099644
C43   C     C_R   0.463035 0.216140 0.029424 0.406203
C44   C     C_R   0.607723 0.783499 0.973729 0.409274
C45   C     C_R   0.458686 0.149793 0.130749 -0.296278
C46   C     C_R   0.586725 0.849883 0.871161 -0.298303
Cu1   Cu    Cu3+1 0.465750 0.918270 0.475680 0.975390
Cu2   Cu    Cu3+1 0.534250 0.081730 0.524320 0.943261
H1    H     H_    0.868197 0.024510 0.331772 0.137554
H2    H     H_    0.131763 0.975537 0.668174 0.138070
H3    H     H_    0.251905 0.856291 0.328722 0.143901
H4    H     H_    0.740016 0.137165 0.677041 0.142650
H5    H     H_    0.823930 0.288610 0.714507 0.153351
H6    H     H_    0.172944 0.702405 0.295740 0.155183
H7    H     H_    0.713677 0.618095 0.573060 0.192344
H8    H     H_    0.295733 0.380083 0.433530 0.174834
H9    H     H_    0.018207 0.862240 0.455853 0.143287
H10   H     H_    0.981774 0.137797 0.544088 0.143188
H11   H     H_    0.914322 0.838592 0.624559 0.146996
H12   H     H_    0.085671 0.161445 0.375395 0.130813
H13   H     H_    0.478556 0.361252 0.844222 0.198558
H14   H     H_    0.638068 0.638297 0.161357 0.201248
H15   H     H_    0.479752 0.681778 0.762344 0.167632
H16   H     H_    0.503092 0.317826 0.236712 0.203663
H17   H     H_    0.603903 0.930743 0.850719 0.155770
H18   H     H_    0.441998 0.068924 0.151281 0.157781
H19   H     H_    0.516548 0.537835 0.798053 0.137607
H20   H     H_    0.600981 0.461688 0.207822 0.166384
H21   H     H_    0.817782 0.468622 0.667988 0.147578
H22   H     H_    0.186516 0.526266 0.341824 0.143779
N1    N     N_R   0.585750 0.204560 0.560800 -0.210170
N2    N     N_R   0.414250 0.795440 0.439200 -0.185636
O1    O     O_R   0.454850 0.022100 0.338110 -0.591928
O2    O     O_R   0.545150 0.977900 0.661890 -0.593602
O3    O     O_R   0.512700 0.160150 0.379180 -0.564456
O4    O     O_R   0.487300 0.839850 0.620820 -0.541312
O5    O     O_R   0.287930 0.931000 0.479440 -0.592337
O6    O     O_R   0.712070 0.069000 0.520560 -0.594894
O7    O     O_R   0.345780 0.069050 0.520520 -0.610297
O8    O     O_R   0.654220 0.930950 0.479480 -0.530638
O9    O     O_3   0.580762 0.721162 0.572160 -0.723249
H23   H     H_    0.566086 0.656380 0.630733 0.284316
O10   O     O_3   0.440487 0.299979 0.415770 -0.772009
H24   H     H_    0.378760 0.237586 0.425834 0.349866
O11   O     O_3   0.444039 0.179846 0.954858 -0.753682
H25   H     H_    0.427798 0.104956 0.985626 0.323610
O12   O     O_3   0.648329 0.819764 0.049359 -0.751937
H26   H     H_    0.657524 0.894669 0.018236 0.323575

loop_
_geom_bond_atom_site_label_1
_geom_bond_atom_site_label_2
_ccdc_geom_bond_type
C25   C31   A    
C38   C40   S    
O12   H26   S    
C26   C32   A    
C40   H12   S    
C34   C37   S    
C19   N1    A    
O9    H23   S    
C2    O4    A    
C3    H16   S    
C12   H20   S    
C4    H15   S    
C33   C39   S    
C34   C40   S    
C15   H5    S    
Cu2   O7    S    
C28   C29   A    
C35   C37   S    
Cu1   O4    S    
C15   C25   A    
C14   H14   S    
C42   C46   A    
Cu2   O6    S    
C24   O8    A    
Cu1   Cu2   S    
C44   C46   A    
C35   H1    S    
C8    C14   A    
C7    C43   A    
C44   O12   S    
C9    C10   A    
C2    O2    A    
C21   C27   A    
C22   C28   A    
C20   O9    S    
C27   C30   A    
C18   N2    A    
Cu2   O3    S    
Cu1   O8    S    
C19   O10   S    
C17   H4    S    
C11   H19   S    
C18   H3    S    
C16   C26   A    
C37   C39   S    
C43   O11   S    
Cu2   O2    S    
Cu1   O1    S    
C46   H17   S    
C4    C6    A    
C5    C7    A    
C32   H22   S    
C29   H7    S    
O11   H25   S    
C30   H8    S    
C1    O3    A    
C5    C9    A    
O10   H24   S    
C31   H21   S    
C39   H11   S    
C24   C37   S    
C23   O5    A    
C43   C45   A    
C1    C41   S    
C12   C14   A    
C17   N1    A    
Cu1   O5    S    
Cu2   N1    S    
C45   H18   S    
C36   H2    S    
C24   O6    A    
C15   C17   A    
C21   C25   A    
C3    C41   A    
C33   H9    S    
C19   C21   A    
C36   C39   S    
C8    C44   A    
C20   C22   A    
C3    C5    A    
C6    C10   A    
C6    C8    A    
C23   C38   S    
C33   C38   S    
C1    O1    A    
C36   C38   S    
C35   C40   S    
C29   C31   A    
C30   C32   A    
C11   C13   A    
C4    C42   A    
C2    C42   S    
C33   C35   S    
C34   C36   S    
C9    C12   A    
C16   H6    S    
Cu1   N2    S    
C10   C11   A    
C7    C13   A    
C13   H13   S    
C16   C18   A    
C22   C26   A    
C27   C28   A    
C34   H10   S    
C41   C45   A    
C20   N2    A    
C23   O7    A    
