data_mof_unit_40447.cif
_audit_creation_date              2012-12-10T20:42:43-0500
_audit_creation_method            fapswitch 2.2
_symmetry_space_group_name_H-M    P1
_symmetry_Int_Tables_number       1
_space_group_crystal_system       triclinic
_cell_length_a                    8.907612
_cell_length_b                    10.688982
_cell_length_c                    9.880252
_cell_angle_alpha                 90.182513
_cell_angle_beta                  90.022869
_cell_angle_gamma                 90.207193
_cell_volume                      940.720437482

loop_
_atom_site_label
_atom_site_type_symbol
_atom_type_description
_atom_site_fract_x
_atom_site_fract_y
_atom_site_fract_z
_atom_type_partial_charge
C1    C     C_R   0.503206 0.260131 0.499929 0.880790
C2    C     C_R   0.404630 0.423310 0.928380 -0.078529
C3    C     C_3   0.237435 0.425259 0.922734 0.454047
C4    C     C_R   0.218755 0.499927 0.499972 0.927988
C5    C     C_3   0.237519 0.424933 0.076471 0.467552
C6    C     C_R   0.502322 0.740001 0.500362 0.868777
C7    C     C_R   0.781263 0.500108 0.500038 0.934420
C8    C     C_1   0.065428 0.499964 0.499987 -0.139030
C9    C     C_1   0.934612 0.500035 0.500046 -0.125737
C10   C     C_R   0.502372 0.064693 0.622388 0.060326
C11   C     C_R   0.521739 0.128638 0.501296 -0.093196
C12   C     C_R   0.563496 0.935021 0.384259 -0.183382
C13   C     C_R   0.564307 0.064361 0.383780 -0.182289
C14   C     C_3   0.425338 0.875769 0.861677 -0.328252
C15   C     C_3   0.302588 0.888921 0.968440 -0.829688
C16   C     C_R   0.520273 0.871768 0.502310 -0.118961
C17   C     C_R   0.502298 0.936983 0.623699 0.104684
C18   C     C_3   0.376879 0.932058 0.725458 -0.102273
C19   C     C_3   0.378146 0.074449 0.723284 -0.375149
C20   C     C_R   0.404757 0.423159 0.070910 -0.064319
C21   C     C_R   0.603189 0.567113 0.072211 0.549143
C22   C     C_R   0.603849 0.566438 0.928362 0.522504
F1    F     F_    0.180537 0.315830 0.867278 -0.602408
F2    F     F_    0.180931 0.315171 0.130654 -0.584291
F3    F     F_    0.704163 0.638747 0.140092 -0.618566
F4    F     F_    0.705940 0.637020 0.861082 -0.619219
H1    H     H_    0.589649 0.113111 0.290520 0.188716
H2    H     H_    0.339962 0.844363 0.064059 0.243150
H3    H     H_    0.447631 0.774842 0.847334 0.236173
H4    H     H_    0.530258 0.920819 0.899184 0.238917
H5    H     H_    0.190783 0.511263 0.122946 0.038778
H6    H     H_    0.588438 0.885412 0.291181 0.205503
H7    H     H_    0.272422 0.889892 0.683067 0.171286
H8    H     H_    0.274206 0.114979 0.679362 0.218845
H9    H     H_    0.416637 0.119870 0.818670 0.239660
H10   H     H_    0.190875 0.511866 0.877267 0.041756
H11   H     H_    0.278944 0.989121 0.989016 0.303181
H12   H     H_    0.198004 0.841813 0.933746 0.267173
N1    N     N_R   0.499010 0.499140 0.142800 -0.210241
N2    N     N_R   0.499010 0.499180 0.857150 -0.211105
O1    O     O_R   0.500020 0.316790 0.614690 -0.599837
O2    O     O_R   0.500000 0.316760 0.385350 -0.600661
O3    O     O_R   0.285350 0.500020 0.614650 -0.613411
O4    O     O_R   0.285340 0.499980 0.385310 -0.607798
O5    O     O_R   0.500000 0.683240 0.614650 -0.607499
O6    O     O_R   0.499980 0.683210 0.385310 -0.599878
O7    O     O_R   0.714660 0.500020 0.614690 -0.558647
O8    O     O_R   0.714650 0.499980 0.385350 -0.563476
Zn1   Zn    Zn3+2 0.500010 0.500020 0.653130 1.022497
Zn2   Zn    Zn3+2 0.499990 0.499980 0.346870 1.031974

loop_
_geom_bond_atom_site_label_1
_geom_bond_atom_site_label_2
_ccdc_geom_bond_type
C8    C9    T    
C1    O1    A    
C15   H12   S    
C4    O3    A    
C6    O6    A    
C13   H1    S    
O6    Zn2   S    
C3    F1    S    
C21   N1    A    
O5    Zn1   S    
C10   C19   S    
C4    C8    S    
C22   N2    A    
C7    O8    A    
O8    Zn2   S    
C2    C3    S    
O7    Zn1   S    
C5    C20   S    
C19   H9    S    
C21   C22   A    
C12   H6    S    
C11   C13   A    
C15   H2    S    
C5    F2    S    
C3    H10   S    
C14   H4    S    
O1    Zn1   S    
C6    O5    A    
O2    Zn2   S    
C17   C18   S    
C18   H7    S    
C7    O7    A    
C10   C11   A    
C10   C17   A    
C2    C20   A    
N2    Zn1   S    
C2    N2    A    
C1    O2    A    
N1    Zn2   S    
C12   C13   A    
C18   C19   S    
C22   F4    S    
O4    Zn2   S    
C7    C9    S    
C20   N1    A    
C14   C18   S    
C14   C15   S    
C15   H11   S    
C21   F3    S    
C4    O4    A    
C5    H5    S    
C6    C16   S    
O3    Zn1   S    
C12   C16   A    
C14   H3    S    
C16   C17   A    
C3    C5    S    
C19   H8    S    
C1    C11   S    
