data_mof_unit_65024.cif
_audit_creation_date              2012-12-10T19:52:21-0500
_audit_creation_method            fapswitch 2.2
_symmetry_space_group_name_H-M    P1
_symmetry_Int_Tables_number       1
_space_group_crystal_system       triclinic
_cell_length_a                    18.277336
_cell_length_b                    18.278084
_cell_length_c                    31.872904
_cell_angle_alpha                 90.000536
_cell_angle_beta                  90.000098
_cell_angle_gamma                 90.001493
_cell_volume                      10647.9302866

loop_
_atom_site_label
_atom_site_type_symbol
_atom_type_description
_atom_site_fract_x
_atom_site_fract_y
_atom_site_fract_z
_atom_type_partial_charge
C1    C     C_R   0.641225 0.500022 0.000000 0.933862
C2    C     C_R   0.358775 0.500019 1.000000 0.933868
C3    C     C_R   0.141225 0.000022 0.500000 0.933848
C4    C     C_R   0.858775 0.000019 0.500000 0.933882
C5    C     C_3   0.497734 0.569989 0.735812 -0.178296
C6    C     C_3   0.502297 0.569991 0.264189 -0.178294
C7    C     C_3   0.997086 0.069965 0.235812 -0.178297
C8    C     C_3   0.998969 0.070022 0.764189 -0.178295
C9    C     C_1   0.500009 0.499938 0.836659 -0.044979
C10   C     C_1   0.499990 0.499942 0.163341 -0.044980
C11   C     C_1   0.000012 0.999938 0.336659 -0.044978
C12   C     C_1   0.000005 0.999941 0.663341 -0.044981
C13   C     C_1   0.500001 0.500101 0.663358 -0.048833
C14   C     C_1   0.500005 0.500102 0.336642 -0.048834
C15   C     C_1   0.000000 0.000101 0.163358 -0.048831
C16   C     C_1   0.000001 0.000103 0.836642 -0.048836
C17   C     C_1   0.717646 0.500061 0.000000 -0.189580
C18   C     C_1   0.282354 0.500052 1.000000 -0.189573
C19   C     C_1   0.217646 0.000061 0.500000 -0.189586
C20   C     C_1   0.782354 0.000052 0.500000 -0.189567
C21   C     C_1   0.782387 0.500054 0.000000 -0.186757
C22   C     C_1   0.217612 0.500043 1.000000 -0.186746
C23   C     C_1   0.282387 0.000055 0.500000 -0.186765
C24   C     C_1   0.717612 0.000043 0.500000 -0.186738
C25   C     C_R   0.499999 0.358652 0.500000 0.934201
C26   C     C_R   0.999999 0.858652 0.000000 0.934201
C27   C     C_R   0.500000 0.499868 0.581393 0.907043
C28   C     C_R   0.500000 0.499868 0.418607 0.907042
C29   C     C_R   1.000000 0.999868 0.081393 0.907042
C30   C     C_R   1.000000 0.999868 0.918607 0.907042
C31   C     C_R   0.500001 0.641068 0.500000 0.932945
C32   C     C_R   0.000001 0.141068 1.000000 0.932945
C33   C     C_R   0.999996 0.641157 0.000000 0.932509
C34   C     C_R   0.499996 0.141157 0.500000 0.932509
C35   C     C_R   0.858809 0.500025 1.000000 0.932421
C36   C     C_R   0.141191 0.500014 0.000000 0.932427
C37   C     C_R   0.358809 0.000025 0.500000 0.932424
C38   C     C_R   0.641191 0.000014 0.500000 0.932424
C39   C     C_R   0.500002 0.499996 0.918609 0.907368
C40   C     C_R   0.499999 0.499997 0.081390 0.907369
C41   C     C_R   0.000002 0.999996 0.418609 0.907368
C42   C     C_R   0.000001 0.999997 0.581390 0.907369
C43   C     C_R   0.000004 0.358791 1.000000 0.932051
C44   C     C_R   0.500004 0.858791 0.500000 0.932051
C45   C     C_1   0.499996 0.282265 0.500000 -0.189640
C46   C     C_1   0.999996 0.782265 0.000000 -0.189640
C47   C     C_1   0.999995 0.717544 0.000000 -0.186497
C48   C     C_1   0.499995 0.217544 0.500000 -0.186497
C49   C     C_1   0.500004 0.717543 0.500000 -0.189688
C50   C     C_1   0.000004 0.217543 1.000000 -0.189688
C51   C     C_1   0.000005 0.282315 1.000000 -0.186957
C52   C     C_1   0.500005 0.782315 0.499999 -0.186957
C53   C     C_3   0.561386 0.467293 0.735845 -0.160565
C54   C     C_3   0.559111 0.463360 0.264152 -0.160531
C55   C     C_3   0.440879 0.463377 0.735846 -0.160514
C56   C     C_3   0.438606 0.467316 0.264156 -0.160548
C57   C     C_3   0.061689 0.967865 0.235845 -0.160560
C58   C     C_3   0.060796 0.966216 0.764154 -0.160559
C59   C     C_3   0.941225 0.962829 0.235846 -0.160514
C60   C     C_3   0.940238 0.964430 0.764154 -0.160526
C61   C     C_3   0.558181 0.536347 0.763628 0.206591
C62   C     C_3   0.560417 0.532477 0.236371 0.206701
C63   C     C_3   0.439598 0.532493 0.763628 0.206677
C64   C     C_3   0.441835 0.536369 0.236374 0.206568
C65   C     C_3   0.057843 0.036887 0.263628 0.206571
C66   C     C_3   0.058811 0.035316 0.736372 0.206616
C67   C     C_3   0.939301 0.031931 0.263628 0.206709
C68   C     C_3   0.940178 0.033559 0.736373 0.206641
C69   C     C_1   0.500006 0.499972 0.874147 -0.178732
C70   C     C_1   0.499994 0.499974 0.125853 -0.178732
C71   C     C_1   0.000008 0.999972 0.374147 -0.178732
C72   C     C_1   0.000003 0.999974 0.625853 -0.178731
C73   C     C_1   0.500001 0.499981 0.625863 -0.179897
C74   C     C_1   0.500002 0.499982 0.374136 -0.179897
C75   C     C_1   0.000001 0.999981 0.125863 -0.179898
C76   C     C_1   0.000001 0.999983 0.874137 -0.179896
C77   C     C_3   0.502259 0.430653 0.763832 -0.244944
C78   C     C_3   0.497716 0.430657 0.236166 -0.244944
C79   C     C_3   0.002906 0.930678 0.263833 -0.244942
C80   C     C_3   0.001030 0.930627 0.736167 -0.244946
C81   C     C_3   0.500006 0.500024 0.791192 0.169750
C82   C     C_3   0.499993 0.500027 0.208808 0.169750
C83   C     C_3   0.000009 0.000024 0.291192 0.169743
C84   C     C_3   0.000004 0.000027 0.708808 0.169758
C85   C     C_3   0.499999 0.500256 0.708772 0.121243
C86   C     C_3   0.500008 0.500258 0.291228 0.121243
C87   C     C_3   0.999998 0.000257 0.208772 0.121242
C88   C     C_3   0.000001 0.000259 0.791228 0.121244
H1    H     H_    0.611842 0.440850 0.723760 0.146095
H2    H     H_    0.607735 0.433681 0.276236 0.146054
H3    H     H_    0.392245 0.433716 0.723757 0.146069
H4    H     H_    0.388140 0.440891 0.276245 0.146108
H5    H     H_    0.112390 0.941892 0.223759 0.146110
H6    H     H_    0.110776 0.938886 0.776240 0.146084
H7    H     H_    0.892867 0.932718 0.223758 0.146048
H8    H     H_    0.891089 0.935634 0.776242 0.146085
H9    H     H_    0.495879 0.627035 0.723892 0.142506
H10   H     H_    0.504170 0.627036 0.276110 0.142506
H11   H     H_    0.994701 0.126992 0.223892 0.142506
H12   H     H_    0.998123 0.127090 0.776110 0.142507
H13   H     H_    0.504110 0.373709 0.775891 0.155334
H14   H     H_    0.495846 0.373713 0.224107 0.155333
H15   H     H_    0.005287 0.873752 0.275891 0.155332
H16   H     H_    0.001874 0.873660 0.724107 0.155335
O1    O     O_R   0.607370 0.439420 0.000000 -0.619621
O2    O     O_R   0.392630 0.439420 0.000000 -0.619623
O3    O     O_R   0.107370 0.939420 0.500000 -0.619629
O4    O     O_R   0.892630 0.939420 0.500000 -0.619615
O5    O     O_R   0.000000 0.392690 0.965220 -0.620761
O6    O     O_R   1.000000 0.392690 0.034780 -0.620760
O7    O     O_R   0.500000 0.892690 0.465220 -0.620760
O8    O     O_R   0.500000 0.892690 0.534780 -0.620760
O9    O     O_R   0.607290 0.560580 0.000000 -0.619345
O10   O     O_R   0.392710 0.560580 0.000000 -0.619337
O11   O     O_R   0.107290 0.060580 0.500000 -0.619336
O12   O     O_R   0.892710 0.060580 0.500000 -0.619346
O13   O     O_R   0.500000 0.439420 0.938390 -0.618492
O14   O     O_R   0.500000 0.439420 0.061610 -0.618491
O15   O     O_R   0.000000 0.939420 0.438390 -0.618491
O16   O     O_R   0.000000 0.939420 0.561610 -0.618492
O17   O     O_R   0.500000 0.560580 0.938390 -0.617397
O18   O     O_R   0.500000 0.560580 0.061610 -0.617397
O19   O     O_R   0.000000 0.060580 0.438390 -0.617397
O20   O     O_R   0.000000 0.060580 0.561610 -0.617397
O21   O     O_R   0.560550 0.392540 0.500000 -0.619568
O22   O     O_R   0.439450 0.392540 0.500000 -0.619562
O23   O     O_R   0.060550 0.892540 0.000000 -0.619557
O24   O     O_R   0.939450 0.892540 0.000000 -0.619573
O25   O     O_R   0.560580 0.499860 0.561610 -0.617827
O26   O     O_R   0.560580 0.499860 0.438390 -0.617825
O27   O     O_R   0.439420 0.499860 0.561610 -0.617822
O28   O     O_R   0.439420 0.499860 0.438390 -0.617824
O29   O     O_R   0.060580 0.999860 0.061610 -0.617824
O30   O     O_R   0.060580 0.999860 0.938390 -0.617828
O31   O     O_R   0.939420 0.999860 0.061610 -0.617824
O32   O     O_R   0.939420 0.999860 0.938390 -0.617821
O33   O     O_R   0.560630 0.607160 0.500000 -0.619299
O34   O     O_R   0.439370 0.607160 0.500000 -0.619300
O35   O     O_R   0.060630 0.107160 0.000000 -0.619298
O36   O     O_R   0.939370 0.107160 0.000000 -0.619301
O37   O     O_R   0.000000 0.607310 0.965210 -0.620675
O38   O     O_R   0.000000 0.607310 0.034790 -0.620676
O39   O     O_R   0.500000 0.107310 0.465210 -0.620676
O40   O     O_R   0.500000 0.107310 0.534790 -0.620674
O41   O     O_R   0.892680 0.500000 0.965220 -0.620758
O42   O     O_R   0.892680 0.500000 0.034780 -0.620728
O43   O     O_R   0.107320 0.500000 0.965220 -0.620722
O44   O     O_R   0.107320 0.500000 0.034780 -0.620752
O45   O     O_R   0.392680 0.000000 0.465220 -0.620751
O46   O     O_R   0.392680 1.000000 0.534780 -0.620748
O47   O     O_R   0.607320 0.000000 0.465220 -0.620729
O48   O     O_R   0.607320 1.000000 0.534780 -0.620732
Zn1   Zn    Zn3+2 0.500000 0.419100 0.000000 0.969344
Zn2   Zn    Zn3+2 1.000000 0.919100 0.500000 0.969343
Zn3   Zn    Zn3+2 0.500000 0.580900 0.000000 0.970097
Zn4   Zn    Zn3+2 1.000000 0.080900 0.500000 0.970097
Zn5   Zn    Zn3+2 0.580910 0.499830 0.500000 0.969797
Zn6   Zn    Zn3+2 0.419090 0.499830 0.500000 0.969806
Zn7   Zn    Zn3+2 0.080910 0.999830 0.000000 0.969799
Zn8   Zn    Zn3+2 0.919090 0.999830 0.000000 0.969804
Zn9   Zn    Zn3+2 0.000000 0.500000 0.953550 0.967608
Zn10  Zn    Zn3+2 1.000000 0.500000 0.046450 0.967608
Zn11  Zn    Zn3+2 0.500000 0.000000 0.453550 0.967608
Zn12  Zn    Zn3+2 0.500000 0.000000 0.546450 0.967609
C89   C     C_3   0.624731 0.577539 0.779727 -0.924579
H17   H     H_    0.657411 0.597861 0.752800 0.246027
H18   H     H_    0.606780 0.624634 0.799142 0.247696
H19   H     H_    0.658965 0.540447 0.799077 0.247824
C90   C     C_3   0.629511 0.569238 0.220270 -0.924726
H20   H     H_    0.663451 0.587383 0.247197 0.246091
H21   H     H_    0.661249 0.529992 0.200918 0.247836
H22   H     H_    0.614670 0.617406 0.200857 0.247621
C91   C     C_3   0.370517 0.569280 0.779727 -0.924708
H23   H     H_    0.336589 0.587438 0.752799 0.246087
H24   H     H_    0.338759 0.530045 0.799077 0.247844
H25   H     H_    0.385378 0.617442 0.799141 0.247623
C92   C     C_3   0.375301 0.577586 0.220278 -0.924563
H26   H     H_    0.342633 0.597920 0.247207 0.246023
H27   H     H_    0.393271 0.624676 0.200865 0.247696
H28   H     H_    0.341048 0.540508 0.200929 0.247833
C93   C     C_3   0.124008 0.078695 0.279726 -0.924526
H29   H     H_    0.156499 0.099321 0.252799 0.246008
H30   H     H_    0.105622 0.125623 0.299141 0.247699
H31   H     H_    0.158588 0.041924 0.299076 0.247823
C94   C     C_3   0.126078 0.075325 0.720274 -0.924642
H32   H     H_    0.159111 0.095067 0.747201 0.246052
H33   H     H_    0.159650 0.037634 0.700924 0.247830
H34   H     H_    0.108961 0.122730 0.700859 0.247682
C95   C     C_3   0.869881 0.068074 0.279727 -0.924725
H35   H     H_    0.835783 0.085917 0.252800 0.246093
H36   H     H_    0.838488 0.028547 0.299078 0.247837
H37   H     H_    0.884292 0.116373 0.299141 0.247608
C96   C     C_3   0.871759 0.071559 0.720274 -0.924683
H38   H     H_    0.838157 0.090312 0.747202 0.246075
H39   H     H_    0.887469 0.119452 0.700861 0.247646
H40   H     H_    0.839315 0.032892 0.700923 0.247846

loop_
_geom_bond_atom_site_label_1
_geom_bond_atom_site_label_2
_ccdc_geom_bond_type
O10   Zn3   S    
C29   O29   A    
C67   C83   S    
C89   H17   S    
O23   Zn7   S    
O11   Zn4   S    
C2    C18   S    
C27   O27   A    
C90   H20   S    
C57   C79   S    
C40   O14   A    
C37   O46   A    
C80   C84   S    
C43   C51   S    
O25   Zn5   S    
C60   C88   S    
C53   H1    S    
C42   O20   A    
C65   C93   S    
C93   H29   S    
C8    C66   S    
O42   Zn10  S    
C34   O40   A    
C40   C70   S    
C80   H16   S    
O26   Zn5   S    
C14   C74   T    
C31   C49   S    
C54   H2    S    
C66   C84   S    
C55   C77   S    
C11   C71   T    
C65   C83   S    
C78   H14   S    
C25   C45   S    
C56   C78   S    
C12   C84   S    
O14   Zn1   S    
C35   O41   A    
C6    C64   S    
C95   H36   S    
C25   O21   A    
C55   H3    S    
C59   C67   S    
C77   H13   S    
C36   O44   A    
C7    C87   S    
C8    C88   S    
C20   C24   T    
C96   H39   S    
C55   C63   S    
C24   C38   S    
C56   C64   S    
C3    C19   S    
C68   C96   S    
O45   Zn11  S    
C43   O6    A    
C31   O33   A    
O17   Zn3   S    
C28   O26   A    
O5    Zn9   S    
C58   C80   S    
C41   C71   S    
C5    C85   S    
O2    Zn1   S    
O22   Zn6   S    
O30   Zn7   S    
C62   C82   S    
O35   Zn7   S    
C92   H27   S    
C89   H18   S    
C57   H5    S    
O40   Zn12  S    
C90   H21   S    
C79   H15   S    
C95   H35   S    
C1    O9    A    
O9    Zn3   S    
O18   Zn3   S    
O39   Zn11  S    
C44   O8    A    
C58   C66   S    
C63   C91   S    
C59   C87   S    
O19   Zn4   S    
C91   H24   S    
O6    Zn10  S    
O8    Zn12  S    
C34   O39   A    
C68   C84   S    
C2    O10   A    
O7    Zn11  S    
C14   C86   S    
C32   O35   A    
O43   Zn9   S    
C93   H30   S    
C59   C79   S    
C54   C86   S    
C4    O4    A    
C94   H34   S    
C54   C62   S    
C30   O30   A    
O1    Zn1   S    
C39   O13   A    
C7    C67   S    
C2    O2    A    
C17   C21   T    
C57   C87   S    
C28   O28   A    
C35   O42   A    
C10   C70   T    
C61   C81   S    
C55   C85   S    
C95   H37   S    
C19   C23   T    
C25   O22   A    
C3    O11   A    
C13   C73   T    
O27   Zn6   S    
C7    C65   S    
C5    C63   S    
C30   C76   S    
O34   Zn6   S    
C36   O43   A    
C56   C86   S    
C77   C81   S    
C92   H28   S    
C32   C50   S    
O16   Zn2   S    
C50   C51   T    
C39   C69   S    
C5    C61   S    
C26   O24   A    
C41   O15   A    
C31   O34   A    
C64   C82   S    
O48   Zn12  S    
C7    H11   S    
C59   H7    S    
C21   C35   S    
C60   H8    S    
C89   H19   S    
C29   O31   A    
C63   C81   S    
C8    C68   S    
O15   Zn2   S    
O47   Zn11  S    
O20   Zn4   S    
O13   Zn1   S    
C53   C77   S    
C33   C47   S    
C90   H22   S    
C54   C78   S    
C34   C48   S    
C53   C61   S    
C6    H10   S    
C38   O47   A    
C22   C36   S    
O24   Zn8   S    
C15   C87   S    
C15   C75   T    
C45   C48   T    
C62   C90   S    
C46   C47   T    
C60   C80   S    
O31   Zn8   S    
C93   H31   S    
C16   C76   T    
O21   Zn5   S    
C1    C17   S    
C92   H26   S    
C4    O12   A    
C49   C52   T    
C5    H9    S    
C78   C82   S    
C58   C88   S    
C44   C52   S    
O38   Zn10  S    
C67   C95   S    
C32   O36   A    
C29   C75   S    
C33   O38   A    
C37   O45   A    
C40   O18   A    
C30   O32   A    
C6    C86   S    
C1    O1    A    
O33   Zn5   S    
C6    C62   S    
O32   Zn8   S    
C33   O37   A    
C41   O19   A    
C18   C22   T    
C58   H6    S    
O44   Zn10  S    
C38   O48   A    
C23   C37   S    
O36   Zn8   S    
C96   H40   S    
C79   C83   S    
C64   C92   S    
C9    C69   T    
C42   O16   A    
C94   H32   S    
O41   Zn9   S    
C27   O25   A    
C28   C74   S    
C91   H25   S    
C10   C82   S    
C61   C89   S    
C26   O23   A    
C8    H12   S    
O37   Zn9   S    
C12   C72   T    
O28   Zn6   S    
O12   Zn4   S    
O3    Zn2   S    
C94   H33   S    
C26   C46   S    
C91   H23   S    
C4    C20   S    
C44   O7    A    
C56   H4    S    
O4    Zn2   S    
C60   C68   S    
C96   H38   S    
C66   C94   S    
C13   C85   S    
O46   Zn12  S    
C16   C88   S    
C39   O17   A    
C11   C83   S    
C53   C85   S    
C43   O5    A    
O29   Zn7   S    
C42   C72   S    
C27   C73   S    
C9    C81   S    
C57   C65   S    
C3    O3    A    
