data_mof_unit_24988.cif
_audit_creation_date              2012-12-11T14:38:10-0500
_audit_creation_method            fapswitch 2.2
_symmetry_space_group_name_H-M    P1
_symmetry_Int_Tables_number       1
_space_group_crystal_system       triclinic
_cell_length_a                    19.577306
_cell_length_b                    11.106362
_cell_length_c                    19.688688
_cell_angle_alpha                 90.010582
_cell_angle_beta                  96.841758
_cell_angle_gamma                 89.98303
_cell_volume                      4250.47836538

loop_
_atom_site_label
_atom_site_type_symbol
_atom_type_description
_atom_site_fract_x
_atom_site_fract_y
_atom_site_fract_z
_atom_type_partial_charge
C1    C     C_R   0.724156 0.955495 0.361001 0.551404
C2    C     C_R   0.275838 0.955460 0.639004 0.551486
C3    C     C_R   0.224156 0.455495 0.361001 0.551417
C4    C     C_R   0.775838 0.455460 0.639004 0.551478
C5    C     C_3   0.680996 0.449404 0.457176 -0.232319
C6    C     C_3   0.318997 0.449320 0.542833 -0.232269
C7    C     C_3   0.180996 0.949404 0.457176 -0.232320
C8    C     C_3   0.818997 0.949320 0.542833 -0.232268
C9    C     C_3   0.824167 0.484342 0.530790 -0.210043
C10   C     C_3   0.175831 0.484424 0.469232 -0.210060
C11   C     C_3   0.324167 0.984342 0.530790 -0.210045
C12   C     C_3   0.675831 0.984424 0.469232 -0.210057
C13   C     C_3   0.763578 0.293628 0.553711 -0.262297
C14   C     C_3   0.236414 0.293652 0.446259 -0.262223
C15   C     C_3   0.263578 0.793628 0.553711 -0.262296
C16   C     C_3   0.736414 0.793652 0.446259 -0.262225
C17   C     C_3   0.763186 0.428687 0.566252 0.062961
C18   C     C_3   0.236810 0.428716 0.433753 0.062977
C19   C     C_3   0.263186 0.928687 0.566252 0.062959
C20   C     C_3   0.736810 0.928716 0.433753 0.062979
C21   C     C_3   0.747339 0.393187 0.435005 0.054993
C22   C     C_3   0.252653 0.393161 0.564993 0.054892
C23   C     C_3   0.247339 0.893187 0.435005 0.054992
C24   C     C_3   0.752653 0.893161 0.564993 0.054896
C25   C     C_3   0.807959 0.479695 0.452528 -0.257317
C26   C     C_3   0.192035 0.479730 0.547495 -0.257246
C27   C     C_3   0.307959 0.979695 0.452528 -0.257316
C28   C     C_3   0.692035 0.979730 0.547495 -0.257248
C29   C     C_3   0.765231 0.275894 0.476925 -0.220909
C30   C     C_3   0.234764 0.275896 0.523041 -0.220993
C31   C     C_3   0.265231 0.775894 0.476925 -0.220911
C32   C     C_3   0.734764 0.775896 0.523041 -0.220990
C33   C     C_3   0.480905 0.305713 0.963681 -0.229006
C34   C     C_3   0.497358 0.305636 0.039879 -0.231409
C35   C     C_3   0.980139 0.805633 0.963799 -0.228950
C36   C     C_3   0.996554 0.805550 0.040019 -0.231546
C37   C     C_3   0.430512 0.097740 0.968928 -0.224282
C38   C     C_3   0.573073 0.122464 0.031450 -0.223473
C39   C     C_3   0.930667 0.596917 0.968937 -0.224330
C40   C     C_3   0.073169 0.623438 0.031467 -0.223457
C41   C     C_3   0.556061 0.123384 0.953163 -0.247365
C42   C     C_3   0.447865 0.097317 0.047448 -0.246628
C43   C     C_3   0.056152 0.624341 0.953189 -0.247403
C44   C     C_3   0.948056 0.596394 0.047466 -0.246603
C45   C     C_R   0.536321 0.180335 0.338741 0.537541
C46   C     C_R   0.463684 0.180305 0.661262 0.538565
C47   C     C_R   0.036321 0.680335 0.338741 0.537500
C48   C     C_R   0.963684 0.680305 0.661262 0.538603
C49   C     C_3   0.483447 0.175357 0.934792 0.052061
C50   C     C_3   0.512325 0.175211 0.066630 0.055655
C51   C     C_3   0.983293 0.675366 0.934844 0.052011
C52   C     C_3   0.012170 0.675210 0.066681 0.055879
C53   C     C_1   0.777868 0.467451 0.913432 -0.020818
C54   C     C_1   0.221435 0.469417 0.086274 -0.021860
C55   C     C_1   0.277909 0.967555 0.913449 -0.020838
C56   C     C_1   0.721491 0.969257 0.086298 -0.021833
C57   C     C_1   0.756068 0.429752 0.040309 -0.047623
C58   C     C_1   0.243419 0.431314 0.959399 -0.048041
C59   C     C_1   0.256100 0.929835 0.040327 -0.047537
C60   C     C_1   0.743456 0.931196 0.959416 -0.048130
C61   C     C_1   0.767045 0.450476 0.971692 -0.050871
C62   C     C_1   0.232223 0.452609 0.027956 -0.051292
C63   C     C_1   0.267090 0.950588 0.971712 -0.050821
C64   C     C_1   0.732280 0.952439 0.027983 -0.051327
C65   C     C_1   0.747206 0.404841 0.098204 -0.012911
C66   C     C_1   0.252535 0.405669 0.901634 -0.014154
C67   C     C_1   0.247223 0.904887 0.098214 -0.012861
C68   C     C_1   0.752547 0.905625 0.901636 -0.014216
C69   C     C_R   0.738835 0.360279 0.362130 0.541054
C70   C     C_R   0.261166 0.360242 0.637865 0.541170
C71   C     C_R   0.238835 0.860279 0.362130 0.541057
C72   C     C_R   0.761166 0.860242 0.637865 0.541156
C73   C     C_R   0.706418 0.994083 0.154548 0.548351
C74   C     C_R   0.293305 0.993372 0.845468 0.547024
C75   C     C_R   0.206384 0.494171 0.154546 0.548410
C76   C     C_R   0.793288 0.493328 0.845469 0.546974
C77   C     C_R   0.533200 0.179605 0.140453 0.536579
C78   C     C_R   0.464426 0.179815 0.860583 0.538056
C79   C     C_R   0.033111 0.679597 0.140493 0.536511
C80   C     C_R   0.964338 0.679823 0.860619 0.538127
C81   C     C_R   0.736441 0.360000 0.164396 0.539675
C82   C     C_R   0.263543 0.360046 0.835611 0.539399
C83   C     C_R   0.236444 0.860007 0.164398 0.539660
C84   C     C_R   0.763532 0.860083 0.835592 0.539368
C85   C     C_1   0.485043 0.172785 0.594172 -0.030680
C86   C     C_1   0.514957 0.172851 0.405827 -0.030485
C87   C     C_1   0.985043 0.672785 0.594172 -0.030684
C88   C     C_1   0.014957 0.672851 0.405827 -0.030479
C89   C     C_1   0.504510 0.169688 0.464938 -0.068593
C90   C     C_1   0.495488 0.169655 0.535059 -0.068626
C91   C     C_1   0.004510 0.669688 0.464938 -0.068592
C92   C     C_1   0.995488 0.669655 0.535059 -0.068627
C93   C     C_3   0.690899 0.472790 0.534307 -0.237904
C94   C     C_3   0.309096 0.472734 0.465708 -0.237914
C95   C     C_3   0.190899 0.972790 0.534307 -0.237905
C96   C     C_3   0.809096 0.972734 0.465708 -0.237915
Cr1   Cr    Cr6+3 0.765780 0.160710 0.267420 1.015836
Cr2   Cr    Cr6+3 0.234220 0.160710 0.732580 1.016363
Cr3   Cr    Cr6+3 0.265780 0.660710 0.267420 1.015859
Cr4   Cr    Cr6+3 0.734220 0.660710 0.732580 1.016333
Cr5   Cr    Cr6+3 0.612200 0.009560 0.248850 1.011857
Cr6   Cr    Cr6+3 0.387800 0.009560 0.751150 1.012365
Cr7   Cr    Cr6+3 0.112200 0.509560 0.248850 1.011833
Cr8   Cr    Cr6+3 0.887800 0.509560 0.751150 1.012384
Cr9   Cr    Cr6+3 0.616030 0.323720 0.248510 1.011590
Cr10  Cr    Cr6+3 0.383970 0.323720 0.751490 1.011669
Cr11  Cr    Cr6+3 0.116030 0.823720 0.248510 1.011588
Cr12  Cr    Cr6+3 0.883970 0.823720 0.751490 1.011675
H1    H     H_    0.682413 0.567313 0.544987 0.131298
H2    H     H_    0.317587 0.567248 0.455057 0.131246
H3    H     H_    0.182413 0.067313 0.544987 0.131298
H4    H     H_    0.817587 0.067248 0.455057 0.131246
H5    H     H_    0.818893 0.251111 0.469875 0.132329
H6    H     H_    0.181104 0.251150 0.530086 0.132306
H7    H     H_    0.318893 0.751111 0.469875 0.132329
H8    H     H_    0.681104 0.751150 0.530086 0.132306
H9    H     H_    0.871072 0.428605 0.544918 0.139568
H10   H     H_    0.128924 0.428744 0.455083 0.139600
H11   H     H_    0.371072 0.928605 0.544918 0.139568
H12   H     H_    0.628924 0.928744 0.455083 0.139600
H13   H     H_    0.854375 0.448857 0.429787 0.130257
H14   H     H_    0.145618 0.448922 0.570222 0.130351
H15   H     H_    0.354374 0.948857 0.429787 0.130260
H16   H     H_    0.645618 0.948922 0.570222 0.130346
H17   H     H_    0.428690 0.345560 0.950554 0.146241
H18   H     H_    0.543029 0.365002 0.052697 0.153474
H19   H     H_    0.927749 0.844777 0.950636 0.145914
H20   H     H_    0.041917 0.865619 0.052856 0.153645
H21   H     H_    0.518547 0.364646 0.941250 0.142691
H22   H     H_    0.453604 0.345214 0.063717 0.135098
H23   H     H_    0.017545 0.865180 0.941451 0.142922
H24   H     H_    0.952591 0.844321 0.063867 0.134798
H25   H     H_    0.378048 0.135656 0.955567 0.106411
H26   H     H_    0.620781 0.175632 0.046136 0.111572
H27   H     H_    0.878070 0.634315 0.955651 0.106370
H28   H     H_    0.120658 0.677197 0.046174 0.111870
H29   H     H_    0.403733 0.133644 0.071854 0.121624
H30   H     H_    0.594474 0.179031 0.929930 0.124313
H31   H     H_    0.903757 0.631921 0.071921 0.121559
H32   H     H_    0.094324 0.680583 0.929986 0.124449
H33   H     H_    0.558761 0.030195 0.932830 0.131765
H34   H     H_    0.457247 0.003387 0.065923 0.135029
H35   H     H_    0.059258 0.531232 0.932826 0.131663
H36   H     H_    0.957892 0.502502 0.065840 0.135157
H37   H     H_    0.583245 0.028053 0.048539 0.136405
H38   H     H_    0.430375 0.003430 0.949830 0.142916
H39   H     H_    0.083739 0.529102 0.048499 0.136074
H40   H     H_    0.930851 0.502672 0.949756 0.143066
H41   H     H_    0.649915 0.424836 0.558300 0.118172
H42   H     H_    0.350079 0.424743 0.441701 0.118119
H43   H     H_    0.149915 0.924836 0.558300 0.118176
H44   H     H_    0.850079 0.924743 0.441701 0.118115
H45   H     H_    0.636837 0.386731 0.444954 0.145986
H46   H     H_    0.363155 0.386603 0.555038 0.145923
H47   H     H_    0.136837 0.886731 0.444954 0.145988
H48   H     H_    0.863155 0.886603 0.555038 0.145922
H49   H     H_    0.668301 0.534963 0.429193 0.117954
H50   H     H_    0.331693 0.534861 0.570839 0.118040
H51   H     H_    0.168301 0.034963 0.429193 0.117954
H52   H     H_    0.831693 0.034861 0.570839 0.118040
H53   H     H_    0.341557 0.074088 0.549166 0.107046
H54   H     H_    0.658446 0.074196 0.450892 0.107094
H55   H     H_    0.841557 0.574088 0.549166 0.107043
H56   H     H_    0.158446 0.574196 0.450892 0.107098
H57   H     H_    0.294528 0.068618 0.430962 0.110807
H58   H     H_    0.705464 0.068633 0.569095 0.110870
H59   H     H_    0.794528 0.568618 0.430962 0.110804
H60   H     H_    0.205464 0.568633 0.569095 0.110874
H61   H     H_    0.808756 0.248606 0.582743 0.128828
H62   H     H_    0.191233 0.248678 0.417218 0.128849
H63   H     H_    0.308756 0.748606 0.582743 0.128829
H64   H     H_    0.691233 0.748678 0.417218 0.128848
H65   H     H_    0.716293 0.254828 0.570396 0.109495
H66   H     H_    0.283695 0.254811 0.429555 0.109415
H67   H     H_    0.216293 0.754829 0.570396 0.109499
H68   H     H_    0.783695 0.754811 0.429555 0.109410
O1    O     O_R   0.783100 0.287550 0.345460 -0.531126
O2    O     O_R   0.216900 0.287550 0.654540 -0.531007
O3    O     O_R   0.283100 0.787550 0.345460 -0.531125
O4    O     O_R   0.716900 0.787550 0.654540 -0.531015
O5    O     O_R   0.554710 0.081900 0.170950 -0.519822
O6    O     O_R   0.445290 0.081900 0.829050 -0.519166
O7    O     O_R   0.054710 0.581900 0.170950 -0.519870
O8    O     O_R   0.945290 0.581900 0.829050 -0.519132
O9    O     O_R   0.545650 0.284910 0.163740 -0.524705
O10   O     O_R   0.454350 0.284910 0.836260 -0.524325
O11   O     O_R   0.045650 0.784910 0.163740 -0.524681
O12   O     O_R   0.954350 0.784910 0.836260 -0.524272
O13   O     O_R   0.677950 0.374280 0.185410 -0.498096
O14   O     O_R   0.322050 0.374280 0.814590 -0.500076
O15   O     O_R   0.177950 0.874280 0.185410 -0.498023
O16   O     O_R   0.822050 0.874280 0.814590 -0.500146
O17   O     O_3   0.664670 0.164660 0.254930 -0.275884
O18   O     O_3   0.335330 0.164660 0.745070 -0.276507
O19   O     O_3   0.164670 0.664660 0.254930 -0.275907
O20   O     O_3   0.835330 0.664660 0.745070 -0.276505
O21   O     O_R   0.760020 0.037400 0.337700 -0.510060
O22   O     O_R   0.239980 0.037400 0.662300 -0.509966
O23   O     O_R   0.260020 0.537400 0.337700 -0.510056
O24   O     O_R   0.739980 0.537400 0.662300 -0.509967
O25   O     O_R   0.666600 0.921990 0.332020 -0.521349
O26   O     O_R   0.333400 0.921990 0.667980 -0.521310
O27   O     O_R   0.166600 0.421990 0.332020 -0.521349
O28   O     O_R   0.833400 0.421990 0.667980 -0.521311
O29   O     O_R   0.557260 0.082670 0.312540 -0.498865
O30   O     O_R   0.442740 0.082670 0.687460 -0.498266
O31   O     O_R   0.057260 0.582670 0.312540 -0.498890
O32   O     O_R   0.942740 0.582670 0.687460 -0.498244
O33   O     O_R   0.548410 0.285740 0.316480 -0.510993
O34   O     O_R   0.451590 0.285740 0.683520 -0.510304
O35   O     O_R   0.048410 0.785740 0.316480 -0.511019
O36   O     O_R   0.951590 0.785740 0.683520 -0.510282
O37   O     O_R   0.680500 0.375040 0.327000 -0.504355
O38   O     O_R   0.319500 0.375040 0.673000 -0.504262
O39   O     O_R   0.180500 0.875040 0.327000 -0.504354
O40   O     O_R   0.819500 0.875040 0.673000 -0.504270
O41   O     O_R   0.780350 0.286720 0.192720 -0.513350
O42   O     O_R   0.219650 0.286720 0.807280 -0.512382
O43   O     O_R   0.280350 0.786720 0.192720 -0.513365
O44   O     O_R   0.719650 0.786720 0.807280 -0.512374
O45   O     O_R   0.757470 0.036630 0.196110 -0.488202
O46   O     O_R   0.242530 0.036630 0.803890 -0.487731
O47   O     O_R   0.257470 0.536630 0.196110 -0.488166
O48   O     O_R   0.742530 0.536630 0.803890 -0.487742
O49   O     O_R   0.663840 0.921160 0.179280 -0.504966
O50   O     O_R   0.336160 0.921160 0.820720 -0.505910
O51   O     O_R   0.163840 0.421160 0.179280 -0.504898
O52   O     O_R   0.836160 0.421160 0.820720 -0.505945
H69   H     H_    0.730680 0.204033 0.457799 0.124012
H70   H     H_    0.269323 0.204007 0.542138 0.123951
H71   H     H_    0.230680 0.704033 0.457799 0.124012
H72   H     H_    0.769323 0.704007 0.542137 0.123952

loop_
_geom_bond_atom_site_label_1
_geom_bond_atom_site_label_2
_ccdc_geom_bond_type
C58   C62   S    
C39   C51   S    
C32   H72   S    
C67   C83   S    
C8    C24   S    
Cr4   O44   S    
C47   O35   A    
C76   O52   A    
C9    H9    S    
C14   C18   S    
C93   H41   S    
C35   C36   S    
C8    C96   S    
C11   H53   S    
C14   H62   S    
C11   H11   S    
Cr11  O19   S    
C9    C25   S    
Cr10  O18   S    
C79   O7    A    
C39   H27   S    
C76   O48   A    
C13   H65   S    
C40   H28   S    
C11   C19   S    
C79   O11   A    
C12   C28   S    
Cr7   O7    S    
Cr8   O28   S    
C10   C18   S    
C13   C29   S    
C16   C20   S    
C6    C22   S    
Cr7   O31   S    
C73   O45   A    
C36   H24   S    
C7    C23   S    
C4    O28   A    
Cr11  O35   S    
Cr4   O48   S    
Cr7   O51   S    
C96   H44   S    
Cr3   O19   S    
Cr6   O50   S    
Cr9   O33   S    
C49   C78   S    
Cr2   O18   S    
C3    C18   S    
Cr5   O49   S    
C95   H3    S    
Cr1   O17   S    
C37   C42   S    
C9    H55   S    
C51   C80   S    
C21   C25   S    
C84   O44   A    
C69   O1    A    
C12   H12   S    
C55   C74   S    
C43   H35   S    
C58   C66   T    
C40   C43   S    
C48   O36   A    
C45   O29   A    
C28   H58   S    
C6    C94   S    
C55   C63   T    
C39   H40   S    
C42   H34   S    
C77   O5    A    
C56   C64   T    
C78   O10   A    
Cr8   O32   S    
C23   C27   S    
C37   H38   S    
Cr2   O2    S    
C52   C79   S    
C93   H1    S    
C75   O47   A    
C36   C52   S    
C44   H36   S    
C46   C85   S    
C59   C67   T    
C44   C52   S    
C7    H47   S    
C13   H61   S    
C20   C96   S    
C1    O25   A    
Cr3   O23   S    
C87   C92   T    
C82   O14   A    
C42   H29   S    
C48   O32   A    
Cr12  O20   S    
C36   H20   S    
Cr7   O19   S    
C14   C30   S    
C95   H43   S    
C77   O9    A    
Cr6   O18   S    
C31   H7    S    
C22   C70   S    
Cr12  O36   S    
Cr5   O17   S    
Cr8   O52   S    
Cr7   O27   S    
Cr4   O20   S    
C80   O12   A    
Cr10  O38   S    
Cr3   O47   S    
C34   C50   S    
Cr9   O37   S    
Cr2   O22   S    
C15   H63   S    
C68   C84   S    
Cr1   O21   S    
C69   O37   A    
Cr10  O10   S    
C38   C41   S    
C57   C65   T    
C91   C92   S    
C27   H15   S    
C70   O2    A    
C54   C62   T    
C46   O34   A    
C12   H54   S    
C15   C31   S    
C94   H2    S    
C25   H59   S    
C21   C69   S    
C78   O6    A    
Cr6   O6    S    
C15   C19   S    
C3    O23   A    
C24   C32   S    
C38   H37   S    
Cr3   O3    S    
C10   H10   S    
C23   C71   S    
C29   H69   S    
C66   C82   S    
C83   O43   A    
C16   H64   S    
Cr1   O1    S    
C82   O42   A    
C88   C91   T    
C11   C27   S    
C34   H18   S    
C81   O41   A    
C12   C20   S    
C33   H17   S    
C33   C34   S    
Cr8   O20   S    
C48   C87   S    
C5    C21   S    
C43   H32   S    
C6    H46   S    
C32   H8    S    
C31   H71   S    
C35   H19   S    
Cr6   O30   S    
C81   O13   A    
C37   C49   S    
Cr12  O40   S    
Cr5   O29   S    
C42   C50   S    
C4    C17   S    
Cr4   O24   S    
C9    C17   S    
C72   O40   A    
C27   H57   S    
C44   H31   S    
C5    H49   S    
C25   H13   S    
Cr2   O42   S    
C35   C51   S    
C18   C94   S    
Cr1   O41   S    
C53   C76   S    
C17   C93   S    
Cr10  O14   S    
C53   C61   T    
C8    H52   S    
C50   C77   S    
C35   H23   S    
C19   C95   S    
C24   C72   S    
C30   H6    S    
C33   H21   S    
C46   O30   A    
C29   H5    S    
C1    C20   S    
C10   H56   S    
C56   C73   S    
C22   C30   S    
C40   H39   S    
Cr8   O8    S    
C2    C19   S    
C2    O22   A    
C15   H67   S    
Cr12  O12   S    
C1    O21   A    
C24   C28   S    
C80   O8    A    
Cr3   O43   S    
C86   C89   T    
C6    H50   S    
C5    C93   S    
C85   C90   T    
C28   H16   S    
C57   C61   S    
C39   C44   S    
C38   C50   S    
C13   C17   S    
C16   C32   S    
C41   C49   S    
C7    C95   S    
C41   H33   S    
C74   O46   A    
C59   C63   S    
C83   O15   A    
C47   O31   A    
C60   C64   S    
C60   C68   T    
C47   C88   S    
C30   H70   S    
C75   O51   A    
C45   C86   S    
Cr6   O26   S    
Cr10  O34   S    
C14   H66   S    
C40   C52   S    
C73   O49   A    
C3    O27   A    
Cr9   O17   S    
C10   C26   S    
C21   C29   S    
C43   C51   S    
C71   O39   A    
Cr2   O46   S    
C2    O26   A    
C96   H4    S    
Cr9   O13   S    
Cr1   O45   S    
C84   O16   A    
C70   O38   A    
C37   H25   S    
C38   H26   S    
C8    H48   S    
Cr5   O5    S    
C45   O33   A    
Cr9   O9    S    
C16   H68   S    
C71   O3    A    
C54   C75   S    
C5    H45   S    
C94   H42   S    
C4    O24   A    
C7    H51   S    
C34   H22   S    
C74   O50   A    
C22   C26   S    
Cr11  O15   S    
C72   O4    A    
C65   C81   S    
Cr12  O16   S    
Cr11  O11   S    
Cr5   O25   S    
C26   H14   S    
C41   H30   S    
C89   C90   S    
C33   C49   S    
Cr11  O39   S    
C26   H60   S    
C23   C31   S    
Cr4   O4    S    
