data_mof_unit_65376.cif
_audit_creation_date              2012-12-10T21:21:46-0500
_audit_creation_method            fapswitch 2.2
_symmetry_space_group_name_H-M    P1
_symmetry_Int_Tables_number       1
_space_group_crystal_system       triclinic
_cell_length_a                    17.438308
_cell_length_b                    16.97054
_cell_length_c                    22.823774
_cell_angle_alpha                 91.093263
_cell_angle_beta                  93.736855
_cell_angle_gamma                 91.491526
_cell_volume                      6736.3049846

loop_
_atom_site_label
_atom_site_type_symbol
_atom_type_description
_atom_site_fract_x
_atom_site_fract_y
_atom_site_fract_z
_atom_type_partial_charge
C1    C     C_R   0.353287 0.499590 0.504347 0.884179
C2    C     C_R   0.578019 0.546656 0.702254 0.075474
C3    C     C_R   0.464688 0.529452 0.225412 0.210907
C4    C     C_R   0.577428 0.571704 0.761042 0.157954
C5    C     C_R   0.539022 0.512039 0.208229 0.056797
C6    C     C_R   0.522366 0.540008 0.796411 0.155994
C7    C     C_R   0.842593 0.587229 0.478791 0.147064
C8    C     C_R   0.136871 0.462263 0.496408 0.144324
C9    C     C_R   0.169539 0.590054 0.543778 0.151184
C10   C     C_R   0.855006 0.482758 0.550886 0.141052
C11   C     C_R   0.765688 0.563849 0.464802 0.075678
C12   C     C_R   0.646899 0.501104 0.499262 0.883722
C13   C     C_R   0.215386 0.445754 0.494512 0.066704
C14   C     C_R   0.246855 0.569248 0.550235 0.081429
C15   C     C_R   0.776073 0.463766 0.542120 0.068507
C16   C     C_R   0.730912 0.506338 0.500054 -0.141171
C17   C     C_R   0.271207 0.502544 0.517802 -0.149428
C18   C     C_R   0.886759 0.544715 0.519755 -0.048845
C19   C     C_R   0.115410 0.535621 0.518466 -0.050281
C20   C     C_R   0.500292 0.498837 0.388519 0.922605
C21   C     C_R   0.501753 0.500856 0.611562 0.902046
C22   C     C_1   0.967926 0.553521 0.521373 0.125579
C23   C     C_R   0.578276 0.455001 0.241850 0.217197
C24   C     C_1   0.035975 0.550518 0.520394 0.122420
C25   C     C_R   0.476944 0.830348 0.447466 0.077932
C26   C     C_R   0.551053 0.170158 0.539905 0.100679
C27   C     C_R   0.544474 0.836373 0.543132 0.088821
C28   C     C_R   0.480387 0.164964 0.445459 0.085604
C29   C     C_R   0.460506 0.748221 0.456108 0.245534
C30   C     C_R   0.528281 0.249950 0.547591 0.159405
C31   C     C_R   0.546811 0.751616 0.540761 0.212317
C32   C     C_R   0.469768 0.249133 0.450589 0.202700
C33   C     C_R   0.512884 0.876539 0.494102 0.007689
C34   C     C_R   0.461526 0.491475 0.771969 0.182275
C35   C     C_R   0.518547 0.124836 0.491953 0.017657
C36   C     C_1   0.517611 0.964362 0.492324 -0.041070
C37   C     C_1   0.519881 0.036956 0.492070 -0.003520
C38   C     C_R   0.587748 0.500416 0.886067 0.567197
C39   C     C_R   0.540051 0.613947 0.132841 0.574896
C40   C     C_R   0.502162 0.607585 0.888020 0.581346
C41   C     C_R   0.632171 0.517842 0.130653 0.561118
C42   C     C_R   0.514733 0.615983 0.949607 -0.050810
C43   C     C_R   0.634608 0.519966 0.068807 -0.073129
C44   C     C_R   0.571172 0.568090 0.977971 -0.082710
C45   C     C_R   0.567836 0.452438 0.302076 0.049106
C46   C     C_R   0.582853 0.571249 0.039370 -0.081585
C47   C     C_R   0.612819 0.514095 0.945406 -0.047314
C48   C     C_R   0.543321 0.626683 0.072212 -0.049980
C49   C     C_R   0.475229 0.671602 0.983583 0.127306
C50   C     C_R   0.684136 0.473196 0.035757 0.118401
C51   C     C_R   0.501852 0.686378 0.042726 0.149374
C52   C     C_R   0.676864 0.475343 0.973204 0.148325
C53   C     C_3   0.398645 0.706084 0.961544 -0.384385
C54   C     C_3   0.336632 0.641517 0.948180 -0.724710
C55   C     C_3   0.738071 0.414566 0.065684 -0.351301
C56   C     C_R   0.454527 0.476816 0.710914 0.052132
C57   C     C_3   0.816947 0.452315 0.084152 -0.737405
C58   C     C_3   0.395262 0.709094 0.418647 -0.409015
C59   C     C_3   0.317403 0.736792 0.436791 -0.847870
C60   C     C_3   0.511868 0.278038 0.609030 -0.348212
C61   C     C_3   0.487189 0.214563 0.651756 -0.886586
C62   C     C_3   0.606037 0.712441 0.580725 -0.405629
C63   C     C_3   0.687914 0.731149 0.563575 -0.855911
C64   C     C_3   0.422657 0.290692 0.402302 -0.343055
C65   C     C_3   0.344747 0.253021 0.380741 -0.943351
C66   C     C_3   0.491092 0.767000 0.071530 -0.373781
C67   C     C_R   0.507428 0.495062 0.324879 -0.201533
C68   C     C_3   0.567761 0.804963 0.095332 -0.780242
C69   C     C_3   0.740105 0.441877 0.936750 -0.373778
C70   C     C_3   0.777513 0.505239 0.900344 -0.770854
C71   C     C_3   0.370498 0.542184 0.305067 -0.382165
C72   C     C_3   0.321312 0.466983 0.308083 -0.831028
C73   C     C_3   0.651486 0.557527 0.670712 -0.413756
C74   C     C_3   0.715442 0.507349 0.698143 -0.790618
C75   C     C_3   0.722769 0.597735 0.410814 -0.385191
C76   C     C_3   0.756485 0.570812 0.353651 -0.733340
C77   C     C_3   0.238238 0.366550 0.470929 -0.388188
C78   C     C_R   0.512606 0.505177 0.675841 -0.194893
C79   C     C_3   0.255612 0.310101 0.521256 -0.710873
C80   C     C_3   0.301090 0.614820 0.594869 -0.361865
C81   C     C_3   0.274795 0.609873 0.657569 -0.751700
C82   C     C_3   0.741538 0.397427 0.576759 -0.393189
C83   C     C_3   0.741892 0.319204 0.542948 -0.744922
C84   C     C_3   0.461096 0.866117 0.387303 -0.437265
C85   C     C_3   0.516487 0.834973 0.343609 -0.814884
C86   C     C_3   0.610408 0.134242 0.582616 -0.404516
C87   C     C_3   0.680335 0.105199 0.551942 -0.851177
C88   C     C_3   0.577274 0.884997 0.596550 -0.405803
C89   C     C_R   0.449613 0.524475 0.285232 0.056138
C90   C     C_3   0.512849 0.915134 0.632535 -0.829243
C91   C     C_3   0.461634 0.118189 0.388286 -0.336450
C92   C     C_3   0.388422 0.065766 0.389254 -0.867002
H1    H     H_    0.351656 0.600549 0.912652 0.287294
H2    H     H_    0.745039 0.361823 0.037288 0.177663
H3    H     H_    0.311942 0.801261 0.431391 0.259594
H4    H     H_    0.270647 0.706031 0.409157 0.261293
H5    H     H_    0.310118 0.722658 0.483386 0.271107
H6    H     H_    0.395120 0.646029 0.423616 0.264210
H7    H     H_    0.400575 0.718759 0.371218 0.201287
H8    H     H_    0.449204 0.168684 0.628669 0.265564
H9    H     H_    0.537186 0.187072 0.674786 0.255020
H10   H     H_    0.454493 0.242264 0.686539 0.290241
H11   H     H_    0.560888 0.314382 0.629231 0.219439
H12   H     H_    0.328129 0.607012 0.988250 0.258902
H13   H     H_    0.459094 0.312258 0.603565 0.269606
H14   H     H_    0.702599 0.795011 0.567928 0.261750
H15   H     H_    0.729694 0.698855 0.592293 0.258266
H16   H     H_    0.694192 0.712043 0.517380 0.274542
H17   H     H_    0.599516 0.649337 0.577858 0.272447
H18   H     H_    0.598789 0.727436 0.627495 0.196726
H19   H     H_    0.349400 0.211850 0.343143 0.282257
H20   H     H_    0.316728 0.224427 0.417172 0.276641
H21   H     H_    0.305859 0.298642 0.362818 0.245820
H22   H     H_    0.405406 0.346480 0.420780 0.261416
H23   H     H_    0.281447 0.668950 0.934231 0.246031
H24   H     H_    0.457899 0.301461 0.364278 0.227660
H25   H     H_    0.595889 0.769949 0.130723 0.279258
H26   H     H_    0.607329 0.810868 0.059336 0.252025
H27   H     H_    0.557740 0.864664 0.113591 0.247597
H28   H     H_    0.467514 0.809443 0.039170 0.188765
H29   H     H_    0.449758 0.763221 0.106336 0.259016
H30   H     H_    0.736895 0.526467 0.865302 0.286532
H31   H     H_    0.798463 0.555920 0.929080 0.257437
H32   H     H_    0.827252 0.480373 0.879015 0.249047
H33   H     H_    0.788366 0.417803 0.963635 0.199917
H34   H     H_    0.374392 0.744188 0.995239 0.188151
H35   H     H_    0.718467 0.390952 0.908877 0.256461
H36   H     H_    0.315015 0.436155 0.264634 0.290971
H37   H     H_    0.348299 0.427202 0.340849 0.240948
H38   H     H_    0.263377 0.481711 0.321827 0.253515
H39   H     H_    0.374794 0.570400 0.348771 0.188105
H40   H     H_    0.340627 0.584820 0.275948 0.242675
H41   H     H_    0.730355 0.524505 0.744628 0.288066
H42   H     H_    0.697096 0.444151 0.696356 0.252343
H43   H     H_    0.767982 0.515419 0.673719 0.253835
H44   H     H_    0.643649 0.539442 0.623863 0.184840
H45   H     H_    0.405437 0.744499 0.923424 0.258315
H46   H     H_    0.670695 0.620303 0.672516 0.235988
H47   H     H_    0.811294 0.602413 0.346641 0.276870
H48   H     H_    0.767130 0.506684 0.354109 0.284724
H49   H     H_    0.715511 0.582929 0.315759 0.254101
H50   H     H_    0.661614 0.578393 0.406326 0.226638
H51   H     H_    0.723410 0.663108 0.413998 0.222728
H52   H     H_    0.307476 0.330347 0.548607 0.277739
H53   H     H_    0.206123 0.306177 0.549445 0.277556
H54   H     H_    0.265575 0.250142 0.503838 0.226727
H55   H     H_    0.193619 0.338908 0.440010 0.230539
H56   H     H_    0.811651 0.504481 0.113425 0.293667
H57   H     H_    0.287030 0.374204 0.443493 0.205647
H58   H     H_    0.230745 0.653750 0.665847 0.277197
H59   H     H_    0.250698 0.550288 0.665886 0.288498
H60   H     H_    0.324453 0.622454 0.689708 0.255380
H61   H     H_    0.359097 0.590228 0.597420 0.238789
H62   H     H_    0.307178 0.677433 0.582383 0.217724
H63   H     H_    0.706661 0.321521 0.500779 0.283405
H64   H     H_    0.801558 0.303938 0.533825 0.279575
H65   H     H_    0.717696 0.272604 0.570158 0.236040
H66   H     H_    0.773394 0.390318 0.619702 0.226762
H67   H     H_    0.852951 0.408622 0.107879 0.252538
H68   H     H_    0.682631 0.410017 0.588933 0.206906
H69   H     H_    0.576584 0.852182 0.358633 0.262154
H70   H     H_    0.512098 0.769830 0.338759 0.261535
H71   H     H_    0.503102 0.860851 0.299924 0.259620
H72   H     H_    0.400753 0.854925 0.370269 0.221520
H73   H     H_    0.469887 0.930696 0.388746 0.228476
H74   H     H_    0.700432 0.149632 0.520923 0.268851
H75   H     H_    0.727903 0.094241 0.585293 0.258965
H76   H     H_    0.666867 0.049155 0.527292 0.261165
H77   H     H_    0.632928 0.179004 0.615862 0.219454
H78   H     H_    0.847048 0.471954 0.045469 0.233298
H79   H     H_    0.583803 0.084606 0.605827 0.222169
H80   H     H_    0.473967 0.953315 0.605971 0.261375
H81   H     H_    0.478882 0.864636 0.648636 0.269221
H82   H     H_    0.537954 0.950258 0.670977 0.253398
H83   H     H_    0.616450 0.852527 0.626703 0.226787
H84   H     H_    0.612773 0.935499 0.582363 0.213676
H85   H     H_    0.391962 0.023927 0.425812 0.255961
H86   H     H_    0.336224 0.099574 0.394698 0.270148
H87   H     H_    0.380066 0.031552 0.347273 0.248454
H88   H     H_    0.459259 0.156558 0.349630 0.217520
H89   H     H_    0.712423 0.387472 0.103673 0.265456
H90   H     H_    0.510456 0.079544 0.379982 0.199235
I1    I     I_    0.607687 0.346767 0.200055 -0.289401
I2    I     I_    0.928933 0.419185 0.611671 -0.335378
I3    I     I_    0.381358 0.442438 0.828897 -0.268510
I4    I     I_    0.642079 0.380534 0.355824 -0.330526
I5    I     I_    0.356993 0.411859 0.672087 -0.385863
I6    I     I_    0.371862 0.538837 0.159164 -0.348717
I7    I     I_    0.657721 0.659932 0.797836 -0.393184
I8    I     I_    0.893375 0.689729 0.441465 -0.348801
I9    I     I_    0.048069 0.377880 0.465194 -0.332366
I10   I     I_    0.133459 0.705314 0.568279 -0.345329
N1    N     N_R   0.535692 0.548373 0.858802 -0.324432
N2    N     N_R   0.569826 0.546809 0.156183 -0.313010
N3    N     N_R   0.500000 0.707230 0.500000 -0.149119
N4    N     N_R   0.500000 0.292770 0.500000 -0.151967
O1    O     O_R   0.389110 0.566570 0.500000 -0.635570
O2    O     O_2   0.505382 0.665176 0.167607 -0.566835
O3    O     O_2   0.458865 0.658601 0.856816 -0.555205
O4    O     O_2   0.692401 0.494315 0.165092 -0.553801
O5    O     O_R   0.610890 0.433430 0.500000 -0.580552
O6    O     O_R   0.610890 0.566570 0.500000 -0.640725
O7    O     O_R   0.389110 0.433430 0.500000 -0.622927
O8    O     O_R   0.499970 0.566560 0.416150 -0.637852
O9    O     O_R   0.500030 0.433440 0.583850 -0.621667
O10   O     O_R   0.500030 0.566560 0.583850 -0.645701
O11   O     O_R   0.499970 0.433440 0.416150 -0.614466
O12   O     O_2   0.613373 0.438852 0.855475 -0.564193
Zn1   Zn    Zn3+2 0.500000 0.588860 0.500000 0.901095
Zn2   Zn    Zn3+2 0.500000 0.411140 0.500000 0.926987

loop_
_geom_bond_atom_site_label_1
_geom_bond_atom_site_label_2
_ccdc_geom_bond_type
C66   C68   S    
C75   C76   S    
C34   C56   A    
C8    C13   A    
C23   C45   A    
C86   H77   S    
C10   I2    S    
C73   C74   S    
C20   C67   S    
C61   H9    S    
C5    C23   A    
C58   H6    S    
C32   N4    A    
C3    I6    S    
C75   H51   S    
C80   H61   S    
C79   H53   S    
C53   C54   S    
C27   C33   A    
C7    C11   A    
C90   H81   S    
C62   C63   S    
C88   H83   S    
C59   H3    S    
C72   H36   S    
C64   H24   S    
C54   H12   S    
C36   C37   T    
C35   C37   S    
N3    Zn1   S    
C10   C15   A    
C41   O4    S    
C68   H27   S    
C82   H66   S    
C45   I4    S    
C87   H74   S    
C83   H63   S    
C73   H46   S    
C8    I9    S    
C81   H58   S    
C74   H41   S    
C67   C89   A    
C33   C36   S    
C56   C78   A    
C21   O9    A    
C85   H69   S    
C65   H19   S    
C54   H1    S    
C84   H73   S    
C68   H26   S    
C71   H40   S    
C70   H31   S    
C9    C19   A    
C48   C51   A    
C87   H75   S    
C12   C16   S    
C28   C35   A    
C49   C51   A    
C30   C60   S    
C21   C78   S    
C45   C67   A    
C25   C84   S    
C50   C52   A    
C73   H44   S    
C7    I8    S    
C52   C69   S    
C14   C80   S    
C79   H54   S    
C60   H11   S    
C77   H55   S    
C84   H72   S    
C44   C47   A    
C14   C17   A    
N4    Zn2   S    
C76   H49   S    
C40   C42   A    
C57   H67   S    
C69   H33   S    
C66   H28   S    
C91   H88   S    
C85   H70   S    
C41   C43   A    
C31   C62   S    
C27   C88   S    
C42   C44   A    
C55   H2    S    
C44   C46   A    
C15   C82   S    
C13   C77   S    
C40   N1    A    
C76   H48   S    
C25   C29   A    
C39   N2    A    
C46   C48   A    
C66   H29   S    
C8    C19   A    
C64   H22   S    
C27   C31   A    
C86   H79   S    
C28   C32   A    
C84   C85   S    
C20   O8    A    
C4    C6    A    
C53   H34   S    
C77   H57   S    
C91   C92   S    
C86   C87   S    
C83   H64   S    
C58   C59   S    
C29   N3    A    
C54   H23   S    
C6    C34   A    
C60   C61   S    
C51   C66   S    
C21   O10   A    
O8    Zn1   S    
C34   I3    S    
C2    C4    A    
C9    C14   A    
C65   H20   S    
C23   I1    S    
C41   N2    A    
C2    C78   A    
C92   H87   S    
C68   H25   S    
O11   Zn2   S    
C82   H68   S    
C11   C16   A    
C70   H30   S    
C79   H52   S    
C83   H65   S    
C56   I5    S    
C26   C86   S    
C7    C18   A    
C30   N4    A    
C74   H43   S    
C72   H37   S    
C55   H89   S    
C77   C79   S    
O7    Zn2   S    
C12   O5    A    
C63   H14   S    
C72   H38   S    
C32   C64   S    
C38   C47   A    
C2    C73   S    
C38   O12   S    
C71   C89   S    
C92   H86   S    
C39   O2    S    
C88   C90   S    
C26   C30   A    
C12   O6    A    
C55   C57   S    
C87   H76   S    
C59   H5    S    
C53   H45   S    
C57   H56   S    
C61   H8    S    
C59   H4    S    
O6    Zn1   S    
C63   H15   S    
C9    I10   S    
O5    Zn2   S    
C57   H78   S    
C76   H47   S    
C18   C22   S    
C65   H21   S    
C4    I7    S    
C1    O1    A    
C58   H7    S    
C80   C81   S    
C3    C5    A    
C85   H71   S    
C43   C50   A    
C80   H62   S    
C47   C52   A    
C40   O3    S    
C81   H60   S    
C90   H82   S    
C1    C17   S    
C50   C55   S    
C88   H84   S    
C38   N1    A    
C13   C17   A    
C3    C89   A    
C64   C65   S    
C61   H10   S    
C71   C72   S    
C81   H59   S    
C75   H50   S    
C31   N3    A    
O10   Zn1   S    
C62   H17   S    
O9    Zn2   S    
C10   C18   A    
C49   C53   S    
C74   H42   S    
C62   H18   S    
C19   C24   S    
C28   C91   S    
C22   C24   T    
C69   C70   S    
C43   C46   A    
O1    Zn1   S    
C92   H85   S    
C42   C49   A    
C71   H39   S    
C70   H32   S    
C26   C35   A    
C29   C58   S    
C69   H35   S    
C82   C83   S    
C91   H90   S    
C90   H80   S    
C5    N2    S    
C11   C75   S    
C20   O11   A    
C63   H16   S    
C6    N1    S    
C60   H13   S    
C15   C16   A    
C25   C33   A    
C39   C48   A    
C1    O7    A    
