data_mof_unit_54339.cif
_audit_creation_date              2013-03-05T16:00:51-0500
_audit_creation_method            fapswitch 2.2
_symmetry_space_group_name_H-M    P1
_symmetry_Int_Tables_number       1
_space_group_crystal_system       triclinic
_cell_length_a                    21.189973
_cell_length_b                    21.232613
_cell_length_c                    14.018563
_cell_angle_alpha                 90.28673
_cell_angle_beta                  90.187546
_cell_angle_gamma                 90.069822
_cell_volume                      6307.09320665

loop_
_atom_site_label
_atom_site_type_symbol
_atom_site_description
_atom_site_fract_x
_atom_site_fract_y
_atom_site_fract_z
_atom_type_partial_charge
O1    O     O_R   0.066090 0.433930 0.580280 -0.574232
O2    O     O_R   0.933910 0.566070 0.419720 -0.633761
O3    O     O_R   0.933910 0.566070 0.580280 -0.572911
O4    O     O_R   0.066090 0.433930 0.419720 -0.629775
O5    O     O_R   0.933910 0.433930 0.419720 -0.639796
O6    O     O_R   0.066090 0.566070 0.580280 -0.576870
O7    O     O_R   0.066090 0.566070 0.419720 -0.647027
O8    O     O_R   0.933910 0.433930 0.580280 -0.576847
O9    O     O_R   0.566090 0.933930 0.580280 -0.630347
O10   O     O_R   0.433910 0.066070 0.419720 -0.566108
O11   O     O_R   0.433910 0.066070 0.580280 -0.630442
O12   O     O_R   0.566090 0.933930 0.419720 -0.565561
O13   O     O_R   0.433910 0.933930 0.419720 -0.588440
O14   O     O_R   0.566090 0.066070 0.580280 -0.644855
O15   O     O_R   0.566090 0.066070 0.419720 -0.588165
O16   O     O_R   0.433910 0.933930 0.580280 -0.644962
C1    C     C_R   0.087858 0.414639 0.500003 0.959519
C2    C     C_R   0.912171 0.585409 0.500059 0.957701
C3    C     C_R   0.914582 0.412241 0.499815 0.955283
C4    C     C_R   0.085766 0.587370 0.500347 0.963657
C5    C     C_R   0.587781 0.914587 0.499866 0.960190
C6    C     C_R   0.412243 0.085435 0.499958 0.956333
C7    C     C_R   0.414279 0.912580 0.499671 0.963143
C8    C     C_R   0.585623 0.087572 0.500143 0.960652
Zn1   Zn    Zn3+2 1.000000 0.500000 0.607200 1.104901
Zn2   Zn    Zn3+2 0.000000 0.500000 0.392800 0.996389
Zn3   Zn    Zn3+2 0.500000 0.000000 0.607200 1.000048
Zn4   Zn    Zn3+2 0.500000 0.000000 0.392800 1.106494
C9    C     C_R   0.129608 0.685229 0.567831 0.277537
C10   C     C_R   0.873145 0.312828 0.565282 0.276877
C11   C     C_R   0.815600 0.630902 0.570278 0.279272
C12   C     C_R   0.184916 0.369876 0.569869 0.284823
C13   C     C_R   0.631687 0.182746 0.429632 0.277484
C14   C     C_R   0.370693 0.814438 0.432514 0.273242
C15   C     C_R   0.315855 0.130824 0.429368 0.278104
C16   C     C_R   0.683516 0.868346 0.428626 0.278243
C17   C     C_R   0.132712 0.635920 0.501315 -0.169769
C18   C     C_R   0.869584 0.361736 0.498711 -0.167028
C19   C     C_R   0.862204 0.631083 0.499577 -0.171215
C20   C     C_R   0.137785 0.368950 0.499497 -0.165788
C21   C     C_R   0.632845 0.135972 0.499730 -0.176421
C22   C     C_R   0.367531 0.863825 0.498909 -0.175238
C23   C     C_R   0.362728 0.131498 0.500112 -0.167162
C24   C     C_R   0.637190 0.868408 0.499767 -0.166736
C25   C     C_R   0.181887 0.630932 0.436489 -0.212469
C26   C     C_R   0.822701 0.363442 0.429415 -0.217069
C27   C     C_R   0.862627 0.675881 0.427635 -0.194004
C28   C     C_R   0.136617 0.323270 0.428176 -0.199374
C29   C     C_R   0.681377 0.132205 0.566400 -0.197015
C30   C     C_R   0.318666 0.868485 0.564331 -0.192934
C31   C     C_R   0.364351 0.177545 0.570827 -0.207356
C32   C     C_R   0.635978 0.822948 0.570664 -0.206695
C33   C     C_R   0.231118 0.674163 0.437838 0.056265
C34   C     C_R   0.777330 0.316375 0.424181 0.050266
C35   C     C_R   0.816683 0.722333 0.423981 0.052291
C36   C     C_R   0.182380 0.276591 0.424736 0.048793
C37   C     C_R   0.732072 0.173749 0.562942 0.056583
C38   C     C_R   0.269661 0.825016 0.563469 0.056789
C39   C     C_R   0.319027 0.224660 0.573649 0.047472
C40   C     C_R   0.681285 0.775856 0.573503 0.046400
C41   C     C_R   0.227202 0.726136 0.501621 0.053189
C42   C     C_R   0.778525 0.267971 0.493480 0.054682
C43   C     C_R   0.771185 0.724767 0.497883 0.049431
C44   C     C_R   0.228514 0.274986 0.498268 0.051747
C45   C     C_R   0.730754 0.222436 0.493986 0.050878
C46   C     C_R   0.273536 0.773088 0.499593 0.048898
C47   C     C_R   0.272905 0.226282 0.500074 0.054544
C48   C     C_R   0.726809 0.773463 0.499566 0.054282
C49   C     C_R   0.176624 0.731397 0.567052 -0.005714
C50   C     C_R   0.827042 0.265629 0.563121 -0.007696
C51   C     C_R   0.770118 0.678483 0.570273 -0.013981
C52   C     C_R   0.230265 0.322139 0.570107 -0.012041
C53   C     C_R   0.680822 0.226510 0.426790 -0.008573
C54   C     C_R   0.324005 0.767930 0.433947 -0.006187
C55   C     C_R   0.271048 0.179038 0.428363 -0.012613
C56   C     C_R   0.728125 0.819956 0.427423 -0.010389
C57   C     C_R   0.283178 0.667816 0.375541 -0.067684
C58   C     C_R   0.729295 0.317995 0.354077 -0.070325
C59   C     C_R   0.816800 0.767939 0.350871 -0.053783
C60   C     C_R   0.181589 0.229984 0.352240 -0.053052
C61   C     C_R   0.783234 0.168944 0.627731 -0.061629
C62   C     C_R   0.217841 0.831117 0.626273 -0.057405
C63   C     C_R   0.320203 0.271618 0.645604 -0.057341
C64   C     C_R   0.680686 0.729673 0.645906 -0.057234
C65   C     C_R   0.829397 0.215614 0.627853 -0.157389
C66   C     C_R   0.172612 0.783682 0.628070 -0.154783
C67   C     C_R   0.276958 0.320652 0.641093 -0.145197
C68   C     C_R   0.724001 0.680688 0.641629 -0.147090
C69   C     C_R   0.328264 0.715402 0.373424 -0.146524
C70   C     C_R   0.680614 0.274326 0.358326 -0.144261
C71   C     C_R   0.773649 0.817159 0.355223 -0.157196
C72   C     C_R   0.224798 0.180895 0.356759 -0.151081
H1    H     H_    0.180971 0.592619 0.385390 0.201474
H2    H     H_    0.820842 0.403575 0.382233 0.195398
H3    H     H_    0.901024 0.675463 0.377002 0.201696
H4    H     H_    0.097797 0.323321 0.377917 0.201197
H5    H     H_    0.678975 0.096032 0.620267 0.208823
H6    H     H_    0.319582 0.906803 0.615410 0.206358
H7    H     H_    0.403131 0.177327 0.621145 0.202895
H8    H     H_    0.597573 0.823631 0.621249 0.203351
H9    H     H_    0.868214 0.211676 0.677880 0.224864
H10   H     H_    0.132785 0.789179 0.675575 0.223947
H11   H     H_    0.279086 0.356850 0.695659 0.236703
H12   H     H_    0.722419 0.645127 0.696646 0.237014
H13   H     H_    0.368189 0.709843 0.326127 0.227163
H14   H     H_    0.643091 0.277363 0.305984 0.230928
H15   H     H_    0.774925 0.852417 0.299739 0.228697
H16   H     H_    0.223011 0.144915 0.301818 0.232653
C73   C     C_R   0.944276 0.496445 0.797465 0.116298
C74   C     C_R   0.055737 0.503856 0.202504 0.049072
C75   C     C_R   0.055692 0.504487 0.798097 0.113527
C76   C     C_R   0.944142 0.497276 0.201904 0.062720
C77   C     C_R   0.447198 0.981683 0.797462 0.056765
C78   C     C_R   0.552427 0.019377 0.202520 0.127368
C79   C     C_R   0.552804 0.018312 0.798244 0.056686
C80   C     C_R   0.447622 0.980462 0.201737 0.119253
N1    N     N_R   0.000000 0.500000 0.750030 -0.147324
N2    N     N_R   1.000000 0.500000 0.249970 -0.139022
N3    N     N_R   0.500000 1.000000 0.750030 -0.135676
N4    N     N_R   0.500000 1.000000 0.249970 -0.145831
C81   C     C_R   0.057455 0.505481 0.898994 -0.114009
C82   C     C_R   0.942190 0.498904 0.100983 -0.106762
C83   C     C_R   0.942429 0.496832 0.898310 -0.114328
C84   C     C_R   0.057514 0.503781 0.101630 -0.105610
C85   C     C_R   0.554016 0.020222 0.899094 -0.106322
C86   C     C_R   0.445778 0.980273 0.100879 -0.115313
C87   C     C_R   0.446011 0.979684 0.898260 -0.106648
C88   C     C_R   0.554274 0.019543 0.101699 -0.116293
C89   C     C_R   0.999924 0.501081 0.949408 0.014196
C90   C     C_R   0.999875 0.501132 0.050576 0.020425
C91   C     C_R   0.500014 0.999946 0.949413 0.026586
C92   C     C_R   0.500018 0.999931 0.050569 0.013107
C93   C     C_R   0.115022 0.509747 0.950181 0.225381
C94   C     C_R   0.884436 0.497383 0.049678 0.222487
C95   C     C_R   0.884708 0.494955 0.948638 0.220977
C96   C     C_R   0.115089 0.507941 0.051128 0.221829
C97   C     C_R   0.607990 0.040680 0.950328 0.229435
C98   C     C_R   0.391817 0.959786 0.049595 0.227230
C99   C     C_R   0.392070 0.959118 0.948646 0.229035
C100  C     C_R   0.608271 0.039946 0.051263 0.229018
H17   H     H_    0.901529 0.493719 0.755593 0.214195
H18   H     H_    0.098534 0.507286 0.244332 0.178492
H19   H     H_    0.098463 0.507069 0.756713 0.213501
H20   H     H_    0.901399 0.493473 0.243290 0.182362
H21   H     H_    0.406144 0.968829 0.755836 0.176234
H22   H     H_    0.592604 0.034756 0.244119 0.205463
H23   H     H_    0.593825 0.031233 0.757178 0.176510
H24   H     H_    0.407507 0.964949 0.242752 0.203495
N5    N     N_R   0.077396 0.689659 0.632725 0.201587
O17   O     O_R   0.086573 0.682654 0.723876 -0.317536
O18   O     O_R   0.020231 0.696384 0.600196 -0.387918
N6    N     N_R   0.923849 0.310873 0.633510 0.202382
O19   O     O_R   0.912451 0.319917 0.723690 -0.320735
O20   O     O_R   0.981872 0.305100 0.604703 -0.384599
N7    N     N_R   0.814889 0.582856 0.641949 0.200682
O21   O     O_R   0.805096 0.524351 0.618096 -0.371202
O22   O     O_R   0.829144 0.597032 0.729802 -0.349859
N8    N     N_R   0.186438 0.419022 0.640625 0.200065
O23   O     O_R   0.195443 0.477226 0.615340 -0.360100
O24   O     O_R   0.173785 0.406155 0.729185 -0.353408
N9    N     N_R   0.579583 0.186841 0.363989 0.202902
O25   O     O_R   0.522825 0.197013 0.395637 -0.374537
O26   O     O_R   0.587921 0.174153 0.274002 -0.347708
N10   N     N_R   0.422592 0.810319 0.367004 0.200202
O27   O     O_R   0.479988 0.804140 0.398846 -0.384022
O28   O     O_R   0.412817 0.816629 0.275869 -0.330859
N11   N     N_R   0.313939 0.081285 0.359230 0.206442
O29   O     O_R   0.329111 0.093084 0.271237 -0.330398
O30   O     O_R   0.303905 0.023413 0.385289 -0.358103
N12   N     N_R   0.685195 0.917404 0.358461 0.206502
O31   O     O_R   0.669168 0.905158 0.270624 -0.330961
O32   O     O_R   0.695869 0.975372 0.384443 -0.359293
C101  C     C_2   0.294237 0.611689 0.313938 0.961363
O33   O     O_2   0.284508 0.558643 0.344189 -0.569620
O34   O     O_R   0.319421 0.619602 0.222688 -0.716808
H25   H     H_    0.326642 0.578065 0.188467 0.399414
C102  C     C_2   0.728692 0.363065 0.273565 0.969044
O35   O     O_2   0.777247 0.374190 0.229910 -0.562273
O36   O     O_R   0.671757 0.390307 0.244633 -0.744407
H26   H     H_    0.677061 0.419450 0.188162 0.399448
C103  C     C_2   0.859465 0.764889 0.267006 0.939735
O37   O     O_2   0.884343 0.812969 0.237437 -0.556806
O38   O     O_R   0.868916 0.707723 0.219140 -0.759877
H27   H     H_    0.898350 0.711964 0.162652 0.369060
C104  C     C_2   0.138002 0.231120 0.268958 0.939388
O39   O     O_2   0.127911 0.280307 0.226537 -0.575987
O40   O     O_R   0.111017 0.174911 0.236022 -0.748345
H28   H     H_    0.083090 0.181314 0.178008 0.376351
C105  C     C_2   0.791786 0.115719 0.695061 0.985218
O41   O     O_2   0.780982 0.061594 0.669564 -0.585765
O42   O     O_R   0.815773 0.127452 0.786503 -0.713037
H29   H     H_    0.821453 0.087534 0.824934 0.397606
C106  C     C_2   0.207176 0.886806 0.688883 0.981762
O43   O     O_2   0.216256 0.940083 0.659107 -0.588428
O44   O     O_R   0.183120 0.878175 0.780676 -0.708774
H30   H     H_    0.175964 0.919448 0.815634 0.395333
C107  C     C_2   0.364206 0.270931 0.728397 0.942666
O45   O     O_2   0.374186 0.222073 0.771729 -0.588336
O46   O     O_R   0.391697 0.327255 0.759875 -0.741102
H31   H     H_    0.419863 0.321198 0.817714 0.378599
C108  C     C_2   0.637265 0.731169 0.728949 0.942382
O47   O     O_2   0.627607 0.780444 0.772004 -0.587375
O48   O     O_R   0.609970 0.675156 0.760947 -0.741931
H32   H     H_    0.582191 0.681776 0.818884 0.378955
N13   N     N_R   0.173864 0.514993 0.900267 0.246623
O49   O     O_R   0.219093 0.475033 0.916542 -0.244819
O50   O     O_R   0.184479 0.563157 0.845551 -0.292969
N14   N     N_R   0.825227 0.498480 0.099421 0.230375
O51   O     O_R   0.780821 0.458748 0.076665 -0.275039
O52   O     O_R   0.812524 0.544422 0.158046 -0.338811
N15   N     N_R   0.825930 0.492795 0.897485 0.247848
O53   O     O_R   0.784144 0.536924 0.909804 -0.247557
O54   O     O_R   0.811915 0.444051 0.844897 -0.290902
N16   N     N_R   0.173896 0.512313 0.101853 0.216724
O55   O     O_R   0.211127 0.560183 0.088348 -0.301349
O56   O     O_R   0.192702 0.466008 0.155290 -0.323234
N17   N     N_R   0.663252 0.061459 0.900488 0.224624
O57   O     O_R   0.717512 0.034968 0.916887 -0.299401
O58   O     O_R   0.660504 0.110459 0.845260 -0.364517
N18   N     N_R   0.337054 0.937715 0.099372 0.231625
O59   O     O_R   0.315840 0.881030 0.083964 -0.253998
O60   O     O_R   0.304801 0.976141 0.152777 -0.275928
N19   N     N_R   0.336834 0.938252 0.897944 0.224525
O61   O     O_R   0.282484 0.964483 0.914487 -0.299444
O62   O     O_R   0.339702 0.889388 0.841740 -0.362300
N20   N     N_R   0.663117 0.061813 0.101918 0.232603
O63   O     O_R   0.684552 0.118416 0.087580 -0.263325
O64   O     O_R   0.695210 0.023267 0.155085 -0.276873

loop_
_geom_bond_atom_site_label_1
_geom_bond_atom_site_label_2
_geom_bond_distance
_ccdc_geom_bond_type
C64   C108  1.486447 S    
C67   H11   1.082435 S    
C95   N15   1.435729 S    
O48   H32   1.013941 S    
C8    C21   1.433521 S    
C16   N12   1.436707 S    
C75   C81   1.414842 A    
C58   C102  1.483424 S    
C40   C64   1.414908 A    
C108  O47   1.223027 D    
C13   N9    1.437969 S    
N19   O61   1.300912 A    
C14   C22   1.400428 A    
C94   N14   1.437556 S    
C2    C19   1.436683 S    
C25   H1    1.081338 S    
C74   N2    1.360096 A    
N18   O60   1.300722 A    
N9    O25   1.301196 A    
C104  O39   1.223105 D    
C29   C37   1.390260 A    
C12   C52   1.397547 A    
C101  O33   1.222989 D    
O10   C6    1.282296 A    
C10   C18   1.401577 A    
N9    O26   1.301280 A    
O7    Zn2   2.014464 S    
C85   C97   1.415246 A    
C32   C40   1.387638 A    
O12   Zn4   2.019467 S    
C54   C69   1.401138 A    
C27   C35   1.387696 A    
N10   O27   1.301197 A    
C39   C63   1.414888 A    
C53   C70   1.400600 A    
C14   N10   1.437522 S    
C38   C62   1.415328 A    
N16   O56   1.301146 A    
C104  O40   1.398436 S    
O6    Zn1   2.018807 S    
O2    C2    1.283921 A    
N12   O31   1.301161 A    
C93   N13   1.436259 S    
C46   C54   1.417149 A    
C79   H23   1.080064 S    
C45   C53   1.417327 A    
O13   C7    1.281567 A    
O3    C2    1.283432 A    
C20   C28   1.389606 A    
O14   C8    1.284336 A    
C107  O46   1.398433 S    
C9    C49   1.396938 A    
C82   C94   1.417736 A    
C62   C106  1.486995 S    
C16   C56   1.397056 A    
C51   C68   1.401365 A    
C39   C47   1.419155 A    
C25   C33   1.388722 A    
C77   N3    1.360762 A    
C33   C41   1.419506 A    
C41   C46   1.398812 A    
C74   H18   1.080497 S    
O34   H25   1.013877 S    
N14   O51   1.300861 A    
C106  O44   1.398476 S    
C35   C43   1.418305 A    
C93   C96   1.415834 A    
C15   N11   1.436673 S    
C60   C104  1.486601 S    
C36   C44   1.418889 A    
O13   Zn4   2.018810 S    
N20   O63   1.301060 A    
O11   Zn3   2.019467 S    
O14   Zn3   2.018807 S    
C63   C107  1.486541 S    
C15   C23   1.401303 A    
C10   C50   1.398836 A    
C59   C71   1.390675 A    
C75   H19   1.079179 S    
C74   C84   1.414726 A    
C24   C32   1.389187 A    
O16   Zn3   2.014467 S    
C103  O38   1.398906 S    
C98   N18   1.435393 S    
O46   H31   1.014041 S    
N13   O50   1.301213 A    
C80   C86   1.414275 A    
C83   C89   1.413829 A    
O1    Zn1   2.018556 S    
O8    Zn1   2.014467 S    
C108  O48   1.398404 S    
C42   C50   1.416520 A    
C107  O45   1.223051 D    
C87   C99   1.415356 A    
C88   C92   1.413994 A    
C21   C29   1.390024 A    
N18   O59   1.301042 A    
C68   H12   1.082591 S    
C38   C46   1.419529 A    
C61   C65   1.391549 A    
C12   N8    1.436359 S    
C101  O34   1.398490 S    
C31   H7    1.081246 S    
C97   C100  1.415126 A    
C30   H6    1.081252 S    
O8    C3    1.281998 A    
C78   C88   1.414067 A    
C84   C96   1.415442 A    
C61   C105  1.486919 S    
C73   N1    1.359245 A    
O42   H29   1.013664 S    
C30   C38   1.388436 A    
C44   C47   1.399037 A    
C71   H15   1.082616 S    
O3    Zn1   2.019467 S    
C78   H22   1.079654 S    
N11   O30   1.301136 A    
Zn4   N4    2.002273 S    
C37   C45   1.419079 A    
N11   O29   1.301232 A    
C80   H24   1.079840 S    
N16   O55   1.300889 A    
C73   C83   1.414365 A    
O44   H30   1.013714 S    
C34   C42   1.417933 A    
C102  O36   1.398367 S    
N17   O57   1.300895 A    
C103  O37   1.223218 D    
C29   H5    1.081066 S    
O12   C5    1.282170 A    
C32   H8    1.081215 S    
C58   C70   1.387799 A    
C59   C103  1.486637 S    
C79   N3    1.360638 A    
C83   C95   1.414626 A    
C1    C20   1.436275 S    
C64   C68   1.389196 A    
C60   C72   1.389704 A    
C33   C57   1.415372 A    
O38   H27   1.013909 S    
N15   O53   1.301207 A    
C76   C82   1.415829 A    
C3    C18   1.434093 S    
C5    C24   1.435296 S    
C35   C59   1.413534 A    
C85   C91   1.414018 A    
C10   N6    1.436887 S    
C6    C23   1.435243 S    
C26   H2    1.081987 S    
C86   C92   1.414113 A    
C57   C69   1.390169 A    
C26   C34   1.387407 A    
C84   C90   1.414504 A    
O2    Zn2   2.018556 S    
C48   C56   1.417099 A    
N7    O22   1.300858 A    
C7    C22   1.431903 S    
C70   H14   1.082381 S    
C43   C51   1.416403 A    
C55   C72   1.401309 A    
C22   C30   1.388750 A    
C77   C87   1.414185 A    
O4    C1    1.284074 A    
C13   C53   1.395476 A    
O15   C8    1.281467 A    
N15   O54   1.301159 A    
C14   C54   1.397223 A    
O7    C4    1.283442 A    
O16   C7    1.283284 A    
C77   H21   1.079960 S    
C12   C20   1.401548 A    
N8    O23   1.301365 A    
C9    C17   1.400253 A    
C37   C61   1.416116 A    
C11   N7    1.435519 S    
C15   C55   1.397168 A    
C31   C39   1.388134 A    
C69   H13   1.082790 S    
C91   C92   1.418065 A    
C66   H10   1.082813 S    
C52   C67   1.401496 A    
C65   H9    1.082755 S    
O9    Zn3   2.018556 S    
C19   C27   1.389810 A    
C89   C90   1.418237 A    
N6    O20   1.301122 A    
O10   Zn4   2.018556 S    
C28   C36   1.388214 A    
N13   O49   1.301141 A    
C43   C48   1.398588 A    
C86   C98   1.415551 A    
C57   C101  1.487477 S    
C28   H4    1.081343 S    
C42   C45   1.399009 A    
O1    C1    1.283064 A    
Zn2   N2    2.002273 S    
C81   C89   1.414341 A    
Zn1   N1    2.002271 S    
C63   C67   1.389347 A    
O4    Zn2   2.019467 S    
N19   O62   1.301223 A    
C94   C95   1.417137 A    
O5    C3    1.283837 A    
Zn3   N3    2.002271 S    
O36   H26   1.013661 S    
N17   O58   1.301203 A    
O6    C4    1.281283 A    
O11   C6    1.284310 A    
N20   O64   1.300749 A    
C36   C60   1.414997 A    
C96   N16   1.435377 S    
C75   N1    1.360027 A    
C41   C49   1.417095 A    
C76   H20   1.080349 S    
N10   O28   1.301203 A    
C88   C100  1.415578 A    
C13   C21   1.400789 A    
O40   H28   1.014033 S    
C62   C66   1.389815 A    
N5    O17   1.301180 A    
C76   N2    1.361103 A    
C4    C17   1.431670 S    
N8    O24   1.301236 A    
O9    C5    1.284492 A    
O15   Zn4   2.014464 S    
N12   O32   1.301157 A    
C23   C31   1.389158 A    
C79   C85   1.414294 A    
C11   C51   1.397073 A    
C11   C19   1.401438 A    
C99   N19   1.435823 S    
C72   H16   1.082625 S    
C44   C52   1.416871 A    
C105  O41   1.222926 D    
C87   C91   1.413909 A    
C100  N20   1.435448 S    
C18   C26   1.387830 A    
C16   C24   1.401651 A    
C98   C99   1.415193 A    
C102  O35   1.222260 D    
C56   C71   1.401592 A    
C9    N5    1.437514 S    
O5    Zn2   2.018810 S    
N5    O18   1.301198 A    
C80   N4    1.361000 A    
C47   C55   1.417023 A    
N6    O19   1.301182 A    
C40   C48   1.419007 A    
N14   O52   1.301336 A    
C106  O43   1.222948 D    
C97   N17   1.435695 S    
N7    O21   1.301058 A    
C27   H3    1.081503 S    
C73   H17   1.079098 S    
C81   C93   1.415802 A    
C50   C65   1.401121 A    
C17   C25   1.388662 A    
C82   C90   1.414745 A    
C78   N4    1.361013 A    
C49   C66   1.400903 A    
C105  O42   1.398531 S    
C34   C58   1.413129 A    
