data_mof_unit_49174.cif
_audit_creation_date              2012-12-11T15:35:24-0500
_audit_creation_method            fapswitch 2.2
_symmetry_space_group_name_H-M    P1
_symmetry_Int_Tables_number       1
_space_group_crystal_system       triclinic
_cell_length_a                    17.438329
_cell_length_b                    24.41655
_cell_length_c                    14.890901
_cell_angle_alpha                 89.567367
_cell_angle_beta                  124.894859
_cell_angle_gamma                 91.176254
_cell_volume                      5199.17463092

loop_
_atom_site_label
_atom_site_type_symbol
_atom_type_description
_atom_site_fract_x
_atom_site_fract_y
_atom_site_fract_z
_atom_type_partial_charge
C1    C     C_R   0.337999 0.145591 0.906448 -0.037783
C2    C     C_R   0.309434 0.874783 0.907161 -0.153703
C3    C     C_R   0.836934 0.645163 0.908343 -0.062268
C4    C     C_R   0.812048 0.371731 0.910206 -0.170235
C5    C     C_R   0.649550 0.150708 0.093965 -0.109959
C6    C     C_R   0.681784 0.869295 0.088986 -0.129443
C7    C     C_R   0.150916 0.650420 0.094073 -0.091445
C8    C     C_R   0.182511 0.369790 0.093070 -0.133765
C9    C     C_R   0.594002 0.874416 0.905967 -0.114810
C10   C     C_R   0.559573 0.153022 0.912473 -0.153177
C11   C     C_R   0.089252 0.365760 0.909456 -0.129535
C12   C     C_R   0.058720 0.653177 0.912613 -0.172869
C13   C     C_R   0.432326 0.000172 0.631911 0.043338
C14   C     C_R   0.043649 0.502014 0.717973 0.029825
C15   C     C_R   0.824854 0.002369 0.297257 0.078103
C16   C     C_R   0.300091 0.500944 0.365170 0.070033
C17   C     C_R   0.620585 0.184450 0.005569 0.117507
C18   C     C_R   0.677194 0.856668 0.995675 0.074127
C19   C     C_R   0.120619 0.684361 0.005324 0.123412
C20   C     C_R   0.173958 0.351044 0.001066 0.078354
C21   C     C_3   0.041461 0.985122 0.582671 -0.452882
C22   C     C_3   0.073347 0.059818 0.489398 -0.465135
C23   C     C_3   0.524593 0.451264 0.625259 -0.427954
C24   C     C_3   0.530007 0.553776 0.618913 -0.454420
C25   C     C_3   0.938260 0.985296 0.489616 -0.385471
C26   C     C_3   0.969463 0.060899 0.396925 -0.405505
C27   C     C_3   0.420996 0.449619 0.530101 -0.394528
C28   C     C_3   0.424388 0.552570 0.531305 -0.407926
C29   C     C_3   0.080560 0.960500 0.447641 1.330531
C30   C     C_3   0.559391 0.497873 0.498152 1.341080
C31   C     C_3   0.101244 0.001265 0.539574 0.080042
C32   C     C_3   0.574411 0.500731 0.611391 0.054419
C33   C     C_3   0.925258 0.003071 0.381603 0.229549
C34   C     C_3   0.397754 0.501177 0.457680 0.239913
C35   C     C_R   0.403382 0.869742 0.089955 -0.103705
C36   C     C_R   0.433541 0.148562 0.091064 -0.158014
C37   C     C_R   0.902284 0.375453 0.093533 -0.104021
C38   C     C_R   0.928297 0.645368 0.093230 -0.151853
C39   C     C_3   0.975971 0.962952 0.352369 -0.555570
C40   C     C_3   0.455247 0.501266 0.407832 -0.570332
C41   C     C_R   0.151132 0.817402 0.904639 0.541018
C42   C     C_R   0.219990 0.214747 0.948990 0.556325
C43   C     C_R   0.652619 0.318357 0.908669 0.541470
C44   C     C_R   0.715356 0.721735 0.926696 0.554061
C45   C     C_R   0.608867 0.270749 0.910419 -0.297504
C46   C     C_R   0.673493 0.769672 0.922024 -0.376391
C47   C     C_R   0.107913 0.769911 0.907686 -0.296958
C48   C     C_R   0.175143 0.259520 0.951423 -0.389910
C49   C     C_R   0.644426 0.242982 0.009264 -0.046474
C50   C     C_R   0.727759 0.813801 0.989737 -0.087551
C51   C     C_R   0.143587 0.742870 0.007411 -0.046102
C52   C     C_R   0.225850 0.307917 0.001045 -0.087470
C53   C     C_R   0.710599 0.270355 0.108825 0.553687
C54   C     C_R   0.825909 0.811619 0.061229 0.551173
C55   C     C_R   0.208613 0.771044 0.106123 0.558950
C56   C     C_R   0.322924 0.312806 0.051401 0.551074
C57   C     C_R   0.255870 0.816716 0.101968 -0.369306
C58   C     C_R   0.367844 0.267444 0.050247 -0.301005
C59   C     C_R   0.758712 0.315853 0.105837 -0.369627
C60   C     C_R   0.867735 0.763425 0.065486 -0.291592
C61   C     C_R   0.236377 0.834288 0.001356 -0.083437
C62   C     C_R   0.316002 0.219742 0.998309 -0.086111
C63   C     C_R   0.738232 0.334750 0.005656 -0.080903
C64   C     C_R   0.812512 0.719279 0.999051 -0.080641
C65   C     C_R   0.388999 0.950457 0.464809 -0.094239
C66   C     C_R   0.392273 0.049714 0.466015 -0.149313
C67   C     C_R   0.105016 0.453630 0.627088 -0.154934
C68   C     C_R   0.099187 0.552687 0.620749 -0.150632
C69   C     C_R   0.397626 0.950519 0.378210 -0.169495
C70   C     C_R   0.401041 0.049760 0.379612 -0.158661
C71   C     C_R   0.109237 0.453235 0.537170 -0.169052
C72   C     C_R   0.104214 0.552363 0.531527 -0.165717
C73   C     C_R   0.415237 0.000162 0.344899 0.135413
C74   C     C_R   0.098189 0.502325 0.482020 0.129757
C75   C     C_R   0.485716 0.045784 0.254571 -0.112177
C76   C     C_R   0.493390 0.954995 0.264929 -0.129143
C77   C     C_R   0.046385 0.546033 0.301902 -0.109510
C78   C     C_R   0.048506 0.455301 0.304271 -0.135875
C79   C     C_R   0.397907 0.000092 0.517013 0.164908
C80   C     C_R   0.088312 0.502982 0.660057 0.140238
C81   C     C_R   0.244551 0.954522 0.695729 -0.134282
C82   C     C_R   0.246707 0.046195 0.697722 -0.126739
C83   C     C_R   0.729780 0.454143 0.726002 -0.082664
C84   C     C_R   0.731568 0.546392 0.734106 -0.028777
C85   C     C_R   0.362343 0.173689 0.998673 0.150032
C86   C     C_R   0.312089 0.860098 0.999055 0.106856
C87   C     C_R   0.856133 0.670748 0.001185 0.158861
C88   C     C_R   0.813158 0.361436 0.002934 0.104568
C89   C     C_R   0.460650 0.000209 0.288049 0.045872
C90   C     C_R   0.063999 0.501111 0.367031 0.048827
C91   C     C_R   0.198638 0.000629 0.635131 0.098517
C92   C     C_R   0.674729 0.500152 0.695299 0.046211
C93   C     C_R   0.450795 0.045572 0.696542 -0.117846
C94   C     C_R   0.449154 0.954727 0.695804 -0.126243
C95   C     C_R   0.016770 0.546951 0.749096 -0.097703
C96   C     C_R   0.010222 0.455804 0.740659 -0.096389
C97   C     C_R   0.769517 0.955364 0.267100 -0.152538
C98   C     C_R   0.768467 0.047750 0.260170 -0.146215
C99   C     C_R   0.253322 0.454733 0.303723 -0.146026
C100  C     C_R   0.254703 0.546487 0.302857 -0.140132
H1    H     H_    0.290756 0.157708 0.821849 0.091915
H2    H     H_    0.252990 0.869582 0.822295 0.148716
H3    H     H_    0.794330 0.660155 0.825301 0.109113
H4    H     H_    0.759108 0.359131 0.827818 0.142243
H5    H     H_    0.054928 0.014442 0.647427 0.195619
H6    H     H_    0.085327 0.090228 0.551654 0.183481
H7    H     H_    0.531448 0.455135 0.703979 0.194244
H8    H     H_    0.544099 0.557705 0.701570 0.203397
H9    H     H_    0.901191 0.013732 0.510152 0.176573
H10   H     H_    0.936106 0.091131 0.419330 0.172345
H11   H     H_    0.376816 0.447562 0.562022 0.175249
H12   H     H_    0.385946 0.551795 0.570554 0.180633
H13   H     H_    0.908301 0.943470 0.481598 0.178227
H14   H     H_    0.959871 0.074794 0.319781 0.177893
H15   H     H_    0.407733 0.411566 0.482398 0.175933
H16   H     H_    0.406587 0.591043 0.483664 0.168244
H17   H     H_    0.944000 0.921154 0.335815 0.199954
H18   H     H_    0.968103 0.976638 0.276075 0.190603
H19   H     H_    0.433499 0.466112 0.350231 0.195898
H20   H     H_    0.441578 0.539285 0.359373 0.187180
H21   H     H_    0.549798 0.254776 0.833379 0.162051
H22   H     H_    0.597796 0.771224 0.870215 0.148080
H23   H     H_    0.049201 0.753536 0.830899 0.166429
H24   H     H_    0.100857 0.256471 0.916156 0.151963
H25   H     H_    0.312511 0.835255 0.177801 0.136612
H26   H     H_    0.442608 0.269442 0.088127 0.184341
H27   H     H_    0.816661 0.333095 0.182213 0.142029
H28   H     H_    0.943214 0.760580 0.119386 0.183808
H29   H     H_    0.386068 0.911348 0.497253 0.111754
H30   H     H_    0.392156 0.088780 0.499534 0.108012
H31   H     H_    0.104949 0.414786 0.662390 0.109945
H32   H     H_    0.093488 0.591757 0.649893 0.115585
H33   H     H_    0.432988 0.855555 0.171699 0.089926
H34   H     H_    0.473556 0.164117 0.174111 0.110263
H35   H     H_    0.929196 0.371721 0.178868 0.096811
H36   H     H_    0.965816 0.658795 0.177567 0.113515
H37   H     H_    0.399963 0.911569 0.345833 0.105045
H38   H     H_    0.406562 0.088882 0.349167 0.115015
H39   H     H_    0.111343 0.414069 0.505408 0.108771
H40   H     H_    0.102360 0.591308 0.495526 0.115861
H41   H     H_    0.476279 0.088167 0.264486 0.095408
H42   H     H_    0.498534 0.914103 0.294742 0.087214
H43   H     H_    0.062657 0.588472 0.326891 0.088230
H44   H     H_    0.067310 0.413713 0.332755 0.085405
H45   H     H_    0.229585 0.912324 0.669183 0.176544
H46   H     H_    0.236676 0.088711 0.673765 0.089636
H47   H     H_    0.707530 0.413169 0.693754 0.136742
H48   H     H_    0.712457 0.588679 0.715426 0.111101
H49   H     H_    0.434492 0.087671 0.670645 0.086663
H50   H     H_    0.430479 0.912646 0.668814 0.095956
H51   H     H_    0.028365 0.589781 0.741487 0.097057
H52   H     H_    0.008897 0.414527 0.715539 0.088512
H53   H     H_    0.792575 0.914371 0.295845 0.102811
H54   H     H_    0.788440 0.090542 0.274680 0.100029
H55   H     H_    0.265989 0.412464 0.329155 0.092281
H56   H     H_    0.269260 0.589112 0.326694 0.096692
H57   H     H_    0.686850 0.161719 0.178957 0.171654
H58   H     H_    0.731172 0.853716 0.170076 0.117273
H59   H     H_    0.191335 0.660970 0.179644 0.167646
H60   H     H_    0.236189 0.360612 0.177638 0.115171
H61   H     H_    0.565245 0.867652 0.820480 0.103917
H62   H     H_    0.514911 0.167151 0.829054 0.095624
H63   H     H_    0.056146 0.349704 0.827716 0.099972
H64   H     H_    0.012593 0.667584 0.829644 0.103056
H65   H     H_    0.059808 0.943653 0.620270 0.209796
H66   H     H_    0.115708 0.073048 0.458501 0.202994
H67   H     H_    0.555469 0.411704 0.626568 0.214719
H68   H     H_    0.559660 0.590873 0.604790 0.197997
N1    N     N_R   0.392140 0.102630 0.941800 -0.053436
N2    N     N_R   0.392140 0.897370 0.941800 -0.046694
N3    N     N_R   0.892140 0.602630 0.941800 -0.059903
N4    N     N_R   0.892140 0.397370 0.941800 -0.045602
N5    N     N_R   0.450890 0.896450 0.057150 -0.044629
N6    N     N_R   0.450890 0.103550 0.057150 -0.044697
N7    N     N_R   0.950890 0.396450 0.057150 -0.046577
N8    N     N_R   0.950890 0.603550 0.057150 -0.046821
N9    N     N_R   0.525160 0.027960 0.206160 -0.041957
N10   N     N_R   0.525160 0.972040 0.206160 -0.040591
N11   N     N_R   0.025160 0.527960 0.206160 -0.038175
N12   N     N_R   0.025160 0.472040 0.206160 -0.039558
N13   N     N_R   0.317870 0.971120 0.792790 -0.051083
N14   N     N_R   0.317870 0.028880 0.792790 -0.039589
N15   N     N_R   0.817870 0.471120 0.792790 -0.049271
N16   N     N_R   0.817870 0.528880 0.792790 -0.051983
N17   N     N_R   0.473480 0.027920 0.793480 -0.039250
N18   N     N_R   0.473480 0.972080 0.793480 -0.041094
N19   N     N_R   0.973480 0.527920 0.793480 -0.039715
N20   N     N_R   0.973480 0.472080 0.793480 -0.039786
N21   N     N_R   0.681610 0.971120 0.207570 -0.038486
N22   N     N_R   0.681610 0.028880 0.207570 -0.041464
N23   N     N_R   0.181610 0.471120 0.207570 -0.037578
N24   N     N_R   0.181610 0.528880 0.207570 -0.039662
N25   N     N_R   0.605410 0.102620 0.056870 -0.054623
N26   N     N_R   0.605410 0.897380 0.056870 -0.042602
N27   N     N_R   0.105410 0.602620 0.056870 -0.056439
N28   N     N_R   0.105410 0.397380 0.056870 -0.043498
N29   N     N_R   0.549680 0.896430 0.944180 -0.045206
N30   N     N_R   0.549680 0.103570 0.944180 -0.043399
N31   N     N_R   0.049680 0.396430 0.944180 -0.043979
N32   N     N_R   0.049680 0.603570 0.944180 -0.045392
Ni1   Ni    Ni4+2 0.433410 0.064680 0.868830 0.210296
Ni2   Ni    Ni4+2 0.433410 0.935320 0.868830 0.223358
Ni3   Ni    Ni4+2 0.933410 0.564680 0.868830 0.229466
Ni4   Ni    Ni4+2 0.933410 0.435320 0.868830 0.234381
Ni5   Ni    Ni4+2 0.565650 0.934380 0.131170 0.221180
Ni6   Ni    Ni4+2 0.565650 0.065620 0.131170 0.217324
Ni7   Ni    Ni4+2 0.065650 0.434380 0.131170 0.208481
Ni8   Ni    Ni4+2 0.065650 0.565620 0.131170 0.212495
F1    F     F_    0.100007 0.907155 0.485666 -0.729119
F2    F     F_    0.135190 0.974213 0.410166 -0.714757
F3    F     F_    0.592895 0.449122 0.487093 -0.713531
F4    F     F_    0.606589 0.540848 0.486821 -0.717251
O1    O     O_3   0.110354 0.844472 0.806482 -0.761171
H69   H     H_    0.127249 0.883892 0.823447 0.305120
O2    O     O_3   0.172956 0.165539 0.902702 -0.764491
H70   H     H_    0.105719 0.169662 0.871864 0.312706
O3    O     O_3   0.612108 0.346077 0.811261 -0.782182
H71   H     H_    0.633512 0.384855 0.829145 0.299411
O4    O     O_3   0.663130 0.676239 0.865533 -0.777404
H72   H     H_    0.595940 0.685486 0.818693 0.311446
O5    O     O_3   0.730733 0.251348 0.207475 -0.795127
H73   H     H_    0.777854 0.275929 0.267648 0.318980
O6    O     O_3   0.882400 0.854585 0.127786 -0.740188
H74   H     H_    0.845604 0.888447 0.105513 0.311638
O7    O     O_3   0.228294 0.752638 0.204930 -0.790200
H75   H     H_    0.274783 0.777698 0.264524 0.318918
O8    O     O_3   0.375408 0.360127 0.100490 -0.735093
H76   H     H_    0.333766 0.390902 0.085749 0.318207

loop_
_geom_bond_atom_site_label_1
_geom_bond_atom_site_label_2
_ccdc_geom_bond_type
C68   C80   A    
C38   C87   A    
C30   C32   S    
C43   C63   A    
C13   C79   S    
C58   C62   A    
C65   C79   A    
C63   C88   S    
N14   Ni1   S    
C96   N20   A    
C37   C88   A    
C93   H49   S    
N13   Ni2   S    
C41   C61   A    
O2    H70   S    
C3    N3    A    
C35   H33   S    
C26   H14   S    
C53   C59   A    
C95   N19   A    
C29   F2    S    
C54   C60   A    
N13   N14   A    
C44   C64   A    
C36   N6    A    
C83   C92   A    
C21   C31   S    
C33   C39   S    
C8    C20   A    
C78   N12   A    
N15   Ni4   S    
C29   C31   S    
C24   H68   S    
C28   H12   S    
C48   C52   A    
C76   N10   A    
C30   F4    S    
C35   C86   A    
C49   C53   A    
N26   N29   A    
C7    H59   S    
C2    H2    S    
C10   C17   A    
C53   O5    S    
N25   N30   A    
C96   H52   S    
N10   Ni5   S    
N19   Ni3   S    
C21   H65   S    
N9    Ni6   S    
N18   Ni2   S    
C68   H32   S    
C2    C86   A    
N17   Ni1   S    
C57   C61   A    
N4    Ni4   S    
C76   H42   S    
C39   H17   S    
C42   O2    S    
C75   H41   S    
C16   C34   S    
C47   H23   S    
N22   Ni6   S    
N27   Ni8   S    
O6    H74   S    
N21   Ni5   S    
C99   H55   S    
N1    N6    A    
C37   H35   S    
C69   C73   A    
C24   H8    S    
C23   C27   S    
N12   Ni7   S    
C28   H16   S    
C26   H10   S    
C64   C87   S    
C51   C55   A    
N4    N7    A    
C25   H9    S    
C76   C89   A    
C100  H56   S    
C81   N13   A    
C97   N21   A    
C27   H11   S    
C10   H62   S    
N16   Ni3   S    
C69   H37   S    
N24   Ni8   S    
C100  N24   A    
C44   O4    S    
C15   C97   A    
N28   N31   A    
C10   N30   A    
C14   C96   A    
C6    H58   S    
C6    N26   A    
C44   C46   A    
C46   C50   A    
C84   H48   S    
C27   C34   S    
C1    C85   A    
C6    C18   A    
C5    H57   S    
C77   C90   A    
C22   C31   S    
C3    C87   A    
N23   N24   A    
C35   N5    A    
C94   N18   A    
C84   N16   A    
C72   C74   A    
C59   H27   S    
C17   C49   S    
C30   F3    S    
C38   H36   S    
C16   C100  A    
C47   C51   A    
C32   C92   S    
C45   H21   S    
O3    H71   S    
O1    H69   S    
C11   C20   A    
N20   Ni4   S    
C78   C90   A    
C82   C91   A    
C13   C93   A    
C81   C91   A    
C42   C48   A    
N15   N16   A    
C24   C32   S    
C77   H43   S    
C66   C79   A    
C78   H44   S    
C65   H29   S    
C37   N7    A    
O5    H73   S    
C41   O1    S    
C26   C33   S    
C38   N8    A    
O8    H76   S    
C60   H28   S    
C68   C72   A    
C23   H7    S    
C29   C39   S    
C70   C73   A    
C11   H63   S    
O7    H75   S    
C41   C47   A    
C30   C40   S    
N29   Ni2   S    
C77   N11   A    
C9    H61   S    
C43   C45   A    
C98   N22   A    
C2    N2    A    
C83   H47   S    
C25   H13   S    
C43   O3    S    
C12   N32   A    
C58   H26   S    
C81   H45   S    
C14   C80   S    
C55   C57   A    
N31   Ni4   S    
C97   H53   S    
C23   H67   S    
C95   H51   S    
C82   H46   S    
C15   C98   A    
C7    N27   A    
C8    H60   S    
C1    H1    S    
C14   C95   A    
O4    H72   S    
C18   C50   S    
C5    N25   A    
N27   N32   A    
C3    H3    S    
N26   Ni5   S    
C21   C25   S    
N11   Ni8   S    
C83   N15   A    
N7    Ni7   S    
N25   Ni6   S    
C4    N4    A    
C56   O8    S    
C40   H20   S    
N23   Ni7   S    
C59   C63   A    
C9    N29   A    
C67   H31   S    
C67   C80   A    
C24   C28   S    
C31   C91   S    
C36   H34   S    
C48   H24   S    
C71   C74   A    
C71   H39   S    
C16   C99   A    
C29   F1    S    
C4    C88   A    
C42   C62   A    
C36   C85   A    
C94   H50   S    
C39   H18   S    
N3    N8    A    
C82   N14   A    
C7    C19   A    
C13   C94   A    
C60   C64   A    
C23   C32   S    
N8    Ni8   S    
N28   Ni7   S    
C73   C89   S    
N19   N20   A    
C50   C54   A    
C22   H6    S    
C57   H25   S    
C99   N23   A    
C98   H54   S    
C70   H38   S    
C55   O7    S    
N17   N18   A    
C66   C70   A    
C12   H64   S    
N32   Ni3   S    
C65   C69   A    
C74   C90   S    
C4    H4    S    
C12   C19   A    
C1    N1    A    
C56   C58   A    
C45   C49   A    
C8    N28   A    
N30   Ni1   S    
C67   C71   A    
C28   C34   S    
N3    Ni3   S    
N21   N22   A    
C75   N9    A    
C11   N31   A    
N2    Ni2   S    
C46   H22   S    
C61   C86   S    
C75   C89   A    
N1    Ni1   S    
N11   N12   A    
C22   H66   S    
C19   C51   S    
C9    C18   A    
C72   H40   S    
C40   H19   S    
C5    C17   A    
C20   C52   S    
N9    N10   A    
C22   C26   S    
C25   C33   S    
N6    Ni6   S    
C62   C85   S    
C34   C40   S    
N5    Ni5   S    
C84   C92   A    
C54   O6    S    
C15   C33   S    
C21   H5    S    
C52   C56   A    
C93   N17   A    
C66   H30   S    
N2    N5    A    
C27   H15   S    
