data_mof_unit_31805.cif
_audit_creation_date              2012-12-10T18:05:12-0500
_audit_creation_method            fapswitch 2.2
_symmetry_space_group_name_H-M    P1
_symmetry_Int_Tables_number       1
_space_group_crystal_system       triclinic
_cell_length_a                    9.552451
_cell_length_b                    10.764072
_cell_length_c                    17.089452
_cell_angle_alpha                 88.805909
_cell_angle_beta                  94.083823
_cell_angle_gamma                 89.895801
_cell_volume                      1752.34146902

loop_
_atom_site_label
_atom_site_type_symbol
_atom_type_description
_atom_site_fract_x
_atom_site_fract_y
_atom_site_fract_z
_atom_type_partial_charge
C1    C     C_R   0.500000 0.262564 0.499671 0.913185
C2    C     C_R   0.500006 0.737431 0.500343 0.911939
C3    C     C_R   0.442947 0.936800 0.433783 0.070147
C4    C     C_R   0.557116 0.063181 0.566228 0.069852
C5    C     C_R   0.499885 0.871286 0.500458 -0.136445
C6    C     C_R   0.500142 0.128699 0.499560 -0.136755
C7    C     C_R   0.080979 0.418213 0.547076 0.189561
C8    C     C_R   0.919084 0.581962 0.453047 0.189483
C9    C     C_R   0.931189 0.418182 0.546978 0.196161
C10   C     C_R   0.068849 0.581798 0.453020 0.196362
C11   C     C_R   0.517979 0.498166 0.651166 0.875834
C12   C     C_R   0.482067 0.502496 0.348842 0.879381
C13   C     C_R   0.528735 0.493833 0.737807 -0.117050
C14   C     C_R   0.471876 0.510537 0.262271 -0.092652
C15   C     C_R   0.408405 0.464325 0.776715 -0.251224
C16   C     C_R   0.591578 0.546204 0.224656 -0.254730
C17   C     C_R   0.411935 0.457923 0.858145 0.138939
C18   C     C_R   0.589067 0.557627 0.143525 0.116045
C19   C     C_R   0.538722 0.483016 0.902883 0.262701
C20   C     C_R   0.464137 0.531401 0.097652 0.328221
C21   C     C_R   0.661187 0.509514 0.864584 0.063233
C22   C     C_R   0.342137 0.498686 0.134215 0.065744
C23   C     C_R   0.656431 0.516411 0.782250 0.166231
C24   C     C_R   0.345513 0.486775 0.216812 0.105371
C25   C     C_R   0.442848 0.066664 0.433325 0.166600
C26   C     C_R   0.557224 0.933315 0.566686 0.166441
Cu1   Cu    Cu3+1 0.640660 0.500020 0.500000 1.030980
Cu2   Cu    Cu3+1 0.359340 0.499980 0.500000 1.032362
H1    H     H_    0.688505 0.566845 0.258419 0.191253
H2    H     H_    0.310230 0.444754 0.743785 0.190779
N1    N     N_2   0.547679 0.476143 0.985865 -0.263475
N2    N     N_2   0.456872 0.540519 0.014801 -0.224442
N3    N     N_R   0.852070 0.500030 0.499980 -0.158983
N4    N     N_R   0.147930 0.499970 0.500020 -0.159114
O1    O     O_R   0.618740 0.319660 0.500000 -0.555259
O2    O     O_R   0.381260 0.680340 0.500000 -0.555401
O3    O     O_R   0.381170 0.319630 0.500010 -0.544895
O4    O     O_R   0.618830 0.680370 0.499990 -0.545429
O5    O     O_R   0.631780 0.498870 0.613920 -0.519054
O6    O     O_R   0.368220 0.501130 0.386080 -0.516664
O7    O     O_R   0.394210 0.498840 0.613930 -0.581746
O8    O     O_R   0.605790 0.501160 0.386070 -0.584239
N5    N     N_3   0.713650 0.600008 0.109544 -0.594652
H3    H     H_    0.755456 0.526983 0.079300 0.235388
H4    H     H_    0.687334 0.673628 0.070352 0.235578
N6    N     N_3   0.286499 0.421303 0.893641 -0.576402
H5    H     H_    0.247527 0.497270 0.922408 0.268274
H6    H     H_    0.310712 0.349391 0.934468 0.249823
N7    N     N_3   0.791562 0.532114 0.908782 -0.597875
H7    H     H_    0.778613 0.609203 0.943731 0.234238
H8    H     H_    0.815718 0.454724 0.945261 0.231402
N8    N     N_3   0.215814 0.475653 0.086241 -0.594569
H9    H     H_    0.183473 0.384496 0.096714 0.226801
H10   H     H_    0.137773 0.536664 0.101857 0.222873
N9    N     N_3   0.780889 0.548563 0.744194 -0.521070
H11   H     H_    0.859283 0.483946 0.761861 0.223194
H12   H     H_    0.814413 0.635955 0.763301 0.268406
N10   N     N_3   0.222328 0.448679 0.254219 -0.530860
H13   H     H_    0.141488 0.511922 0.238703 0.202569
H14   H     H_    0.191920 0.361198 0.233913 0.251401
Br1   Br    Br    0.368979 0.158300 0.341208 -0.567479
Br2   Br    Br    0.631214 0.841662 0.658782 -0.564959
N11   N     N_3   0.388941 0.870132 0.366348 -0.577135
H15   H     H_    0.446713 0.895389 0.318838 0.252439
H16   H     H_    0.284434 0.896562 0.353199 0.254615
N12   N     N_3   0.611168 0.129844 0.633652 -0.576638
H17   H     H_    0.553453 0.104556 0.681180 0.252772
H18   H     H_    0.715688 0.103428 0.646768 0.255120
N13   N     N_3   0.163218 0.332372 0.596242 -0.523880
H19   H     H_    0.140684 0.345138 0.654444 0.186117
H20   H     H_    0.134864 0.242051 0.580539 0.207585
N14   N     N_3   0.836999 0.668394 0.404258 -0.524628
H21   H     H_    0.860369 0.656899 0.346083 0.183974
H22   H     H_    0.865030 0.758454 0.420712 0.208089
N15   N     N_3   0.861551 0.331840 0.595619 -0.507199
H23   H     H_    0.897282 0.344608 0.654051 0.197638
H24   H     H_    0.887660 0.241836 0.579971 0.200042
N16   N     N_3   0.138528 0.667876 0.404216 -0.507266
H25   H     H_    0.103175 0.654517 0.345780 0.197306
H26   H     H_    0.112185 0.757996 0.419516 0.199725

loop_
_geom_bond_atom_site_label_1
_geom_bond_atom_site_label_2
_ccdc_geom_bond_type
N12   H18   S    
N9    H11   S    
N11   H16   S    
N5    H3    S    
C19   N1    S    
C21   N7    S    
C10   N16   S    
Cu1   N3    S    
C22   C24   A    
C19   C21   A    
N16   H26   S    
C6    C25   A    
Cu2   O6    S    
Cu1   O4    S    
N10   H14   S    
Cu2   O7    S    
C13   C23   A    
C7    C9    A    
C14   C24   A    
N13   H20   S    
C12   O8    A    
Cu1   O5    S    
N7    H8    S    
C1    O3    A    
N12   H17   S    
Cu2   N4    S    
C9    N3    A    
N8    H10   S    
C21   C23   A    
N6    H6    S    
C8    N14   S    
C1    C6    S    
C3    C25   A    
C17   N6    S    
N14   H22   S    
N16   H25   S    
Cu1   O1    S    
C16   H1    S    
N11   H15   S    
C12   O6    A    
N15   H23   S    
N5    H4    S    
C2    O4    A    
N1    N2    D    
C10   N4    A    
C16   C18   A    
C25   Br1   S    
C11   O5    A    
N15   H24   S    
C4    C6    A    
C20   C22   A    
C13   C15   A    
C7    N4    A    
C14   C16   A    
N10   H13   S    
C2    C5    S    
N8    H9    S    
C1    O1    A    
C15   H2    S    
C22   N8    S    
C20   N2    S    
C2    O2    A    
C15   C17   A    
N6    H5    S    
C8    C10   A    
C12   C14   S    
N14   H21   S    
C3    C5    A    
C7    N13   S    
C4    C26   A    
C23   N9    S    
C3    N11   S    
N9    H12   S    
C26   Br2   S    
C18   N5    S    
C4    N12   S    
C11   C13   S    
Cu1   O8    S    
Cu2   O3    S    
C17   C19   A    
C11   O7    A    
C18   C20   A    
C8    N3    A    
N13   H19   S    
C5    C26   A    
Cu2   O2    S    
C24   N10   S    
N7    H7    S    
Cu1   Cu2   S    
C9    N15   S    
