data_mof_unit_15263.cif
_audit_creation_date              2012-10-26T17:11:11-0400
_audit_creation_method            fapswitch 2.2
_symmetry_space_group_name_H-M    P1
_symmetry_Int_Tables_number       1
_space_group_crystal_system       triclinic
_cell_length_a                    27.977062
_cell_length_b                    18.722925
_cell_length_c                    16.907625
_cell_angle_alpha                 90.000248
_cell_angle_beta                  62.854421
_cell_angle_gamma                 90.000068
_cell_volume                      7880.89027012

loop_
_atom_site_label
_atom_site_type_symbol
_atom_type_description
_atom_site_fract_x
_atom_site_fract_y
_atom_site_fract_z
_atom_type_partial_charge
C1    C     C_R   0.296068 0.730895 0.328906 0.841577
C2    C     C_R   0.706733 0.274921 0.669439 0.878745
C3    C     C_R   0.703931 0.730896 0.671094 0.841573
C4    C     C_R   0.293267 0.274919 0.330560 0.878703
C5    C     C_R   0.796068 0.230896 0.328906 0.841574
C6    C     C_R   0.206733 0.774922 0.669438 0.878751
C7    C     C_R   0.203927 0.230904 0.671095 0.841547
C8    C     C_R   0.793267 0.774922 0.330561 0.878750
C9    C     C_R   0.536203 0.872487 0.542983 0.697884
C10   C     C_R   0.463821 0.127454 0.456967 0.695234
C11   C     C_R   0.463797 0.872487 0.457017 0.697881
C12   C     C_R   0.536178 0.127453 0.543036 0.695243
C13   C     C_R   0.036203 0.372487 0.542983 0.697888
C14   C     C_R   0.963821 0.627454 0.456967 0.695242
C15   C     C_R   0.963797 0.372487 0.457017 0.697900
C16   C     C_R   0.036178 0.627454 0.543037 0.695235
C17   C     C_R   0.224573 0.778646 0.952517 -0.067286
C18   C     C_R   0.784294 0.239971 0.040980 -0.002988
C19   C     C_R   0.775427 0.778647 0.047482 -0.067306
C20   C     C_R   0.215719 0.239966 0.958991 -0.002865
C21   C     C_R   0.724571 0.278645 0.952520 -0.067302
C22   C     C_R   0.284296 0.739973 0.040977 -0.002977
C23   C     C_R   0.275434 0.278646 0.047463 -0.067341
C24   C     C_R   0.715704 0.739973 0.959021 -0.002989
C25   C     C_R   0.259738 0.828080 0.960792 0.718743
C26   C     C_R   0.749294 0.190543 0.032153 0.745503
C27   C     C_R   0.740250 0.828074 0.039230 0.718740
C28   C     C_R   0.250863 0.190624 0.967543 0.745328
C29   C     C_R   0.759750 0.328071 0.960770 0.718742
C30   C     C_R   0.249309 0.690537 0.032125 0.745493
C31   C     C_R   0.240112 0.327985 0.039485 0.718333
C32   C     C_R   0.750703 0.690544 0.967850 0.745502
C33   C     C_R   0.289572 0.808679 0.004844 -0.313496
C34   C     C_R   0.719623 0.209905 0.988007 -0.337646
C35   C     C_R   0.710417 0.808673 0.995177 -0.313480
C36   C     C_R   0.280533 0.209990 0.011692 -0.337038
C37   C     C_R   0.789583 0.308669 0.004822 -0.313481
C38   C     C_R   0.219638 0.709899 0.987979 -0.337689
C39   C     C_R   0.210286 0.308582 0.995418 -0.313265
C40   C     C_R   0.780374 0.709907 0.011997 -0.337643
C41   C     C_R   0.146211 0.831968 0.943908 0.604413
C42   C     C_R   0.855565 0.172380 0.055779 0.572835
C43   C     C_R   0.853788 0.831968 0.056091 0.604414
C44   C     C_R   0.144456 0.172356 0.944199 0.572610
C45   C     C_R   0.646210 0.331966 0.943909 0.604411
C46   C     C_R   0.355567 0.672383 0.055777 0.572831
C47   C     C_R   0.353795 0.331958 0.056083 0.604192
C48   C     C_R   0.644434 0.672382 0.944222 0.572838
C49   C     C_R   0.118376 0.851915 0.895849 -0.307337
C50   C     C_R   0.882295 0.149514 0.104442 -0.302209
C51   C     C_R   0.881623 0.851915 0.104150 -0.307340
C52   C     C_R   0.117714 0.149502 0.895548 -0.302165
C53   C     C_R   0.618376 0.351915 0.895850 -0.307341
C54   C     C_R   0.382296 0.649515 0.104442 -0.302205
C55   C     C_R   0.381625 0.351912 0.104147 -0.307285
C56   C     C_R   0.617705 0.649515 0.895558 -0.302205
C57   C     C_R   0.136990 0.828483 0.808192 0.501136
C58   C     C_R   0.864675 0.173830 0.191656 0.519252
C59   C     C_R   0.863009 0.828483 0.191808 0.501138
C60   C     C_R   0.135326 0.173827 0.808341 0.519293
C61   C     C_R   0.636990 0.328483 0.808192 0.501134
C62   C     C_R   0.364675 0.673830 0.191655 0.519258
C63   C     C_R   0.363007 0.328485 0.191807 0.501153
C64   C     C_R   0.635325 0.673830 0.808344 0.519258
C65   C     C_R   0.187013 0.794624 0.763808 -0.221223
C66   C     C_R   0.820096 0.219253 0.231524 -0.263958
C67   C     C_R   0.812987 0.794625 0.236192 -0.221230
C68   C     C_R   0.179895 0.219268 0.768478 -0.264023
C69   C     C_R   0.687012 0.294623 0.763808 -0.221231
C70   C     C_R   0.320095 0.719253 0.231524 -0.263954
C71   C     C_R   0.312989 0.294618 0.236187 -0.221297
C72   C     C_R   0.679904 0.719254 0.768476 -0.263959
C73   C     C_R   0.218031 0.782099 0.809967 -0.199605
C74   C     C_R   0.795914 0.246756 0.179717 -0.192018
C75   C     C_R   0.781968 0.782100 0.190033 -0.199597
C76   C     C_R   0.204065 0.246792 0.820291 -0.191864
C77   C     C_R   0.718030 0.282096 0.809969 -0.199594
C78   C     C_R   0.295913 0.746754 0.179717 -0.192019
C79   C     C_R   0.281975 0.282080 0.190019 -0.199461
C80   C     C_R   0.704085 0.746757 0.820283 -0.192018
C81   C     C_R   0.195391 0.796652 0.901456 -0.033169
C82   C     C_R   0.812867 0.220612 0.092747 -0.002875
C83   C     C_R   0.804609 0.796652 0.098543 -0.033170
C84   C     C_R   0.187137 0.220615 0.907240 -0.002798
C85   C     C_R   0.695390 0.296650 0.901458 -0.033170
C86   C     C_R   0.312868 0.720614 0.092745 -0.002876
C87   C     C_R   0.304616 0.296640 0.098530 -0.033164
C88   C     C_R   0.687132 0.720615 0.907254 -0.002877
C89   C     C_R   0.196808 0.631659 0.526723 0.786271
C90   C     C_R   0.803187 0.368340 0.473293 0.776024
C91   C     C_R   0.803191 0.631659 0.473277 0.786272
C92   C     C_R   0.196813 0.368340 0.526707 0.775988
C93   C     C_R   0.696808 0.131659 0.526723 0.786268
C94   C     C_R   0.303187 0.868340 0.473293 0.776028
C95   C     C_R   0.303191 0.131659 0.473277 0.786283
C96   C     C_R   0.696813 0.868340 0.526707 0.776025
C97   C     C_R   0.926882 0.902411 0.066021 0.842550
C98   C     C_R   0.073745 0.096809 0.933300 0.839650
C99   C     C_R   0.073118 0.902411 0.933979 0.842540
C100  C     C_R   0.926260 0.096815 0.066696 0.839666
C101  C     C_R   0.426882 0.402411 0.066021 0.842534
C102  C     C_R   0.573740 0.596815 0.933304 0.839662
C103  C     C_R   0.573118 0.402411 0.933979 0.842543
C104  C     C_R   0.426260 0.596816 0.066695 0.839655
C105  C     C_R   0.044016 0.499973 0.519558 -0.124060
C106  C     C_R   0.955983 0.499974 0.480444 -0.124070
C107  C     C_R   0.544016 0.999973 0.519558 -0.124072
C108  C     C_R   0.455983 0.999974 0.480443 -0.124064
C109  C     C_R   0.020732 0.565424 0.513218 -0.028789
C110  C     C_R   0.979260 0.434520 0.486800 -0.026493
C111  C     C_R   0.979267 0.565424 0.486785 -0.028788
C112  C     C_R   0.020739 0.434520 0.513201 -0.026483
C113  C     C_R   0.520732 0.065424 0.513218 -0.028789
C114  C     C_R   0.479260 0.934520 0.486800 -0.026498
C115  C     C_R   0.479267 0.065424 0.486785 -0.028780
C116  C     C_R   0.520739 0.934520 0.513201 -0.026496
C117  C     C_R   0.112956 0.434876 0.542705 0.000365
C118  C     C_R   0.887057 0.565085 0.457259 -0.007250
C119  C     C_R   0.887044 0.434877 0.457296 0.000364
C120  C     C_R   0.112942 0.565085 0.542742 -0.007249
C121  C     C_R   0.612956 0.934876 0.542705 0.000364
C122  C     C_R   0.387057 0.065085 0.457259 -0.007239
C123  C     C_R   0.387044 0.934877 0.457296 0.000365
C124  C     C_R   0.612942 0.065085 0.542742 -0.007251
C125  C     C_R   0.164857 0.434744 0.539786 -0.072998
C126  C     C_R   0.835150 0.565237 0.460193 -0.075959
C127  C     C_R   0.835143 0.434744 0.460214 -0.072997
C128  C     C_R   0.164850 0.565237 0.539808 -0.075959
C129  C     C_R   0.664857 0.934744 0.539786 -0.072997
C130  C     C_R   0.335150 0.065237 0.460193 -0.075960
C131  C     C_R   0.335143 0.934744 0.460214 -0.072996
C132  C     C_R   0.664849 0.065237 0.539808 -0.075960
C133  C     C_R   0.189718 0.499991 0.537954 -0.247179
C134  C     C_R   0.810282 0.499991 0.462046 -0.247188
C135  C     C_R   0.689718 0.999991 0.537954 -0.247189
C136  C     C_R   0.310282 0.999991 0.462046 -0.247185
C137  C     C_R   0.090329 0.499978 0.534263 0.061631
C138  C     C_R   0.909671 0.499978 0.465739 0.061622
C139  C     C_R   0.590329 0.999978 0.534262 0.061621
C140  C     C_R   0.409671 0.999978 0.465738 0.061629
C141  C     C_R   0.581089 0.873124 0.558089 -0.237330
C142  C     C_R   0.418938 0.126824 0.441844 -0.248310
C143  C     C_R   0.418911 0.873124 0.441910 -0.237333
C144  C     C_R   0.581062 0.126824 0.558158 -0.248309
C145  C     C_R   0.081089 0.373124 0.558089 -0.237341
C146  C     C_R   0.918938 0.626824 0.441845 -0.248304
C147  C     C_R   0.918911 0.373124 0.441910 -0.237337
C148  C     C_R   0.081062 0.626824 0.558158 -0.248306
Cu1   Cu    Cu3+1 0.209920 0.785290 0.495070 1.080410
Cu2   Cu    Cu3+1 0.790080 0.214710 0.504930 1.093237
Cu3   Cu    Cu3+1 0.790080 0.785290 0.504930 1.080409
Cu4   Cu    Cu3+1 0.209920 0.214710 0.495070 1.093250
Cu5   Cu    Cu3+1 0.709920 0.285290 0.495070 1.080411
Cu6   Cu    Cu3+1 0.290080 0.714710 0.504930 1.093247
Cu7   Cu    Cu3+1 0.290080 0.285290 0.504930 1.080442
Cu8   Cu    Cu3+1 0.709920 0.714710 0.495070 1.093239
Cu9   Cu    Cu3+1 0.495240 0.500000 0.924150 1.210112
Cu10  Cu    Cu3+1 0.504760 0.500000 0.075850 1.210130
Cu11  Cu    Cu3+1 0.995240 0.000000 0.924150 1.210129
Cu12  Cu    Cu3+1 0.004760 0.000000 0.075850 1.210089
H1    H     H_    0.229792 0.499993 0.532664 0.193748
H2    H     H_    0.770208 0.499993 0.467336 0.193745
H3    H     H_    0.729792 0.999993 0.532664 0.193745
H4    H     H_    0.270208 0.999993 0.467336 0.193743
H5    H     H_    0.588068 0.825412 0.586995 0.205962
H6    H     H_    0.411954 0.174536 0.412944 0.212700
H7    H     H_    0.411932 0.825413 0.413004 0.205961
H8    H     H_    0.588046 0.174536 0.587060 0.212704
H9    H     H_    0.088068 0.325412 0.586995 0.205960
H10   H     H_    0.911954 0.674536 0.412944 0.212706
H11   H     H_    0.911932 0.325413 0.413004 0.205961
H12   H     H_    0.088046 0.674536 0.587060 0.212705
H13   H     H_    0.192988 0.671293 0.980925 0.199447
H14   H     H_    0.816355 0.347181 0.011664 0.186713
H15   H     H_    0.807033 0.671307 0.019033 0.199448
H16   H     H_    0.183404 0.347029 0.988787 0.186790
H17   H     H_    0.692963 0.171305 0.980973 0.199447
H18   H     H_    0.316333 0.847197 0.011705 0.186699
H19   H     H_    0.307307 0.171454 0.018510 0.199456
H20   H     H_    0.683646 0.847185 0.988333 0.186712
O1    O     O_R   0.255040 0.869590 0.478480 -0.591719
O2    O     O_R   0.744960 0.130410 0.521520 -0.582462
O3    O     O_R   0.744960 0.869590 0.521520 -0.591717
O4    O     O_R   0.255040 0.130410 0.478480 -0.582461
O5    O     O_R   0.755040 0.369590 0.478480 -0.591716
O6    O     O_R   0.244960 0.630410 0.521520 -0.582459
O7    O     O_R   0.244960 0.369590 0.521520 -0.591714
O8    O     O_R   0.755040 0.630410 0.478480 -0.582462
O9    O     O_R   0.182050 0.796550 0.624440 -0.508795
O10   O     O_R   0.817950 0.203450 0.375560 -0.498953
O11   O     O_R   0.817950 0.796550 0.375560 -0.508794
O12   O     O_R   0.182050 0.203450 0.624440 -0.498949
O13   O     O_R   0.682050 0.296550 0.624440 -0.508793
O14   O     O_R   0.317950 0.703450 0.375560 -0.498953
O15   O     O_R   0.317950 0.296550 0.375560 -0.508775
O16   O     O_R   0.682050 0.703450 0.624440 -0.498952
O17   O     O_R   0.250530 0.763330 0.367210 -0.605078
O18   O     O_R   0.749470 0.236670 0.632790 -0.581040
O19   O     O_R   0.749470 0.763330 0.632790 -0.605076
O20   O     O_R   0.250530 0.236670 0.367210 -0.581047
O21   O     O_R   0.750530 0.263330 0.367210 -0.605077
O22   O     O_R   0.249470 0.736670 0.632790 -0.581040
O23   O     O_R   0.249470 0.263330 0.632790 -0.605040
O24   O     O_R   0.750530 0.736670 0.367210 -0.581040
O25   O     O_R   0.177260 0.690030 0.513710 -0.583776
O26   O     O_R   0.822740 0.309970 0.486290 -0.573766
O27   O     O_R   0.822740 0.690030 0.486290 -0.583778
O28   O     O_R   0.177260 0.309970 0.513710 -0.573775
O29   O     O_R   0.677260 0.190030 0.513710 -0.583776
O30   O     O_R   0.322740 0.809970 0.486290 -0.573763
O31   O     O_R   0.322740 0.190030 0.486290 -0.583774
O32   O     O_R   0.677260 0.809970 0.513710 -0.573765
O33   O     O_R   0.051640 0.926880 0.885090 -0.520175
O34   O     O_R   0.948360 0.073120 0.114910 -0.522088
O35   O     O_R   0.948360 0.926880 0.114910 -0.520175
O36   O     O_R   0.051640 0.073120 0.885090 -0.522079
O37   O     O_R   0.551640 0.426880 0.885090 -0.520173
O38   O     O_R   0.448360 0.573120 0.114910 -0.522079
O39   O     O_R   0.448360 0.426880 0.114910 -0.520171
O40   O     O_R   0.551640 0.573120 0.885090 -0.522081
O41   O     O_R   0.940620 0.926560 0.986760 -0.523435
O42   O     O_R   0.059380 0.073440 0.013240 -0.523359
O43   O     O_R   0.059380 0.926560 0.013240 -0.523442
O44   O     O_R   0.940620 0.073440 0.986760 -0.523327
O45   O     O_R   0.440620 0.426560 0.986760 -0.523445
O46   O     O_R   0.559380 0.573440 0.013240 -0.523331
O47   O     O_R   0.559380 0.426560 0.013240 -0.523438
O48   O     O_R   0.440620 0.573440 0.986760 -0.523340
F1    F     F_    0.504933 0.813102 0.567635 -0.582850
F2    F     F_    0.495093 0.186837 0.432332 -0.578537
F3    F     F_    0.495067 0.813102 0.432364 -0.582852
F4    F     F_    0.504906 0.186837 0.567673 -0.578533
F5    F     F_    0.004933 0.313102 0.567635 -0.582853
F6    F     F_    0.995093 0.686837 0.432332 -0.578530
F7    F     F_    0.995067 0.313102 0.432364 -0.582833
F8    F     F_    0.004906 0.686837 0.567673 -0.578535
F9    F     F_    0.265413 0.894545 0.925561 -0.591581
F10   F     F_    0.743320 0.124080 0.067543 -0.590510
F11   F     F_    0.734563 0.894532 0.074485 -0.591549
F12   F     F_    0.256974 0.124243 0.931891 -0.590637
F13   F     F_    0.765437 0.394528 0.925513 -0.591549
F14   F     F_    0.243348 0.624066 0.067490 -0.590538
F15   F     F_    0.234280 0.394358 0.075013 -0.591607
F16   F     F_    0.756676 0.624080 0.932463 -0.590510
F17   F     F_    0.126975 0.848909 0.031332 -0.584542
F18   F     F_    0.870723 0.148261 0.971818 -0.602070
F19   F     F_    0.873024 0.848908 0.968667 -0.584529
F20   F     F_    0.129327 0.148200 0.028136 -0.602152
F21   F     F_    0.626974 0.348908 0.031334 -0.584532
F22   F     F_    0.370727 0.648267 0.971814 -0.602082
F23   F     F_    0.373031 0.348902 0.968660 -0.584573
F24   F     F_    0.629276 0.648265 0.028183 -0.602070
F25   F     F_    0.106811 0.840407 0.765259 -0.600985
F26   F     F_    0.890250 0.151637 0.239003 -0.602205
F27   F     F_    0.893189 0.840407 0.234741 -0.600985
F28   F     F_    0.109753 0.151628 0.760993 -0.602200
F29   F     F_    0.606812 0.340409 0.765258 -0.600986
F30   F     F_    0.390250 0.651636 0.239003 -0.602198
F31   F     F_    0.393181 0.340421 0.234747 -0.600988
F32   F     F_    0.609750 0.651636 0.760997 -0.602199
C149  C     C_2   0.274969 0.758293 0.764779 0.519769
H21   H     H_    0.287811 0.713060 0.790480 0.065932
O49   O     O_2   0.308449 0.792022 0.702184 -0.476114
C150  C     C_2   0.754250 0.303703 0.214773 0.497790
H22   H     H_    0.759892 0.349138 0.249500 0.065969
O50   O     O_2   0.713028 0.299689 0.207011 -0.477468
C151  C     C_2   0.725031 0.758291 0.235220 0.519777
H23   H     H_    0.712190 0.713059 0.209518 0.065926
O51   O     O_2   0.691551 0.792019 0.297816 -0.476114
C152  C     C_2   0.245671 0.303816 0.785271 0.497794
H24   H     H_    0.240008 0.349198 0.750491 0.065926
O52   O     O_2   0.286870 0.299930 0.793123 -0.477546
C153  C     C_2   0.774966 0.258283 0.764783 0.519774
H25   H     H_    0.787805 0.213049 0.790485 0.065922
O53   O     O_2   0.808449 0.292012 0.702190 -0.476109
C154  C     C_2   0.254245 0.803696 0.214776 0.497773
H26   H     H_    0.259886 0.849135 0.249500 0.065964
O54   O     O_2   0.213021 0.799673 0.207020 -0.477466
C155  C     C_2   0.225050 0.258225 0.235188 0.520007
H27   H     H_    0.212235 0.212979 0.209465 0.065761
O55   O     O_2   0.191548 0.291932 0.297782 -0.475952
C156  C     C_2   0.745750 0.803704 0.785227 0.497790
H28   H     H_    0.740108 0.849139 0.750499 0.065968
O56   O     O_2   0.786973 0.799689 0.792988 -0.477466

loop_
_geom_bond_atom_site_label_1
_geom_bond_atom_site_label_2
_ccdc_geom_bond_type
C51   C97   S    
Cu12  O42   S    
C91   O8    A    
Cu9   Cu10  S    
C89   O6    A    
C64   C72   A    
C79   C87   A    
C92   O7    A    
C75   C151  S    
C100  O34   A    
C156  H28   S    
Cu11  O33   S    
C13   C112  A    
C19   C83   S    
C103  O47   A    
Cu4   O20   S    
C101  O45   A    
C107  C113  A    
C7    O23   A    
C7    C68   S    
C89   O25   A    
Cu10  O46   S    
C41   F17   S    
C80   C88   A    
C36   H19   S    
C41   C49   A    
C16   C109  A    
C104  O48   A    
Cu5   O21   S    
C59   F27   S    
C77   C153  S    
C8    O24   A    
C57   C65   A    
C99   O33   A    
C27   C35   A    
Cu11  O41   S    
Cu12  O35   S    
C21   C29   A    
C23   C31   A    
C48   F24   S    
C24   C32   A    
Cu2   O10   S    
C101  O39   A    
C25   F9    S    
Cu10  O38   S    
C105  C112  A    
C63   C71   A    
C120  C148  A    
C152  O52   D    
C7    O12   A    
C108  C140  A    
C136  H4    S    
C31   F15   S    
C11   F3    S    
C9    C116  A    
C135  H3    S    
C3    O16   A    
Cu1   O9    S    
C1    C70   S    
C2    O13   A    
C17   C25   A    
C3    C72   S    
Cu6   O30   S    
Cu7   O7    S    
C52   C98   S    
C18   C82   S    
C58   F26   S    
C155  O55   D    
C134  H2    S    
C126  C134  A    
Cu4   O12   S    
C23   C36   A    
C34   H17   S    
Cu3   O27   S    
C118  C138  A    
C119  C147  A    
C4    C71   S    
C96   C129  S    
C113  C115  A    
Cu5   O29   S    
C43   C83   A    
C124  C139  A    
C69   C77   A    
C127  C134  A    
C78   C154  S    
C75   C83   A    
C92   C125  S    
C71   C79   A    
Cu6   O6    S    
C62   C70   A    
C108  C115  A    
C93   C132  S    
C109  C111  A    
C5    O21   A    
C149  H21   S    
C49   C99   S    
C66   C74   A    
C60   F28   S    
C49   C57   A    
C124  C132  A    
C52   C60   A    
Cu9   O48   S    
C59   C67   A    
C129  C135  A    
C53   C61   A    
C46   F22   S    
C43   F19   S    
C150  H22   S    
C55   C63   A    
C95   C130  S    
C56   C64   A    
C94   O1    A    
C2    C69   S    
C47   F23   S    
C102  O40   A    
C44   C52   A    
C77   C85   A    
C32   F16   S    
Cu7   O23   S    
C73   C149  S    
C106  C111  A    
C74   C150  S    
C99   O43   A    
Cu2   O26   S    
C131  C136  A    
Cu9   O40   S    
C47   C87   A    
C63   F31   S    
C142  H6    S    
C90   C127  S    
Cu12  O34   S    
C28   C36   A    
C42   C50   A    
C150  O50   D    
C94   O30   A    
C20   C84   S    
C67   C75   A    
C96   O3    A    
C29   C37   A    
C13   F5    S    
C62   F30   S    
C42   F18   S    
C22   C30   A    
C119  C138  A    
Cu4   O28   S    
C1    O17   A    
C5    C66   S    
C114  C116  A    
C151  H23   S    
Cu3   O3    S    
C68   C76   A    
C156  O56   D    
C95   O31   A    
C121  C139  A    
C56   C102  S    
C72   C80   A    
C11   C143  A    
C98   O42   A    
C6    O9    A    
C153  O53   D    
C17   C38   A    
C57   F25   S    
C110  C112  A    
C107  C116  A    
C19   C40   A    
C105  C137  A    
C4    O20   A    
Cu5   O13   S    
C154  H26   S    
C8    C67   S    
C30   F14   S    
C117  C125  A    
Cu10  O47   S    
C25   C33   A    
C119  C127  A    
C80   C156  S    
C96   O32   A    
C18   C26   A    
C61   F29   S    
C76   C84   A    
C27   F11   S    
Cu2   O2    S    
C54   C104  S    
Cu8   O16   S    
Cu8   O32   S    
C61   C69   A    
Cu11  O44   S    
C102  O46   A    
C117  C145  A    
C10   C142  A    
C108  C114  A    
C105  C109  A    
C37   H14   S    
C90   O26   A    
C6    C65   S    
Cu10  O39   S    
Cu2   Cu5   S    
C76   C152  S    
C155  H27   S    
C48   C88   A    
C13   C145  A    
Cu9   O45   S    
Cu1   O1    S    
C15   C110  A    
C74   C82   A    
Cu6   O22   S    
C21   C85   S    
Cu8   O8    S    
C145  H9    S    
C50   C58   A    
C121  C141  A    
Cu1   O25   S    
C20   C39   A    
C21   C34   A    
C54   C62   A    
Cu1   Cu6   S    
C93   O2    A    
C26   F10   S    
C91   O27   A    
Cu11  Cu12  S    
Cu4   Cu7   S    
C41   C81   A    
C46   C54   A    
Cu9   O37   S    
Cu3   Cu8   S    
C24   C88   S    
C104  O38   A    
C73   C81   A    
C58   C66   A    
C55   C101  S    
C123  C131  A    
C141  H5    S    
C121  C129  A    
C44   C84   A    
C120  C128  A    
C90   O5    A    
C20   C28   A    
C94   C131  S    
C1    O14   A    
C28   F12   S    
C15   C147  A    
C151  O51   D    
C43   C51   A    
C53   C103  S    
C17   C81   S    
C22   C86   S    
C50   C100  S    
Cu7   O15   S    
C44   F20   S    
C122  C140  A    
Cu12  O43   S    
C60   C68   A    
C79   C155  S    
C97   O35   A    
C15   F7    S    
C16   F8    S    
C152  H24   S    
C120  C137  A    
Cu2   O18   S    
C89   C128  S    
C4    O15   A    
C91   C126  S    
C70   C78   A    
C42   C82   A    
C10   F2    S    
C144  H8    S    
C18   C37   A    
C5    O10   A    
C6    O22   A    
C95   O4    A    
C106  C138  A    
C100  O44   A    
C8    O11   A    
C65   C73   A    
C9    F1    S    
C11   C114  A    
C26   C34   A    
C31   C39   A    
C3    O19   A    
Cu4   O4    S    
C19   C27   A    
C45   F21   S    
C78   C86   A    
Cu3   O11   S    
C23   C87   S    
C107  C139  A    
C147  H11   S    
C12   F4    S    
C14   C111  A    
C24   C35   A    
Cu3   O19   S    
C118  C146  A    
C149  O49   D    
C9    C141  A    
C38   H13   S    
C117  C137  A    
C123  C140  A    
C12   C144  A    
C45   C85   A    
C92   O28   A    
C153  H25   S    
C103  O37   A    
C154  O54   D    
C146  H10   S    
C93   O29   A    
C51   C59   A    
C122  C142  A    
Cu8   O24   S    
C14   F6    S    
C47   C55   A    
C12   C113  A    
C106  C110  A    
C125  C133  A    
C35   H20   S    
C48   C56   A    
C22   C33   A    
C98   O36   A    
Cu11  O36   S    
C33   H18   S    
C2    O18   A    
C130  C136  A    
C39   H16   S    
C133  H1    S    
C40   H15   S    
C14   C146  A    
C16   C148  A    
Cu7   O31   S    
C128  C133  A    
Cu5   O5    S    
C143  H7    S    
C132  C135  A    
C148  H12   S    
C97   O41   A    
C32   C40   A    
C45   C53   A    
Cu6   O14   S    
C123  C143  A    
C29   F13   S    
C124  C144  A    
C118  C126  A    
C30   C38   A    
C122  C130  A    
C10   C115  A    
C64   F32   S    
Cu1   O17   S    
C46   C86   A    
