data_mof_unit_26385.cif
_audit_creation_date              2013-03-05T16:12:51-0500
_audit_creation_method            fapswitch 2.2
_symmetry_space_group_name_H-M    P1
_symmetry_Int_Tables_number       1
_space_group_crystal_system       triclinic
_cell_length_a                    10.619803
_cell_length_b                    9.83697
_cell_length_c                    27.67991
_cell_angle_alpha                 89.08078
_cell_angle_beta                  89.936017
_cell_angle_gamma                 89.921857
_cell_volume                      2891.25184363

loop_
_atom_site_label
_atom_site_type_symbol
_atom_site_description
_atom_site_fract_x
_atom_site_fract_y
_atom_site_fract_z
_atom_type_partial_charge
O1    O     O_R   0.316770 0.614620 0.500000 -0.592254
O2    O     O_R   0.683230 0.385380 0.500000 -0.592250
O3    O     O_R   0.683230 0.614620 0.500000 -0.612378
O4    O     O_R   0.316770 0.385380 0.500000 -0.612376
C1    C     C_R   0.260335 0.500083 0.499988 1.053341
C2    C     C_R   0.739665 0.499917 0.500012 1.053345
O5    O     O_R   0.500030 0.614650 0.428760 -0.588834
O6    O     O_R   0.499970 0.385350 0.571240 -0.588837
O7    O     O_R   0.499970 0.614650 0.571240 -0.608982
O8    O     O_R   0.500030 0.385350 0.428760 -0.608988
C3    C     C_R   0.495968 0.501173 0.406112 0.984042
C4    C     C_R   0.504034 0.498827 0.593887 0.984039
Zn1   Zn    Zn3+2 0.500000 0.653120 0.500000 1.041597
Zn2   Zn    Zn3+2 0.500000 0.346880 0.500000 1.041595
C5    C     C_R   0.387863 0.439244 0.177076 0.530494
C6    C     C_R   0.612198 0.560735 0.822922 0.530494
O9    O     O_2   0.297857 0.370313 0.201674 -0.525768
O10   O     O_2   0.702196 0.629677 0.798324 -0.525769
N1    N     N_R   0.478245 0.508552 0.201560 -0.350693
N2    N     N_R   0.521815 0.491428 0.798439 -0.350692
C7    C     C_R   0.569555 0.581683 0.178175 0.527823
C8    C     C_R   0.430513 0.418285 0.821824 0.527822
C9    C     C_R   0.547652 0.409143 0.277485 -0.108575
C10   C     C_R   0.452381 0.590841 0.722518 -0.108578
C11   C     C_R   0.552469 0.407480 0.327429 -0.209472
C12   C     C_R   0.447548 0.592508 0.672575 -0.209486
C13   C     C_R   0.408857 0.601121 0.329420 0.363212
C14   C     C_R   0.591179 0.398886 0.670574 0.363216
C15   C     C_R   0.405064 0.604272 0.278515 0.119370
C16   C     C_R   0.594990 0.395730 0.721479 0.119373
C17   C     C_R   0.475854 0.507082 0.253029 0.226831
C18   C     C_R   0.524196 0.492909 0.746970 0.226829
C19   C     C_R   0.484371 0.510230 0.101569 -0.052695
C20   C     C_R   0.515705 0.489727 0.898430 -0.052694
C21   C     C_R   0.387918 0.440973 0.126528 -0.098445
C22   C     C_R   0.612151 0.558993 0.873471 -0.098443
C23   C     C_R   0.289172 0.383820 0.100726 -0.149328
C24   C     C_R   0.710901 0.616142 0.899272 -0.149329
C25   C     C_R   0.573401 0.585269 0.127711 -0.018931
C26   C     C_R   0.426675 0.414688 0.872288 -0.018929
C27   C     C_R   0.485543 0.504131 0.353596 -0.137614
C28   C     C_R   0.514475 0.495867 0.646403 -0.137613
H1    H     H_    0.207837 0.342851 0.119618 0.226545
H2    H     H_    0.792233 0.657116 0.880380 0.226543
C29   C     C_R   0.410570 0.423352 0.973901 0.083879
C30   C     C_R   0.589515 0.576594 0.026098 0.083879
C31   C     C_R   0.604151 0.563173 0.975487 -0.052014
C32   C     C_R   0.395931 0.436775 0.024512 -0.052017
C33   C     C_R   0.509403 0.493517 0.949473 0.036947
C34   C     C_R   0.490678 0.506432 0.050526 0.036947
C35   C     C_R   0.336129 0.332974 0.947078 -0.121862
C36   C     C_R   0.663958 0.666969 0.052921 -0.121866
C37   C     C_R   0.340229 0.332828 0.897037 -0.124234
C38   C     C_R   0.659854 0.667119 0.102962 -0.124238
O11   O     O_2   0.343923 0.349615 0.796220 -0.537957
O12   O     O_2   0.656145 0.650351 0.203779 -0.537953
C39   C     C_R   0.287736 0.389811 0.050503 0.347877
C40   C     C_R   0.712344 0.610141 0.949495 0.347876
H3    H     H_    0.389711 0.668166 0.654315 0.218033
H4    H     H_    0.610292 0.331816 0.345692 0.218035
H5    H     H_    0.398728 0.664880 0.742535 0.171607
H6    H     H_    0.601302 0.335095 0.257471 0.171606
H7    H     H_    0.277520 0.265612 0.877911 0.200876
H8    H     H_    0.722565 0.734334 0.122088 0.200877
H9    H     H_    0.277683 0.256824 0.964161 0.200242
H10   H     H_    0.722409 0.743114 0.035839 0.200244
C41   C     C_R   0.065221 0.447192 0.460010 0.327988
C42   C     C_R   0.934779 0.552809 0.539990 0.327997
C43   C     C_R   0.935221 0.446979 0.460049 0.309612
C44   C     C_R   0.064779 0.553021 0.539951 0.309612
C45   C     C_R   0.871978 0.499771 0.500036 -0.354874
C46   C     C_R   0.128022 0.500229 0.499964 -0.354878
C47   C     C_R   0.588612 0.070647 0.525377 -0.015753
C48   C     C_R   0.411388 0.929353 0.474623 -0.015745
C49   C     C_R   0.411451 0.073251 0.474580 -0.041033
C50   C     C_R   0.588549 0.926749 0.525420 -0.041035
H11   H     H_    0.659607 0.124079 0.545578 0.189904
H12   H     H_    0.340393 0.875920 0.454421 0.189900
H13   H     H_    0.340712 0.128801 0.454225 0.179095
H14   H     H_    0.659288 0.871199 0.545774 0.179095
N3    N     N_R   0.500000 0.857200 0.500000 -0.101368
N4    N     N_R   0.500000 0.142800 0.500000 -0.101368
Cl1   Cl    Cl    0.310866 0.711975 0.362638 -0.590705
Cl2   Cl    Cl    0.689171 0.288046 0.637351 -0.590712
C51   C     C_3   0.326540 0.710255 0.251629 -0.351558
C52   C     C_3   0.392083 0.848363 0.250370 -0.742744
H15   H     H_    0.408965 0.885418 0.287452 0.291929
H16   H     H_    0.483548 0.841075 0.231138 0.273745
H17   H     H_    0.331947 0.923581 0.230878 0.260373
H18   H     H_    0.307924 0.680485 0.213844 0.205859
H19   H     H_    0.232342 0.719739 0.268709 0.267711
C53   C     C_3   0.673534 0.289755 0.748360 -0.351558
C54   C     C_3   0.608006 0.151640 0.749622 -0.742741
H20   H     H_    0.516550 0.158914 0.768861 0.273738
H21   H     H_    0.591107 0.114588 0.712540 0.291928
H22   H     H_    0.668159 0.076426 0.769107 0.260378
H23   H     H_    0.767727 0.280284 0.731274 0.267714
H24   H     H_    0.692160 0.319525 0.786145 0.205863
Cl3   Cl    Cl    0.137053 0.367468 0.024649 -0.537189
Cl4   Cl    Cl    0.863030 0.632475 0.975347 -0.537188
Cl5   Cl    Cl    0.148928 0.385425 0.409436 -0.491175
Cl6   Cl    Cl    0.851072 0.614580 0.590563 -0.491178
Cl7   Cl    Cl    0.852062 0.385257 0.409474 -0.522492
Cl8   Cl    Cl    0.147938 0.614744 0.590526 -0.522490

loop_
_geom_bond_atom_site_label_1
_geom_bond_atom_site_label_2
_geom_bond_distance
_ccdc_geom_bond_type
C54   H20   1.109909 S    
Zn1   N3    2.007529 S    
C14   Cl2   1.773247 S    
O3    C2    1.276898 A    
N1    C17   1.424694 S    
C51   H19   1.110435 S    
C53   H24   1.108680 S    
C32   C39   1.428352 A    
C31   C33   1.421179 A    
C51   C52   1.527214 S    
C5    N1    1.365089 A    
C12   C28   1.397433 A    
C19   C25   1.408186 A    
O1    C1    1.276904 A    
N1    C7    1.364691 A    
C42   Cl6   1.772598 S    
C1    C46   1.405141 S    
C52   H16   1.109910 S    
C25   C38   1.394071 A    
C13   C15   1.409526 A    
C29   C35   1.411026 A    
C39   Cl3   1.769101 S    
C30   C36   1.411028 A    
C41   C46   1.400413 A    
C35   H9    1.076662 S    
C14   C28   1.414190 A    
C43   C45   1.400618 A    
O7    Zn1   2.001926 S    
C4    C28   1.457790 S    
C24   C40   1.390572 A    
C9    H6    1.083155 S    
C11   H4    1.083512 S    
C12   H3    1.083512 S    
C15   C51   1.519955 S    
O3    Zn1   1.981872 S    
C6    N2    1.365083 A    
C32   C34   1.421183 A    
C54   H21   1.109598 S    
O2    C2    1.276903 A    
C5    C21   1.398994 A    
C36   C38   1.385789 A    
C53   H23   1.110437 S    
C43   Cl7   1.771933 S    
C2    C45   1.405142 S    
C48   C49   1.415507 A    
C40   Cl4   1.769100 S    
C16   C53   1.519954 S    
O8    Zn2   2.001932 S    
C11   C27   1.397434 A    
C52   H15   1.109595 S    
C19   C34   1.415475 A    
C35   C37   1.385790 A    
C9    C17   1.395003 A    
C23   H1    1.084034 S    
O5    C3    1.289786 A    
C10   C18   1.395004 A    
C24   H2    1.084035 S    
C13   C27   1.414190 A    
C7    C25   1.397269 A    
C29   C33   1.421492 A    
O6    C4    1.289784 A    
C8    C26   1.397278 A    
C10   H5    1.083155 S    
C6    O10   1.349999 S    
N2    C8    1.364685 A    
C54   H22   1.110438 S    
C47   C50   1.415507 A    
C20   C26   1.408183 A    
O1    Zn1   1.982886 S    
Zn2   N4    2.007529 S    
C48   N3    1.366160 A    
C47   N4    1.366159 A    
C36   H10   1.076657 S    
C41   Cl5   1.772596 S    
N2    C18   1.424706 S    
C29   C32   1.417579 A    
C5    O9    1.349997 S    
C30   C31   1.417582 A    
C20   C33   1.415475 A    
O6    Zn2   2.013851 S    
C21   C23   1.393573 A    
C50   H14   1.081819 S    
C10   C12   1.383266 A    
O4    C1    1.276898 A    
C52   H17   1.110439 S    
C50   N3    1.366060 A    
C7    O12   1.350071 S    
C51   H18   1.108680 S    
C49   N4    1.366063 A    
C8    O11   1.350068 S    
C30   C34   1.421498 A    
C22   C24   1.393572 A    
C15   C17   1.412580 A    
C6    C22   1.399002 A    
C31   C40   1.428351 A    
C16   C18   1.412577 A    
C37   H7    1.083604 S    
C38   H8    1.083602 S    
C42   C45   1.400415 A    
C14   C16   1.409526 A    
C53   C54   1.527214 S    
C19   C21   1.405656 A    
C20   C22   1.405653 A    
C3    C27   1.457790 S    
C44   Cl8   1.771933 S    
C9    C11   1.383263 A    
O4    Zn2   1.981872 S    
O2    Zn2   1.982886 S    
O7    C4    1.292271 A    
O8    C3    1.292271 A    
C13   Cl1   1.773248 S    
O5    Zn1   2.013856 S    
C42   C44   1.380582 A    
C26   C37   1.394070 A    
C48   H12   1.081134 S    
C47   H11   1.081132 S    
C44   C46   1.400618 A    
C41   C43   1.380582 A    
C49   H13   1.081819 S    
C23   C39   1.390571 A    
