data_mof_unit_30427.cif
_audit_creation_date              2012-12-11T15:44:45-0500
_audit_creation_method            fapswitch 2.2
_symmetry_space_group_name_H-M    P1
_symmetry_Int_Tables_number       1
_space_group_crystal_system       triclinic
_cell_length_a                    19.161942
_cell_length_b                    10.944383
_cell_length_c                    18.69645
_cell_angle_alpha                 89.820663
_cell_angle_beta                  90.169422
_cell_angle_gamma                 90.140892
_cell_volume                      3920.88971896

loop_
_atom_site_label
_atom_site_type_symbol
_atom_type_description
_atom_site_fract_x
_atom_site_fract_y
_atom_site_fract_z
_atom_type_partial_charge
C1    C     C_R   0.775228 0.480505 0.638709 0.535680
C2    C     C_R   0.240187 0.536129 0.352621 0.549158
C3    C     C_R   0.261279 0.030997 0.645523 0.573320
C4    C     C_R   0.739327 0.036191 0.352611 0.554878
C5    C     C_R   0.829550 0.164453 0.513097 -0.163123
C6    C     C_R   0.218458 0.987552 0.454559 -0.133886
C7    C     C_R   0.338732 0.627946 0.517253 -0.160983
C8    C     C_R   0.723256 0.462419 0.446098 -0.125521
C9    C     C_R   0.815997 0.142778 0.440509 -0.125620
C10   C     C_R   0.220613 0.973744 0.527667 -0.154844
C11   C     C_R   0.326594 0.603497 0.444587 -0.134072
C12   C     C_R   0.732692 0.430629 0.517732 -0.174900
C13   C     C_3   0.640580 0.009767 0.482754 -0.256294
C14   C     C_3   0.278694 0.291764 0.557116 -0.269257
C15   C     C_3   0.133538 0.621715 0.470303 -0.259084
C16   C     C_3   0.801723 0.738081 0.561312 -0.246951
C17   C     C_3   0.662692 0.013540 0.560753 -0.240521
C18   C     C_3   0.272207 0.311603 0.477189 -0.261296
C19   C     C_3   0.146947 0.649462 0.548563 -0.242361
C20   C     C_3   0.789831 0.775539 0.484172 -0.272297
C21   C     C_R   0.777492 0.142003 0.564100 0.008346
C22   C     C_R   0.245576 0.093606 0.425016 0.048659
C23   C     C_R   0.282576 0.658137 0.561634 0.009294
C24   C     C_R   0.750037 0.573812 0.420837 0.053076
C25   C     C_R   0.991361 0.326875 0.422669 0.000362
C26   C     C_R   0.999937 0.355585 0.572268 -0.006870
C27   C     C_R   0.489806 0.821057 0.421150 0.017846
C28   C     C_R   0.496314 0.854440 0.570326 -0.002942
C29   C     C_R   0.012743 0.101636 0.440639 0.173600
C30   C     C_R   0.052795 0.150692 0.582088 0.172256
C31   C     C_R   0.521324 0.598664 0.441163 0.159864
C32   C     C_R   0.558406 0.657891 0.582159 0.164080
C33   C     C_R   0.038462 0.009122 0.484819 -0.128894
C34   C     C_R   0.059398 0.033807 0.554256 -0.109367
C35   C     C_R   0.550615 0.511414 0.486732 -0.134066
C36   C     C_R   0.571248 0.541891 0.555390 -0.101923
C37   C     C_R   0.020892 0.244428 0.540764 -0.045171
C38   C     C_R   0.008236 0.224352 0.466683 -0.039013
C39   C     C_R   0.521399 0.744846 0.540149 -0.046819
C40   C     C_R   0.510252 0.721238 0.466115 -0.033177
C41   C     C_R   0.983322 0.460019 0.527217 -0.023751
C42   C     C_R   0.967931 0.435623 0.454178 -0.027328
C43   C     C_R   0.475050 0.954217 0.523923 -0.032602
C44   C     C_R   0.460290 0.925531 0.451445 -0.023279
C45   C     C_R   0.790499 0.168263 0.638609 0.519597
C46   C     C_R   0.225767 0.128317 0.354517 0.575553
C47   C     C_R   0.291689 0.671888 0.638881 0.542432
C48   C     C_R   0.726373 0.625269 0.354040 0.567564
C49   C     C_R   0.980589 0.588126 0.548777 0.176972
C50   C     C_R   0.937060 0.526923 0.410490 0.183575
C51   C     C_R   0.470689 0.082900 0.542795 0.169095
C52   C     C_R   0.425957 0.011022 0.406665 0.176835
C53   C     C_R   0.963047 0.678048 0.498493 -0.158266
C54   C     C_R   0.941273 0.648052 0.430383 -0.114856
C55   C     C_R   0.447921 0.168591 0.492140 -0.130812
C56   C     C_R   0.424743 0.132909 0.425387 -0.107453
C57   C     C_R   0.729721 0.002908 0.063131 0.011813
C58   C     C_R   0.248999 0.070248 0.925442 0.035127
C59   C     C_R   0.229719 0.502912 0.063132 0.011633
C60   C     C_R   0.749007 0.570238 0.925442 0.033505
C61   C     C_R   0.789404 0.966811 0.026917 -0.009145
C62   C     C_R   0.203687 0.000203 0.967542 0.100901
C63   C     C_R   0.289397 0.466792 0.026914 -0.009121
C64   C     C_R   0.703705 0.500179 0.967545 0.100077
C65   C     C_R   0.798580 0.992808 0.955728 0.010022
C66   C     C_R   0.201808 0.011630 0.040339 0.089347
C67   C     C_R   0.298575 0.492791 0.955726 0.009543
C68   C     C_R   0.701819 0.511617 0.040343 0.089894
C69   C     C_R   0.683395 0.078057 0.949033 -0.154579
C70   C     C_R   0.288542 0.170010 0.033275 -0.171983
C71   C     C_R   0.183395 0.578078 0.949035 -0.154776
C72   C     C_R   0.788538 0.670025 0.033271 -0.171840
C73   C     C_R   0.673953 0.049852 0.022154 -0.155191
C74   C     C_R   0.289382 0.160399 0.958563 -0.165384
C75   C     C_R   0.173955 0.549888 0.022158 -0.155412
C76   C     C_R   0.789377 0.660410 0.958559 -0.165352
C77   C     C_3   0.864214 0.989744 0.044609 -0.233956
C78   C     C_3   0.195781 0.864757 0.971975 -0.250179
C79   C     C_3   0.364210 0.489703 0.044605 -0.233804
C80   C     C_3   0.695828 0.364733 0.971984 -0.250630
C81   C     C_3   0.874760 0.016817 0.966260 -0.225513
C82   C     C_3   0.194127 0.877613 0.052371 -0.270249
C83   C     C_3   0.374758 0.516781 0.966256 -0.225625
C84   C     C_3   0.694156 0.377602 0.052379 -0.270408
C85   C     C_R   0.749009 0.060082 0.917308 0.020378
C86   C     C_R   0.245794 0.092657 0.074896 0.010156
C87   C     C_R   0.249006 0.560079 0.917308 0.020030
C88   C     C_R   0.745800 0.592653 0.074895 0.009546
C89   C     C_R   0.969866 0.349647 0.645403 0.587577
C90   C     C_R   0.028183 0.343441 0.353188 0.598304
C91   C     C_R   0.468515 0.849585 0.644506 0.596057
C92   C     C_R   0.528108 0.842606 0.352988 0.592547
C93   C     C_R   0.995731 0.327863 0.077902 -0.001958
C94   C     C_R   0.989205 0.340923 0.928402 -0.005690
C95   C     C_R   0.495720 0.827863 0.077908 -0.001271
C96   C     C_R   0.489199 0.840926 0.928408 -0.005000
C97   C     C_R   0.963341 0.426175 0.044447 -0.024669
C98   C     C_R   0.961270 0.432162 0.971684 -0.024197
C99   C     C_R   0.463327 0.926171 0.044454 -0.023752
C100  C     C_R   0.461255 0.932158 0.971689 -0.023743
C101  C     C_R   0.011384 0.231547 0.960745 0.128833
C102  C     C_R   0.010752 0.221912 0.035888 0.133652
C103  C     C_R   0.511380 0.731553 0.960751 0.128848
C104  C     C_R   0.510742 0.721914 0.035894 0.133337
C105  C     C_3   0.968705 0.562333 0.051413 -0.250619
C106  C     C_3   0.970064 0.567613 0.970374 -0.249134
C107  C     C_3   0.468700 0.062328 0.051421 -0.250717
C108  C     C_3   0.470064 0.067609 0.970383 -0.249648
C109  C     C_R   0.760698 0.530616 0.852680 0.572136
C110  C     C_R   0.225847 0.482198 0.140516 0.553625
C111  C     C_R   0.260698 0.030611 0.852685 0.563538
C112  C     C_R   0.725847 0.982196 0.140516 0.551672
C113  C     C_R   0.771654 0.122073 0.851705 0.538636
C114  C     C_R   0.227828 0.126109 0.147235 0.561199
C115  C     C_R   0.271655 0.622074 0.851706 0.537683
C116  C     C_R   0.727828 0.626111 0.147233 0.558062
C117  C     C_R   0.970051 0.346953 0.853810 0.597799
C118  C     C_R   0.029187 0.345039 0.146839 0.581192
C119  C     C_R   0.470049 0.846953 0.853813 0.597920
C120  C     C_R   0.529185 0.845039 0.146841 0.582287
C121  C     C_R   0.750062 0.100566 0.419246 0.015647
C122  C     C_R   0.253156 0.061062 0.571772 0.043244
C123  C     C_R   0.258456 0.607130 0.415883 0.028632
C124  C     C_R   0.771283 0.506783 0.563378 0.012047
C125  C     C_R   0.695881 0.102330 0.468844 0.001431
C126  C     C_R   0.287369 0.159030 0.541376 0.024671
C127  C     C_R   0.207009 0.659109 0.457308 -0.000394
C128  C     C_R   0.804163 0.609252 0.535419 0.042132
C129  C     C_R   0.710434 0.115463 0.540492 0.020943
C130  C     C_R   0.280718 0.177328 0.468956 0.008708
C131  C     C_R   0.218965 0.681788 0.528529 -0.015323
C132  C     C_R   0.792665 0.643181 0.465647 0.023715
Cr1   Cr    Cr6+3 0.885860 0.491680 0.749630 1.078390
Cr2   Cr    Cr6+3 0.114140 0.491680 0.250370 1.047831
Cr3   Cr    Cr6+3 0.385860 0.991680 0.749630 1.078538
Cr4   Cr    Cr6+3 0.614140 0.991680 0.250370 1.048617
Cr5   Cr    Cr6+3 0.730490 0.332970 0.748720 1.075465
Cr6   Cr    Cr6+3 0.269510 0.332970 0.251280 1.056304
Cr7   Cr    Cr6+3 0.230490 0.832970 0.748720 1.075282
Cr8   Cr    Cr6+3 0.769510 0.832970 0.251280 1.065926
Cr9   Cr    Cr6+3 0.887570 0.179310 0.750150 1.091348
Cr10  Cr    Cr6+3 0.112430 0.179310 0.249850 1.125144
Cr11  Cr    Cr6+3 0.387570 0.679310 0.750150 1.090094
Cr12  Cr    Cr6+3 0.612430 0.679310 0.249850 1.128352
H1    H     H_    0.880513 0.195114 0.529832 0.126386
H2    H     H_    0.190151 0.921664 0.422404 0.149953
H3    H     H_    0.390296 0.614141 0.539508 0.144142
H4    H     H_    0.690159 0.405911 0.412660 0.151555
H5    H     H_    0.963340 0.773568 0.513189 0.142257
H6    H     H_    0.923847 0.719195 0.394193 0.168643
H7    H     H_    0.447015 0.265137 0.504809 0.151027
H8    H     H_    0.404312 0.200506 0.388514 0.167620
H9    H     H_    0.642211 0.123318 0.919598 0.126559
H10   H     H_    0.320952 0.237711 0.058681 0.136614
H11   H     H_    0.142213 0.623353 0.919602 0.127389
H12   H     H_    0.820934 0.737753 0.058672 0.136810
H13   H     H_    0.625514 0.072570 0.047509 0.127222
H14   H     H_    0.323288 0.219062 0.927402 0.129584
H15   H     H_    0.125531 0.572666 0.047520 0.127155
H16   H     H_    0.823272 0.719088 0.927395 0.130522
H17   H     H_    0.892188 0.906517 0.062862 0.168333
H18   H     H_    0.243023 0.816370 0.952853 0.131485
H19   H     H_    0.392179 0.406465 0.062851 0.168034
H20   H     H_    0.743084 0.316377 0.952872 0.131042
H21   H     H_    0.871532 0.071544 0.079036 0.189694
H22   H     H_    0.145226 0.834188 0.948856 0.177856
H23   H     H_    0.371536 0.571497 0.079034 0.190194
H24   H     H_    0.645282 0.334122 0.948860 0.177396
H25   H     H_    0.888568 0.113767 0.955942 0.169101
H26   H     H_    0.142780 0.853052 0.075936 0.188915
H27   H     H_    0.388574 0.613728 0.955942 0.169387
H28   H     H_    0.642810 0.353033 0.075935 0.189051
H29   H     H_    0.907770 0.948070 0.938826 0.185899
H30   H     H_    0.240160 0.836436 0.079586 0.140163
H31   H     H_    0.407762 0.448029 0.938820 0.185113
H32   H     H_    0.740183 0.336443 0.079607 0.138497
H33   H     H_    0.017099 0.597411 0.076125 0.162437
H34   H     H_    0.924879 0.614884 0.946404 0.157533
H35   H     H_    0.517096 0.097398 0.076134 0.162147
H36   H     H_    0.424884 0.114899 0.946411 0.157348
H37   H     H_    0.920650 0.601636 0.074744 0.153153
H38   H     H_    0.021402 0.596069 0.948487 0.142359
H39   H     H_    0.420647 0.101641 0.074749 0.152919
H40   H     H_    0.521408 0.096053 0.948500 0.141582
H41   H     H_    0.856834 0.154534 0.401754 0.191705
H42   H     H_    0.193472 0.897648 0.550398 0.139296
H43   H     H_    0.368252 0.566859 0.413618 0.191346
H44   H     H_    0.705202 0.352602 0.538805 0.136224
H45   H     H_    0.123958 0.523081 0.459912 0.148935
H46   H     H_    0.852494 0.769721 0.583305 0.180241
H47   H     H_    0.647690 0.921082 0.455665 0.122825
H48   H     H_    0.326798 0.332842 0.580282 0.171683
H49   H     H_    0.589344 0.051901 0.471820 0.170755
H50   H     H_    0.229825 0.312029 0.586740 0.172290
H51   H     H_    0.096413 0.685755 0.444276 0.155803
H52   H     H_    0.756226 0.754720 0.596614 0.176503
H53   H     H_    0.621840 0.041023 0.598229 0.215077
H54   H     H_    0.219790 0.344309 0.460237 0.132810
H55   H     H_    0.120017 0.733076 0.566585 0.175932
H56   H     H_    0.737711 0.813576 0.474306 0.129446
H57   H     H_    0.691538 0.930876 0.578063 0.153101
H58   H     H_    0.317668 0.360718 0.454467 0.162469
H59   H     H_    0.144162 0.567836 0.584067 0.192116
H60   H     H_    0.833659 0.829257 0.461206 0.167680
H61   H     H_    0.042863 0.916781 0.464871 0.129344
H62   H     H_    0.080982 0.961252 0.586843 0.164766
H63   H     H_    0.558708 0.418781 0.468338 0.148983
H64   H     H_    0.597379 0.474333 0.588158 0.187365
O1    O     O_R   0.957020 0.451640 0.669920 -0.462004
O2    O     O_R   0.042980 0.451640 0.330080 -0.490856
O3    O     O_R   0.457020 0.951640 0.669920 -0.457697
O4    O     O_R   0.542980 0.951640 0.330080 -0.493325
O5    O     O_R   0.736470 0.210100 0.823360 -0.504886
O6    O     O_R   0.263530 0.210100 0.176640 -0.517851
O7    O     O_R   0.236470 0.710100 0.823360 -0.503485
O8    O     O_R   0.763530 0.710100 0.176640 -0.517222
O9    O     O_R   0.831960 0.093290 0.830130 -0.502000
O10   O     O_R   0.168040 0.093290 0.169870 -0.461532
O11   O     O_R   0.331960 0.593290 0.830130 -0.503966
O12   O     O_R   0.668040 0.593290 0.169870 -0.461244
O13   O     O_R   0.945600 0.250580 0.824860 -0.452108
O14   O     O_R   0.054400 0.250580 0.175140 -0.441654
O15   O     O_R   0.445600 0.750580 0.824860 -0.453856
O16   O     O_R   0.554400 0.750580 0.175140 -0.440325
O17   O     O_3   0.834640 0.334650 0.749500 -0.329324
O18   O     O_3   0.165360 0.334650 0.250500 -0.305904
O19   O     O_3   0.334640 0.834650 0.749500 -0.312531
O20   O     O_3   0.665360 0.834650 0.250500 -0.307318
O21   O     O_R   0.821450 0.543440 0.674610 -0.474907
O22   O     O_R   0.178550 0.543440 0.325390 -0.498801
O23   O     O_R   0.321450 0.043440 0.674610 -0.486952
O24   O     O_R   0.678550 0.043440 0.325390 -0.499467
O25   O     O_R   0.715320 0.458650 0.668100 -0.478607
O26   O     O_R   0.284680 0.458650 0.331900 -0.509183
O27   O     O_R   0.215320 0.958650 0.668100 -0.502919
O28   O     O_R   0.784680 0.958650 0.331900 -0.487872
O29   O     O_R   0.737170 0.209590 0.674530 -0.495949
O30   O     O_R   0.262830 0.209590 0.325470 -0.491151
O31   O     O_R   0.237170 0.709590 0.674530 -0.487640
O32   O     O_R   0.762830 0.709590 0.325470 -0.481237
O33   O     O_R   0.832710 0.092740 0.669580 -0.490303
O34   O     O_R   0.167290 0.092740 0.330420 -0.499327
O35   O     O_R   0.332710 0.592740 0.669580 -0.505093
O36   O     O_R   0.667290 0.592740 0.330420 -0.496678
O37   O     O_R   0.946290 0.250060 0.676040 -0.482644
O38   O     O_R   0.053710 0.250060 0.323960 -0.455426
O39   O     O_R   0.446290 0.750060 0.676040 -0.484634
O40   O     O_R   0.553710 0.750060 0.323960 -0.452719
O41   O     O_R   0.956270 0.452200 0.830470 -0.505353
O42   O     O_R   0.043730 0.452200 0.169530 -0.523720
O43   O     O_R   0.456270 0.952200 0.830470 -0.508574
O44   O     O_R   0.543730 0.952200 0.169530 -0.525043
O45   O     O_R   0.820760 0.543950 0.823440 -0.506364
O46   O     O_R   0.179240 0.543950 0.176560 -0.502602
O47   O     O_R   0.320760 0.043950 0.823440 -0.512489
O48   O     O_R   0.679240 0.043950 0.176560 -0.504831
O49   O     O_R   0.714570 0.459210 0.828640 -0.468746
O50   O     O_R   0.285430 0.459210 0.171360 -0.498129
O51   O     O_R   0.214570 0.959210 0.828640 -0.470458
O52   O     O_R   0.785430 0.959210 0.171360 -0.499031
Br1   Br    Br    0.046891 0.099188 0.903113 -0.445604
Br2   Br    Br    0.030610 0.063434 0.077298 -0.490868
Br3   Br    Br    0.546903 0.599207 0.903123 -0.447026
Br4   Br    Br    0.530597 0.563436 0.077306 -0.489466
Br5   Br    Br    0.972971 0.042546 0.352178 -0.502027
Br6   Br    Br    0.098147 0.180013 0.672680 -0.462344
Br7   Br    Br    0.489025 0.530321 0.351532 -0.498775
Br8   Br    Br    0.603477 0.697076 0.671551 -0.456276
Br9   Br    Br    0.889773 0.490035 0.321596 -0.507113
Br10  Br    Br    0.007771 0.668194 0.637910 -0.530296
Br11  Br    Br    0.381858 0.965001 0.317805 -0.500190
Br12  Br    Br    0.509254 0.168083 0.624717 -0.528367

loop_
_geom_bond_atom_site_label_1
_geom_bond_atom_site_label_2
_ccdc_geom_bond_type
C58   C62   A    
C53   H5    S    
C55   C56   A    
C82   H26   S    
C67   C83   S    
C101  C102  A    
Cr2   O2    S    
C101  Br1   S    
C118  O14   A    
Cr1   O1    S    
C41   C42   A    
C14   C18   S    
C96   C119  S    
C117  O13   A    
C35   C36   A    
Cr10  O14   S    
C113  O5    A    
C72   C76   A    
Cr6   O50   S    
C97   C98   A    
C92   O40   A    
C32   Br8   S    
C54   H6    S    
C26   C37   A    
C63   C79   S    
C53   C54   A    
C34   H62   S    
C26   C89   S    
C15   C19   S    
Cr11  O35   S    
Cr4   O24   S    
C33   H61   S    
C25   C90   S    
C50   C54   A    
C95   C120  S    
Cr3   O19   S    
C116  O8    A    
C11   H43   S    
Cr2   O18   S    
C16   C20   S    
Cr7   O51   S    
Cr1   O17   S    
C20   H56   S    
Cr12  O12   S    
C9    H41   S    
Cr9   O33   S    
Cr11  O15   S    
C6    H2    S    
C94   C117  S    
C95   C99   A    
C112  O48   A    
C52   Br11  S    
C94   C98   A    
C77   H21   S    
C12   H44   S    
Cr12  O36   S    
C46   O34   A    
Cr8   O32   S    
C59   C110  S    
C29   Br5   S    
C31   C40   A    
C108  H36   S    
Cr7   O19   S    
C36   H64   S    
C32   C39   A    
C41   C49   A    
Cr6   O18   S    
C92   O4    A    
C114  O6    A    
C106  H38   S    
Cr5   O17   S    
C60   C109  S    
Cr9   O9    S    
Cr4   O4    S    
C77   H17   S    
C65   C81   S    
C27   C44   A    
C2    O26   A    
Cr10  O10   S    
C82   H30   S    
C94   C101  A    
C1    O25   A    
Cr10  O38   S    
C21   C129  A    
C83   H27   S    
C29   C38   A    
C70   C74   A    
C9    C121  A    
C107  C108  S    
C102  Br2   S    
C69   C73   A    
C30   Br6   S    
C96   C100  A    
C81   H25   S    
C116  O12   A    
C87   C115  S    
C3    C122  S    
C48   O36   A    
C124  C128  A    
C3    O27   A    
C49   Br10  S    
C44   C52   A    
Cr2   O22   S    
Cr4   O20   S    
C72   H12   S    
C29   C33   A    
C15   C127  S    
C51   Br12  S    
C22   C130  A    
C19   C131  S    
C64   C80   S    
C79   H23   S    
C115  O11   A    
C8    H4    S    
C59   C75   A    
C4    C121  S    
C20   C132  S    
C21   C45   S    
Cr12  O20   S    
C128  C132  A    
C111  O51   A    
C72   C88   A    
C57   C73   A    
Cr4   O48   S    
Cr10  O18   S    
C7    H3    S    
C14   C126  S    
C111  O47   A    
C115  O7    A    
C91   O39   A    
C100  C108  S    
C5    H1    S    
C30   C34   A    
C88   C116  S    
C31   Br7   S    
C80   C84   S    
C68   C84   S    
C80   H24   S    
C23   C47   S    
C17   H53   S    
C20   H60   S    
C91   O3    A    
C118  O42   A    
Cr8   O20   S    
C61   C77   S    
C39   C40   A    
C90   O2    A    
Cr5   O29   S    
C62   C66   A    
C89   O1    A    
C28   C39   A    
C84   H28   S    
Cr10  O34   S    
Cr3   O3    S    
Cr7   O31   S    
C60   C76   A    
C80   H20   S    
C58   C111  S    
C30   C37   A    
C107  H39   S    
C14   H50   S    
C103  Br3   S    
C81   H29   S    
C122  C126  A    
Cr8   O8    S    
C7    C11   A    
C43   C44   A    
C63   C67   A    
C121  C125  A    
C37   C38   A    
C16   H52   S    
C119  O43   A    
C25   C38   A    
C66   C82   S    
Cr9   O17   S    
C78   C82   S    
C93   C97   A    
Cr9   O37   S    
C99   C100  A    
C12   C124  A    
C50   Br9   S    
C77   C81   S    
C27   C40   A    
C8    C12   A    
C71   H11   S    
C45   O29   A    
C19   H59   S    
C33   C34   A    
C23   C131  A    
C27   C92   S    
C18   H58   S    
Cr1   O45   S    
C74   H14   S    
C79   H19   S    
C24   C48   S    
C16   C128  S    
Cr2   O46   S    
C78   H22   S    
C16   H46   S    
C4    O24   A    
C110  O50   A    
C71   C87   A    
C15   H45   S    
Cr3   O43   S    
C35   H63   S    
C22   C46   S    
C42   C50   A    
C78   H18   S    
Cr12  O40   S    
C125  C129  A    
Cr7   O27   S    
C68   C88   A    
C31   C35   A    
C59   C63   A    
Cr6   O26   S    
C56   H8    S    
C93   C118  S    
Cr2   O42   S    
Cr1   O41   S    
C3    O23   A    
C70   C86   A    
C64   C68   A    
C123  C127  A    
C69   C85   A    
C95   C104  A    
C58   C74   A    
C105  H33   S    
C69   H9    S    
C4    O28   A    
C75   H15   S    
C55   H7    S    
C119  O15   A    
Cr6   O6    S    
C117  O41   A    
Cr8   O52   S    
Cr5   O5    S    
C86   C114  S    
C70   H10   S    
C93   C102  A    
C67   C87   A    
C97   C105  S    
C62   C78   S    
C11   C123  A    
C120  O44   A    
Cr11  O19   S    
C10   C122  A    
Cr1   O21   S    
C13   H47   S    
C25   C42   A    
C66   C86   A    
C114  O10   A    
C32   C36   A    
C45   O33   A    
C57   C61   A    
C79   C83   S    
C73   H13   S    
Cr5   O49   S    
C17   H57   S    
C99   C107  S    
C105  C106  S    
C48   O32   A    
C28   C43   A    
C19   H55   S    
C98   C106  S    
C13   C17   S    
C60   C64   A    
C105  H37   S    
C85   C113  S    
C108  H40   S    
C1    C124  S    
C15   H51   S    
C113  O9    A    
C65   C85   A    
C112  O52   A    
C47   O35   A    
C24   C132  A    
C43   C51   A    
C76   H16   S    
C110  O46   A    
C7    C23   A    
C90   O38   A    
C109  O45   A    
C10   H42   S    
C47   O31   A    
C89   O37   A    
C83   H31   S    
Cr6   O30   S    
C28   C91   S    
C51   C55   A    
C14   H48   S    
C46   O30   A    
C61   C65   A    
C109  O49   A    
C127  C131  A    
Cr12  O16   S    
C49   C53   A    
C18   C130  S    
C6    C10   A    
C2    O22   A    
Cr11  O11   S    
C57   C112  S    
Cr7   O7    S    
C1    O21   A    
C107  H35   S    
Cr11  O39   S    
C5    C21   A    
C8    C24   A    
C120  O16   A    
C96   C103  A    
C103  C104  A    
Cr8   O28   S    
C126  C130  A    
Cr4   O44   S    
C13   H49   S    
C5    C9    A    
C104  Br4   S    
Cr3   O47   S    
C84   H32   S    
Cr5   O25   S    
C13   C125  S    
C106  H34   S    
C17   C129  S    
C2    C123  S    
C18   H54   S    
C52   C56   A    
C26   C41   A    
Cr9   O13   S    
Cr3   O23   S    
C71   C75   A    
C6    C22   A    
