data_mof_unit_44403.cif
_audit_creation_date              2013-03-05T15:53:46-0500
_audit_creation_method            fapswitch 2.2
_symmetry_space_group_name_H-M    P1
_symmetry_Int_Tables_number       1
_space_group_crystal_system       triclinic
_cell_length_a                    10.775443
_cell_length_b                    10.63037
_cell_length_c                    10.020775
_cell_angle_alpha                 88.89779
_cell_angle_beta                  88.115516
_cell_angle_gamma                 93.740335
_cell_volume                      1144.52159827

loop_
_atom_site_label
_atom_site_type_symbol
_atom_site_description
_atom_site_fract_x
_atom_site_fract_y
_atom_site_fract_z
_atom_type_partial_charge
O1    O     O_R   0.500000 0.316780 0.614690 -0.601354
O2    O     O_R   0.499990 0.316750 0.385360 -0.631147
C1    C     C_R   0.504336 0.261099 0.501317 0.893859
O3    O     O_R   0.314800 0.499990 0.614670 -0.557271
O4    O     O_R   0.314790 0.499970 0.385330 -0.640077
C2    C     C_R   0.257596 0.501381 0.501510 0.882926
Zn1   Zn    Zn3+2 0.500010 0.500020 0.653130 0.979649
Zn2   Zn    Zn3+2 0.499990 0.499980 0.346870 0.938427
O5    O     O_R   0.500010 0.683250 0.614640 -0.617277
O6    O     O_R   0.500000 0.683220 0.385310 -0.625375
O7    O     O_R   0.685210 0.500030 0.614670 -0.650074
O8    O     O_R   0.685200 0.500010 0.385330 -0.624454
C3    C     C_R   0.504533 0.739143 0.498868 0.842488
C4    C     C_R   0.741822 0.505777 0.497406 0.825199
C5    C     C_3   0.054761 0.407512 0.605172 0.327307
C6    C     C_3   0.914837 0.419462 0.603684 -0.497196
H1    H     H_    0.867240 0.326215 0.588192 0.182143
H2    H     H_    0.879224 0.451207 0.701968 0.204880
H3    H     H_    0.897692 0.673366 0.621116 0.163697
C7    C     C_3   0.080491 0.645195 0.525646 -0.039080
C8    C     C_3   0.073358 0.474051 0.358982 -0.451278
C9    C     C_3   0.120314 0.506857 0.502573 0.022198
H4    H     H_    0.108973 0.548175 0.284698 0.200049
H5    H     H_    0.109006 0.385150 0.321443 0.217810
C10   C     C_3   0.878482 0.510952 0.492891 0.082476
C11   C     C_3   0.935636 0.646567 0.521709 0.014969
C12   C     C_3   0.931047 0.464811 0.357912 -0.373342
H6    H     H_    0.896807 0.365181 0.342430 0.204074
H7    H     H_    0.899694 0.521266 0.272230 0.201710
H8    H     H_    0.123178 0.703102 0.439936 0.177066
H9    H     H_    0.344070 0.105629 0.391418 0.159153
C13   C     C_R   0.693965 0.138150 0.649299 -0.200439
H10   H     H_    0.691527 0.237990 0.662835 0.158844
C14   C     C_R   0.787313 0.077218 0.712613 -0.068590
H11   H     H_    0.855040 0.130791 0.769915 0.175934
C15   C     C_R   0.792444 0.947453 0.703520 -0.099134
H12   H     H_    0.864807 0.899936 0.752677 0.145313
C16   C     C_R   0.702713 0.878305 0.633318 -0.191954
H13   H     H_    0.709153 0.777574 0.630786 0.143931
C17   C     C_R   0.607392 0.938796 0.568268 0.129326
C18   C     C_R   0.604402 0.070119 0.574125 0.114991
C19   C     C_R   0.510635 0.128510 0.505001 -0.077001
C20   C     C_R   0.419243 0.059750 0.437373 -0.169870
H14   H     H_    0.349077 0.878359 0.380609 0.156111
C21   C     C_R   0.421678 0.931629 0.432048 -0.201970
C22   C     C_R   0.514064 0.872001 0.497432 -0.089230
C23   C     C_R   0.395029 0.294140 0.148616 -0.138194
H15   H     H_    0.343965 0.304633 0.241516 0.196905
C24   C     C_R   0.418892 0.174947 0.104899 -0.213162
H16   H     H_    0.394470 0.092162 0.166708 0.179487
C25   C     C_R   0.472348 0.162901 0.978305 0.150653
C26   C     C_R   0.462027 0.263317 0.885771 0.187275
C27   C     C_R   0.465435 0.389632 0.934721 0.069500
C28   C     C_R   0.449103 0.398159 0.076721 0.101997
N1    N     N_R   0.498810 0.498800 0.142780 -0.116301
C29   C     C_R   0.549899 0.599906 0.065889 0.212988
H17   H     H_    0.578034 0.684505 0.866314 0.172501
C30   C     C_R   0.542285 0.602048 0.923805 -0.080189
N2    N     N_R   0.498760 0.498720 0.857170 -0.123723
I1    I     I_    0.101016 0.428297 0.814728 -0.360763
C31   C     C_3   0.898392 0.747239 0.419930 -0.948970
H18   H     H_    0.796006 0.745489 0.411518 0.234891
H19   H     H_    0.931472 0.842480 0.452885 0.272383
H20   H     H_    0.940334 0.732766 0.319183 0.254916
C32   C     C_3   0.618329 0.709304 0.128983 -0.789587
H21   H     H_    0.683780 0.760632 0.055726 0.214934
H22   H     H_    0.551287 0.776626 0.165560 0.268375
H23   H     H_    0.675115 0.676037 0.210960 0.256682
I2    I     I_    0.084527 0.215186 0.543244 -0.433084
I3    I     I_    0.514390 0.977611 0.924921 -0.409552
I4    I     I_    0.307140 0.188185 0.784812 -0.234491
C33   C     C_3   0.130574 0.715104 0.648196 -0.864507
H24   H     H_    0.081136 0.682108 0.742042 0.268742
H25   H     H_    0.232122 0.708422 0.656848 0.277264
H26   H     H_    0.114621 0.816939 0.636725 0.254615

loop_
_geom_bond_atom_site_label_1
_geom_bond_atom_site_label_2
_geom_bond_distance
_ccdc_geom_bond_type
N1    C29   1.383828 A    
C1    C19   1.415355 S    
C12   H7    1.112288 S    
C33   H25   1.107264 S    
C5    I1    2.186133 S    
C27   N2    1.403669 A    
C23   C24   1.385621 A    
C7    H8    1.115758 S    
C27   C28   1.433370 A    
H14   C21   1.085510 S    
C17   C22   1.411585 A    
H9    C20   1.083279 S    
C15   H12   1.082990 S    
C11   C31   1.545161 S    
C33   H26   1.111518 S    
C3    C22   1.409120 S    
O7    C4    1.304559 A    
C5    C6    1.521858 S    
C2    C9    1.483903 S    
C14   H11   1.082848 S    
C18   C19   1.413247 A    
C31   H19   1.111162 S    
H3    C11   1.113526 S    
O5    C3    1.291233 A    
C5    C9    1.576204 S    
C6    H1    1.102072 S    
C32   H22   1.108386 S    
C13   C18   1.414054 A    
C25   I3    2.124180 S    
C8    C12   1.530605 S    
C8    C9    1.578667 S    
O3    Zn1   2.044977 S    
Zn2   N1    2.045872 S    
Zn1   N2    2.044016 S    
C16   H13   1.078285 S    
C5    I2    2.188426 S    
C25   C26   1.412744 A    
O3    C2    1.308633 A    
C24   C25   1.387535 A    
C30   N2    1.361602 A    
C21   C22   1.389728 A    
O1    C1    1.291977 A    
C13   C14   1.394647 A    
C31   H20   1.110033 S    
Zn1   O7    2.019998 S    
C23   H15   1.077108 S    
Zn2   O8    2.044980 S    
C32   H23   1.106531 S    
C20   C21   1.365971 A    
C23   C28   1.392451 A    
C6    H2    1.111737 S    
C17   C18   1.400787 A    
C7    C9    1.577688 S    
C24   H16   1.079553 S    
C8    H4    1.114214 S    
C19   C20   1.390103 A    
C26   C27   1.437039 A    
C6    C10   1.539065 S    
Zn1   O5    1.978331 S    
C28   N1    1.358481 A    
O1    Zn1   1.992880 S    
O2    Zn2   1.978331 S    
O8    C4    1.296218 A    
C33   H24   1.105069 S    
O6    C3    1.294832 A    
O4    Zn2   2.019997 S    
C10   C12   1.549943 S    
C13   H10   1.074465 S    
C15   C16   1.393544 A    
O2    C1    1.297353 A    
C10   C11   1.566176 S    
C26   I4    2.101213 S    
C16   C17   1.416864 A    
H17   C30   1.081915 S    
O4    C2    1.300047 A    
C7    C11   1.563681 S    
C29   C30   1.428674 A    
C14   C15   1.388776 A    
C4    C10   1.469183 S    
C31   H18   1.108208 S    
Zn2   O6    1.992879 S    
C32   H21   1.111008 S    
C8    H5    1.110727 S    
C12   H6    1.114003 S    
C7    C33   1.542067 S    
C29   C32   1.497648 S    
