data_mof_unit_18003.cif
_audit_creation_date              2012-12-11T14:32:53-0500
_audit_creation_method            fapswitch 2.2
_symmetry_space_group_name_H-M    P1
_symmetry_Int_Tables_number       1
_space_group_crystal_system       triclinic
_cell_length_a                    7.07852
_cell_length_b                    14.359126
_cell_length_c                    18.293089
_cell_angle_alpha                 114.620207
_cell_angle_beta                  94.120735
_cell_angle_gamma                 90.650102
_cell_volume                      1684.18300719

loop_
_atom_site_label
_atom_site_type_symbol
_atom_type_description
_atom_site_fract_x
_atom_site_fract_y
_atom_site_fract_z
_atom_type_partial_charge
O1    O     O_R   0.484560 0.544530 0.414330 -0.527459
O2    O     O_R   0.197040 0.638810 0.585080 -0.526702
O3    O     O_R   0.026800 0.455470 0.585670 -0.538012
C1    C     C_R   0.370774 0.680658 0.607424 0.763867
O4    O     O_R   0.155000 0.556150 0.414940 -0.524632
O5    O     O_R   0.984450 0.372220 0.414320 -0.543619
C2    C     C_R   0.319716 0.563061 0.386192 0.694642
O6    O     O_R   0.526900 0.627780 0.585680 -0.520746
O7    O     O_3   0.339170 0.439750 0.499990 -0.363783
V1    V     V_3+5 0.064350 0.511180 0.500000 1.524183
O8    O     O_R   0.654880 0.361190 0.414920 -0.539338
C3    C     C_R   0.818073 0.325238 0.386865 0.730672
O9    O     O_R   0.696930 0.443850 0.585060 -0.525819
C4    C     C_R   0.873047 0.437948 0.614176 0.749887
V2    V     V_3+5 0.564340 0.488820 0.500000 1.532328
O10   O     O_3   0.839390 0.560250 0.500010 -0.344942
C5    C     C_R   0.049055 0.911397 0.859779 -0.092445
C6    C     C_R   0.911709 0.409016 0.684592 -0.092118
C7    C     C_R   0.935400 0.873572 0.723557 0.201963
C8    C     C_R   0.008993 0.843037 0.781024 -0.217489
C9    C     C_R   0.017608 0.019907 0.878488 0.165204
C10   C     C_R   0.978997 0.054305 0.812599 -0.061058
C11   C     C_R   0.921362 0.975431 0.735207 -0.025390
C12   C     C_R   0.990941 0.159224 0.816382 0.069280
C13   C     C_R   0.936111 0.178942 0.745842 0.020850
C14   C     C_R   0.865951 0.096810 0.677382 -0.281880
C15   C     C_R   0.854354 0.998318 0.669677 0.477492
C16   C     C_R   0.066990 0.244074 0.884806 -0.091312
C17   C     C_R   0.078116 0.342294 0.886138 -0.149028
C18   C     C_R   0.022181 0.360912 0.818098 0.055448
C19   C     C_R   0.949712 0.279989 0.744938 0.016345
C20   C     C_R   0.041751 0.460961 0.823436 -0.127604
C21   C     C_R   0.989529 0.484362 0.758130 -0.237143
C22   C     C_R   0.897259 0.306049 0.675930 0.408895
H1    H     H_    0.009487 0.562731 0.765300 0.125715
H2    H     H_    0.135718 0.405007 0.941477 0.136076
H3    H     H_    0.022277 0.761637 0.765027 0.133361
H4    H     H_    0.801646 0.105451 0.627744 0.209311
H5    H     H_    0.123851 0.235948 0.937815 0.189160
H6    H     H_    0.099390 0.522259 0.879217 0.161911
H7    H     H_    0.111250 0.223018 0.307570 0.156488
H8    H     H_    0.836718 0.036434 0.193785 0.161551
C23   C     C_2   0.132684 0.036707 0.183134 -0.283550
C24   C     C_2   0.972550 0.078391 0.216596 -0.094698
H9    H     H_    0.680268 0.179820 0.295594 0.136044
C25   C     C_2   0.815566 0.222230 0.318812 -0.331341
C26   C     C_2   0.975496 0.180931 0.284910 -0.114435
H10   H     H_    0.268017 0.079077 0.206373 0.135732
C27   C     C_R   0.389121 0.791888 0.672278 -0.075482
C28   C     C_R   0.539352 0.470012 0.827256 -0.099811
C29   C     C_R   0.444765 0.901395 0.813388 0.208787
C30   C     C_R   0.428949 0.804226 0.749991 -0.230181
C31   C     C_R   0.366264 0.884404 0.660492 0.175870
C32   C     C_R   0.399232 0.988499 0.729693 -0.007416
C33   C     C_R   0.424941 0.994535 0.808354 -0.070042
C34   C     C_R   0.420189 0.085776 0.725557 0.058244
C35   C     C_R   0.464128 0.184522 0.795837 -0.026399
C36   C     C_R   0.498624 0.182622 0.871641 0.120350
C37   C     C_R   0.455044 0.092205 0.879389 0.177378
C38   C     C_R   0.430145 0.084379 0.651067 -0.175600
C39   C     C_R   0.459255 0.170021 0.641060 -0.176288
C40   C     C_R   0.468268 0.267533 0.705003 0.108015
C41   C     C_R   0.481975 0.279151 0.784723 0.079257
C42   C     C_R   0.458327 0.352370 0.687667 0.177889
C43   C     C_R   0.499835 0.452641 0.746407 -0.193066
C44   C     C_R   0.504013 0.384382 0.845854 -0.178318
H11   H     H_    0.472675 0.405031 0.906681 0.146260
H12   H     H_    0.493584 0.516478 0.729516 0.119938
H13   H     H_    0.484066 0.155573 0.579787 0.190951
H14   H     H_    0.455653 0.736687 0.761131 0.125540
H15   H     H_    0.448229 0.017407 0.599171 0.200366
H16   H     H_    0.336963 0.660288 0.193946 0.170503
C45   C     C_2   0.318977 0.595997 0.316898 0.194358
C46   C     C_2   0.478981 0.601546 0.279568 0.379041
H17   H     H_    0.765093 0.630705 0.196461 0.190271
C47   C     C_2   0.629345 0.651845 0.178199 -0.327723
C48   C     C_2   0.472602 0.639785 0.213312 -0.177580
O11   O     O_R   0.421600 0.630430 0.917010 -0.547125
O12   O     O_R   0.793840 0.702190 0.087630 -0.544371
O13   O     O_R   0.964010 0.886170 0.088190 -0.541450
C49   C     C_R   0.628688 0.692239 0.114314 0.728063
O14   O     O_R   0.751460 0.619510 0.917500 -0.533648
O15   O     O_R   0.921330 0.802900 0.916840 -0.522008
C50   C     C_R   0.574422 0.579497 0.892011 0.701465
O16   O     O_R   0.464290 0.713700 0.088350 -0.546574
O17   O     O_3   0.609200 0.818520 0.002630 -0.345111
V3    V     V_3+5 0.884140 0.747190 0.002530 1.463872
O18   O     O_R   0.251150 0.814630 0.917340 -0.534434
C51   C     C_R   0.079186 0.854877 0.915150 0.763524
O19   O     O_R   0.293530 0.897310 0.087470 -0.538283
C52   C     C_R   0.130335 0.933318 0.115530 0.745588
V4    V     V_3+5 0.384070 0.769710 0.002370 1.472390
O20   O     O_3   0.109180 0.698190 0.002460 -0.397214
O21   O     O_3   0.743538 0.927747 0.602957 -0.537564
C53   C     C_3   0.790520 0.925283 0.527973 -0.196687
H18   H     H_    0.933040 0.960101 0.530237 0.139249
H19   H     H_    0.682648 0.965026 0.505853 0.130136
H20   H     H_    0.786721 0.844261 0.482945 0.200231
I1    I     I_    0.429509 0.119354 0.005943 -0.308567
I2    I     I_    0.617348 0.903967 0.897458 -0.285762
O22   O     O_3   0.797232 0.239429 0.605292 -0.579263
C54   C     C_3   0.917151 0.191667 0.543323 -0.311755
H21   H     H_    0.046304 0.163623 0.564665 0.167422
H22   H     H_    0.950030 0.242622 0.513780 0.180040
H23   H     H_    0.838935 0.123292 0.496076 0.154165
I3    I     I_    0.264738 0.845764 0.537374 -0.528305
I4    I     I_    0.657195 0.304530 0.974501 -0.408543
I5    I     I_    0.334384 0.316253 0.574014 -0.404770
O23   O     O_3   0.653570 0.579433 0.306395 -0.556778
C55   C     C_3   0.688719 0.476186 0.257792 -0.107166
H24   H     H_    0.696093 0.462210 0.193530 0.162619
H25   H     H_    0.579683 0.422887 0.262460 0.102015
H26   H     H_    0.828008 0.458237 0.279494 0.168984
O24   O     O_3   0.145555 0.611787 0.284487 -0.565011
C56   C     C_3   0.089040 0.710867 0.333097 -0.211613
H27   H     H_    0.979527 0.733473 0.298097 0.153262
H28   H     H_    0.207408 0.770043 0.351319 0.131212
H29   H     H_    0.023701 0.710868 0.386445 0.206479
I6    I     I_    0.862248 0.754899 0.619180 -0.293761
I7    I     I_    0.952178 0.112081 0.999908 -0.311929

loop_
_geom_bond_atom_site_label_1
_geom_bond_atom_site_label_2
_ccdc_geom_bond_type
C13   C19   A    
O15   V3    S    
O22   C54   S    
C33   C37   A    
C37   I1    S    
C45   C46   D    
C4    C6    S    
O2    C1    A    
C53   H18   S    
H17   C47   S    
C46   O23   S    
O12   V3    S    
O24   C56   S    
C35   C36   A    
C53   H20   S    
C28   C50   S    
C2    C45   S    
H9    C25   S    
C17   H2    S    
C14   C15   A    
H16   C48   S    
C16   C17   A    
C9    I7    S    
O5    C3    A    
C18   C19   A    
O14   V3    S    
C5    C8    A    
C34   C35   A    
C54   H23   S    
C36   I4    S    
C55   H24   S    
C40   C42   A    
C54   H21   S    
C32   C33   A    
O8    V2    S    
C31   I3    S    
O18   V4    S    
C56   H28   S    
C46   C48   S    
C35   C41   A    
O1    V2    S    
C11   C15   A    
C23   H10   S    
C24   C26   S    
C1    O6    A    
C43   H12   S    
C44   H11   S    
C41   C44   A    
C7    I6    S    
O9    C4    A    
O21   C53   S    
H8    C24   S    
C28   C43   A    
O16   V4    S    
C42   I5    S    
O15   C51   A    
C32   C34   A    
C22   O22   S    
C29   C30   A    
C5    C51   S    
C12   C13   A    
C3    C25   S    
O12   C49   A    
O17   V3    S    
C14   H4    S    
C38   H15   S    
O11   V4    S    
C13   C14   A    
C31   C32   A    
C23   C52   S    
C45   O24   S    
C34   C38   A    
C38   C39   A    
C7    C11   A    
C23   C24   D    
C17   C18   A    
C28   C44   A    
O19   V4    S    
C56   H29   S    
C40   C41   A    
H7    C26   S    
C19   C22   A    
C47   C48   D    
C54   H22   S    
C6    C22   A    
C55   H26   S    
O3    C4    A    
O6    V2    S    
O14   C50   A    
O9    V2    S    
C10   C12   A    
O2    V1    S    
O4    C2    A    
O7    V1    S    
C39   H13   S    
C29   I2    S    
C25   C26   D    
O1    C2    A    
C12   C16   A    
C27   C30   A    
C47   C49   S    
O5    V1    S    
O8    C3    A    
C53   H19   S    
O13   V3    S    
C16   H5    S    
C1    C27   S    
C42   C43   A    
C7    C8    A    
C36   C37   A    
O4    V1    S    
O3    V1    S    
V1    O10   S    
O23   C55   S    
C20   C21   A    
C18   C20   A    
C8    H3    S    
O19   C52   A    
O13   C52   A    
C27   C31   A    
V3    O20   S    
V4    O20   S    
C21   H1    S    
C29   C33   A    
C20   H6    S    
O7    V2    S    
C39   C40   A    
C6    C21   A    
C55   H25   S    
C30   H14   S    
O11   C50   A    
O18   C51   A    
C10   C11   A    
C15   O21   S    
O17   V4    S    
C56   H27   S    
C9    C10   A    
C49   O16   A    
V2    O10   S    
C5    C9    A    
