data_mof_unit_40422.cif
_audit_creation_date              2012-12-10T16:51:31-0500
_audit_creation_method            fapswitch 2.2
_symmetry_space_group_name_H-M    P1
_symmetry_Int_Tables_number       1
_space_group_crystal_system       triclinic
_cell_length_a                    7.826007
_cell_length_b                    8.569262
_cell_length_c                    12.029706
_cell_angle_alpha                 92.329027
_cell_angle_beta                  100.901193
_cell_angle_gamma                 94.228752
_cell_volume                      788.806629181

loop_
_atom_site_label
_atom_site_type_symbol
_atom_type_description
_atom_site_fract_x
_atom_site_fract_y
_atom_site_fract_z
_atom_type_partial_charge
C1    C     C_R   0.044696 0.794786 0.497254 0.977612
C2    C     C_R   0.157839 0.505985 0.833333 -0.124799
C3    C     C_2   0.067986 0.958543 0.495792 -0.379532
C4    C     C_R   0.105686 0.504805 0.710737 0.852217
C5    C     C_2   0.932255 0.041530 0.504626 -0.379179
C6    C     C_R   0.955374 0.205229 0.502868 0.956977
C7    C     C_R   0.892405 0.483521 0.289002 0.868927
C8    C     C_R   0.796968 0.270375 0.000635 -0.160554
C9    C     C_R   0.830861 0.446047 0.167965 -0.168584
C10   C     C_R   0.076571 0.601682 0.901385 -0.177774
C11   C     C_R   0.150240 0.632802 0.015185 -0.119067
C12   C     C_R   0.394687 0.481727 0.991036 0.099229
C13   C     C_R   0.310441 0.577317 0.059484 -0.212084
C14   C     C_2   0.069879 0.265579 0.143672 0.394966
C15   C     C_R   0.305366 0.430810 0.881467 0.088876
C16   C     C_R   0.564991 0.435664 0.027014 0.087741
C17   C     C_R   0.630433 0.319674 0.962942 0.119563
C18   C     C_R   0.528317 0.253745 0.862180 -0.222092
C19   C     C_R   0.367770 0.309179 0.821376 -0.177496
C20   C     C_R   0.673496 0.505410 0.123603 -0.256740
C21   C     C_R   0.898451 0.329714 0.104588 -0.004608
H1    H     H_    0.804464 0.989883 0.513060 0.179054
H2    H     H_    0.292345 0.255414 0.742591 0.162522
H3    H     H_    0.195800 0.010209 0.487409 0.180227
H4    H     H_    0.171806 0.329336 0.205493 0.101047
H5    H     H_    0.469677 0.374853 0.416052 0.188955
H6    H     H_    0.530276 0.625161 0.583911 0.191540
H7    H     H_    0.574295 0.162001 0.813455 0.145659
H8    H     H_    0.845876 0.182700 0.949914 0.172288
H9    H     H_    0.634363 0.603185 0.169611 0.158796
H10   H     H_    0.960001 0.656999 0.865670 0.160923
H11   H     H_    0.362721 0.606889 0.148039 0.139825
H12   H     H_    0.086815 0.705482 0.068099 0.168280
N1    N     N_2   0.434800 0.456690 0.470850 -0.176354
N2    N     N_2   0.565200 0.543310 0.529150 -0.169246
O1    O     O_R   0.893060 0.738880 0.507150 -0.610345
O2    O     O_R   0.172250 0.711130 0.488470 -0.620628
O3    O     O_R   0.944700 0.520730 0.667600 -0.611327
O4    O     O_R   0.223890 0.492980 0.648920 -0.616305
O5    O     O_R   0.827750 0.288870 0.511530 -0.622906
O6    O     O_R   0.106940 0.261120 0.492850 -0.618350
O7    O     O_R   0.776110 0.507020 0.351080 -0.606683
O8    O     O_R   0.055300 0.479270 0.332400 -0.640814
O9    O     O_2   0.101737 0.139837 0.104154 -0.588603
Zn1   Zn    Zn3+2 0.813580 0.518530 0.512470 0.940770
Zn2   Zn    Zn3+2 0.186420 0.481470 0.487530 0.928076

loop_
_geom_bond_atom_site_label_1
_geom_bond_atom_site_label_2
_ccdc_geom_bond_type
C2    C4    S    
O6    Zn2   S    
C4    O4    A    
N1    Zn2   S    
C7    O8    A    
C13   H11   S    
C19   H2    S    
C8    C17   A    
C12   C15   A    
C1    O2    A    
C16   C20   A    
C17   C18   A    
O1    Zn1   S    
C20   H9    S    
C15   C19   A    
C2    C15   A    
C11   C13   A    
C9    C21   A    
C3    H3    S    
C5    C6    S    
O4    Zn2   S    
C8    H8    S    
C14   C21   S    
C4    O3    A    
C8    C21   A    
C14   H4    S    
O5    Zn1   S    
N1    N2    D    
O8    Zn2   S    
C6    O5    A    
C10   C11   A    
O7    Zn1   S    
N2    Zn1   S    
C3    C5    D    
C11   H12   S    
C18   H7    S    
C12   C13   A    
C14   O9    D    
C18   C19   A    
C7    O7    A    
C7    C9    S    
O3    Zn1   S    
C9    C20   A    
H6    N2    S    
O2    Zn2   S    
C10   H10   S    
H5    N1    S    
C5    H1    S    
C12   C16   A    
C1    O1    A    
C16   C17   A    
C1    C3    S    
C6    O6    A    
C2    C10   A    
