data_mof_unit_25587.cif
_audit_creation_date              2013-03-05T16:12:51-0500
_audit_creation_method            fapswitch 2.2
_symmetry_space_group_name_H-M    P1
_symmetry_Int_Tables_number       1
_space_group_crystal_system       triclinic
_cell_length_a                    10.710018
_cell_length_b                    9.920879
_cell_length_c                    27.327308
_cell_angle_alpha                 90.065218
_cell_angle_beta                  90.879983
_cell_angle_gamma                 90.024095
_cell_volume                      2903.25817786

loop_
_atom_site_label
_atom_site_type_symbol
_atom_site_description
_atom_site_fract_x
_atom_site_fract_y
_atom_site_fract_z
_atom_type_partial_charge
O1    O     O_R   0.316770 0.614620 0.500000 -0.609625
O2    O     O_R   0.683230 0.385380 0.500000 -0.607988
O3    O     O_R   0.683230 0.614620 0.500000 -0.606942
O4    O     O_R   0.316770 0.385380 0.500000 -0.601732
C1    C     C_R   0.260143 0.499995 0.500242 0.916608
C2    C     C_R   0.739877 0.500019 0.499823 0.912300
O5    O     O_R   0.500030 0.614650 0.428760 -0.585774
O6    O     O_R   0.499970 0.385350 0.571240 -0.575572
O7    O     O_R   0.499970 0.614650 0.571240 -0.579784
O8    O     O_R   0.500030 0.385350 0.428760 -0.573849
C3    C     C_R   0.500037 0.499171 0.405885 0.981500
C4    C     C_R   0.501031 0.499392 0.593986 0.972410
Zn1   Zn    Zn3+2 0.500000 0.653120 0.500000 1.072021
Zn2   Zn    Zn3+2 0.500000 0.346880 0.500000 1.072191
C5    C     C_R   0.385048 0.359493 0.180835 0.600697
C6    C     C_R   0.548609 0.316891 0.817054 0.594408
O9    O     O_2   0.289605 0.329692 0.210578 -0.463041
O10   O     O_2   0.632338 0.257210 0.787714 -0.455985
N1    N     N_R   0.496985 0.400905 0.200745 -0.339367
N2    N     N_R   0.453553 0.391629 0.796689 -0.338208
C7    C     C_R   0.602499 0.404259 0.173099 0.531781
C8    C     C_R   0.352144 0.427403 0.823729 0.539987
C9    C     C_R   0.591625 0.377281 0.282430 -0.125186
C10   C     C_R   0.364124 0.407503 0.713581 -0.108084
C11   C     C_R   0.596430 0.407089 0.332087 0.045338
C12   C     C_R   0.373005 0.442765 0.664378 0.040563
C13   C     C_R   0.412990 0.552499 0.322197 0.227512
C14   C     C_R   0.589709 0.513766 0.678962 0.241717
C15   C     C_R   0.418511 0.532993 0.270963 0.037958
C16   C     C_R   0.572649 0.495330 0.729555 0.057750
C17   C     C_R   0.503527 0.438913 0.251635 0.230683
C18   C     C_R   0.462552 0.433824 0.746406 0.220563
C19   C     C_R   0.479405 0.345254 0.101311 -0.089145
C20   C     C_R   0.453629 0.337263 0.896249 -0.087649
C21   C     C_R   0.370487 0.346135 0.129770 -0.161251
C22   C     C_R   0.558243 0.302016 0.868155 -0.159472
C23   C     C_R   0.252318 0.332816 0.106236 0.358620
C24   C     C_R   0.667763 0.254340 0.892120 0.352970
C25   C     C_R   0.596885 0.366811 0.123800 -0.019599
C26   C     C_R   0.346747 0.392040 0.873188 -0.011126
C27   C     C_R   0.505343 0.491735 0.352494 -0.144825
C28   C     C_R   0.486717 0.493704 0.646798 -0.148945
C29   C     C_R   0.347446 0.344449 0.974997 0.076825
C30   C     C_R   0.581446 0.310957 0.022669 0.074232
C31   C     C_R   0.571315 0.291951 0.971492 -0.007841
C32   C     C_R   0.353039 0.329890 0.026482 -0.007773
C33   C     C_R   0.456949 0.322371 0.947623 0.086598
C34   C     C_R   0.471179 0.326701 0.050132 0.086126
C35   C     C_R   0.238526 0.389514 0.950290 -0.192970
C36   C     C_R   0.698270 0.324353 0.046807 -0.194623
C37   C     C_R   0.239477 0.416439 0.900404 -0.086017
C38   C     C_R   0.705519 0.355621 0.096314 -0.081829
O11   O     O_2   0.258118 0.499344 0.803243 -0.529702
O12   O     O_2   0.712215 0.445275 0.193016 -0.517121
C39   C     C_R   0.245112 0.325848 0.055222 -0.265389
C40   C     C_R   0.673185 0.250849 0.943166 -0.267421
H1    H     H_    0.280599 0.358078 0.726372 0.191177
H2    H     H_    0.656466 0.304303 0.267852 0.188586
H3    H     H_    0.155814 0.457296 0.883282 0.210897
H4    H     H_    0.796858 0.371087 0.112975 0.232076
H5    H     H_    0.153943 0.414297 0.969279 0.156312
H6    H     H_    0.785431 0.320654 0.027536 0.160053
H7    H     H_    0.153196 0.318004 0.038650 0.174293
H8    H     H_    0.759176 0.216408 0.960107 0.178883
C41   C     C_R   0.063891 0.377190 0.501092 -0.121429
C42   C     C_R   0.936165 0.622937 0.499189 -0.108691
C43   C     C_R   0.936142 0.377178 0.500342 -0.124234
C44   C     C_R   0.063947 0.622949 0.499717 -0.112806
H9    H     H_    0.112138 0.281321 0.502093 0.204318
H10   H     H_    0.887870 0.718787 0.498293 0.202195
H11   H     H_    0.887902 0.281265 0.500258 0.204832
H12   H     H_    0.112282 0.718844 0.499476 0.201021
C45   C     C_R   0.872474 0.500047 0.499687 -0.033170
C46   C     C_R   0.127578 0.500045 0.500485 -0.034819
C47   C     C_R   0.560181 0.072229 0.536305 0.209574
C48   C     C_R   0.440265 0.928486 0.463670 0.195478
C49   C     C_R   0.439961 0.071926 0.463668 0.206214
C50   C     C_R   0.560666 0.928809 0.536149 0.198985
N3    N     N_R   0.500000 0.857200 0.500000 -0.226061
N4    N     N_R   0.500000 0.142800 0.500000 -0.225191
N5    N     N_R   0.306336 0.617570 0.343427 0.243829
O13   O     O_R   0.257652 0.725050 0.323694 -0.299762
O14   O     O_R   0.248048 0.559848 0.379211 -0.350579
N6    N     N_R   0.713238 0.537948 0.660635 0.210219
O15   O     O_R   0.806980 0.466661 0.676852 -0.332523
O16   O     O_R   0.730536 0.615853 0.623233 -0.311702
N7    N     N_R   0.624127 0.142858 0.574756 0.267838
O17   O     O_R   0.738783 0.181544 0.568694 -0.346798
O18   O     O_R   0.578059 0.143487 0.618526 -0.302949
N8    N     N_R   0.379678 0.858834 0.424519 0.274241
O19   O     O_R   0.431026 0.859388 0.381709 -0.310784
O20   O     O_R   0.262292 0.827693 0.428157 -0.310335
N9    N     N_R   0.374981 0.142305 0.425492 0.269278
O21   O     O_R   0.259741 0.178615 0.431741 -0.348909
O22   O     O_R   0.421077 0.145354 0.381744 -0.322615
N10   N     N_R   0.630186 0.859857 0.573172 0.279363
O23   O     O_R   0.584380 0.851831 0.616891 -0.299100
O24   O     O_R   0.749818 0.845572 0.567663 -0.325938
N11   N     N_3   0.335680 0.603065 0.238015 -0.390705
H13   H     H_    0.243372 0.582163 0.247317 0.283217
H14   H     H_    0.352385 0.706513 0.241179 0.241421
N12   N     N_3   0.664704 0.541422 0.764487 -0.401671
H15   H     H_    0.746113 0.484660 0.761162 0.294905
H16   H     H_    0.685330 0.642250 0.756981 0.229954
N13   N     N_R   0.137676 0.339834 0.132583 0.245953
O25   O     O_R   0.050420 0.251278 0.123957 -0.371462
O26   O     O_R   0.109843 0.449546 0.156170 -0.322723
N14   N     N_R   0.779203 0.222587 0.866066 0.247830
O27   O     O_R   0.837463 0.110125 0.875177 -0.342116
O28   O     O_R   0.836938 0.317304 0.842493 -0.335945
N15   N     N_3   0.269685 0.418805 0.631171 -0.420933
H17   H     H_    0.194767 0.375221 0.649472 0.230686
H18   H     H_    0.238559 0.512570 0.618526 0.188768
N16   N     N_3   0.691721 0.346975 0.362385 -0.430961
H19   H     H_    0.778575 0.375320 0.348780 0.219668
H20   H     H_    0.684073 0.242210 0.359310 0.235323

loop_
_geom_bond_atom_site_label_1
_geom_bond_atom_site_label_2
_geom_bond_distance
_ccdc_geom_bond_type
C9    H2    1.083235 S    
C42   C44   1.368404 A    
N7    O17   1.299470 A    
Zn1   N3    2.024653 S    
N9    O21   1.299586 A    
C14   N6    1.441891 S    
N15   H17   1.045676 S    
C48   N3    1.370238 A    
O3    C2    1.288954 A    
N1    C17   1.441149 S    
N16   H19   1.045587 S    
O5    C3    1.304474 A    
N13   O26   1.301376 A    
C29   C32   1.414836 A    
C19   C25   1.407917 A    
O1    C1    1.288639 A    
C6    N2    1.371167 A    
N1    C7    1.369352 A    
N6    O16   1.297637 A    
C7    O12   1.349823 S    
C13   C15   1.415308 A    
C44   C46   1.397113 A    
N14   O27   1.300999 A    
C49   N9    1.428281 S    
C1    C46   1.419887 S    
O7    Zn1   1.984284 S    
C4    C28   1.454805 S    
C38   H4    1.083440 S    
C31   C40   1.407628 A    
C50   N10   1.422968 S    
C10   H1    1.082807 S    
C41   C43   1.368028 A    
N10   O24   1.300158 A    
C32   C39   1.408004 A    
C36   C38   1.388647 A    
C40   H8    1.080163 S    
C43   C45   1.396980 A    
Zn2   N4    2.024653 S    
C47   N4    1.368303 A    
C43   H11   1.082541 S    
O3    Zn1   1.999380 S    
O6    C4    1.290249 A    
C25   C38   1.398905 A    
N9    O22   1.300785 A    
O4    Zn2   1.999380 S    
O2    C2    1.288839 A    
C5    C21   1.407879 A    
N5    O14   1.301383 A    
N5    O13   1.301064 A    
C8    O11   1.349475 S    
C31   C33   1.411764 A    
C32   C34   1.412301 A    
C35   H5    1.079216 S    
C15   N11   1.434703 S    
C13   N5    1.441603 S    
N6    O15   1.300848 A    
O8    Zn2   1.984289 S    
C11   C27   1.408635 A    
C50   N3    1.371496 A    
C29   C35   1.411917 A    
C35   C37   1.389666 A    
C42   C45   1.396958 A    
C41   C46   1.396704 A    
C39   H7    1.079997 S    
C9    C17   1.396273 A    
O1    Zn1   1.999064 S    
C5    N1    1.371529 A    
C10   C18   1.397937 A    
C23   N13   1.434537 S    
C13   C27   1.415524 A    
N8    O20   1.299799 A    
N11   H13   1.045307 S    
C7    C25   1.397511 A    
C44   H12   1.082970 S    
C8    C26   1.398817 A    
N10   O23   1.300968 A    
C16   N12   1.436003 S    
N15   H18   1.045615 S    
C48   C49   1.423058 A    
N12   H16   1.045537 S    
C47   N7    1.428258 S    
N11   H14   1.044952 S    
N2    C8    1.369646 A    
N7    O18   1.300895 A    
C36   H6    1.079436 S    
C20   C26   1.407822 A    
C37   H3    1.083499 S    
C22   C24   1.416340 A    
C30   C31   1.413475 A    
C12   C28   1.409745 A    
C2    C45   1.420179 S    
N2    C18   1.441549 S    
C49   N4    1.368234 A    
C30   C36   1.411578 A    
C5    O9    1.348620 S    
O6    Zn2   1.983431 S    
C21   C23   1.416836 A    
O7    C4    1.302083 A    
C10   C12   1.394408 A    
O4    C1    1.288993 A    
N16   H20   1.045732 S    
C26   C37   1.399163 A    
N13   O25   1.301087 A    
C14   C16   1.409496 A    
C15   C17   1.411934 A    
C11   N16   1.434726 S    
C6    C22   1.406610 A    
C16   C18   1.411190 A    
N8    O19   1.300331 A    
C42   H10   1.082800 S    
C41   H9    1.082771 S    
C14   C28   1.413697 A    
C19   C21   1.411921 A    
N14   O28   1.301324 A    
C3    C27   1.462783 S    
C20   C22   1.411801 A    
C9    C11   1.388678 A    
C24   N14   1.434068 S    
N12   H15   1.043217 S    
O2    Zn2   1.999064 S    
C47   C50   1.422859 A    
O8    C3    1.291307 A    
C23   C39   1.396674 A    
O5    Zn1   1.983437 S    
C24   C40   1.395756 A    
C6    O10   1.348710 S    
C19   C34   1.411841 A    
C20   C33   1.411720 A    
C29   C33   1.417675 A    
C12   N15   1.439752 S    
C30   C34   1.417527 A    
C48   N8    1.421228 S    
