data_mof_unit_5660.cif
_audit_creation_date              2012-12-10T19:47:26-0500
_audit_creation_method            fapswitch 2.2
_symmetry_space_group_name_H-M    P1
_symmetry_Int_Tables_number       1
_space_group_crystal_system       triclinic
_cell_length_a                    10.82536
_cell_length_b                    10.870169
_cell_length_c                    12.717397
_cell_angle_alpha                 92.987008
_cell_angle_beta                  93.201604
_cell_angle_gamma                 90.282972
_cell_volume                      1492.08854532

loop_
_atom_site_label
_atom_site_type_symbol
_atom_type_description
_atom_site_fract_x
_atom_site_fract_y
_atom_site_fract_z
_atom_type_partial_charge
C1    C     C_R   0.261921 0.496380 0.500380 0.788790
C2    C     C_R   0.808294 0.742749 0.369888 -0.123110
C3    C     C_R   0.129970 0.365341 0.661088 0.123749
C4    C     C_R   0.870029 0.634670 0.338916 0.123748
C5    C     C_R   0.124544 0.399068 0.768829 -0.146945
C6    C     C_R   0.875465 0.600959 0.231171 -0.146955
C7    C     C_R   0.181503 0.326111 0.844551 -0.147583
C8    C     C_R   0.818503 0.673924 0.155454 -0.147577
C9    C     C_R   0.242459 0.218390 0.813213 -0.109713
C10   C     C_R   0.757534 0.781635 0.186802 -0.109707
C11   C     C_R   0.938083 0.447454 0.579784 -0.245789
C12   C     C_R   0.738079 0.503619 0.499620 0.788790
C13   C     C_R   0.061917 0.552546 0.420216 -0.245787
C14   C     C_R   0.871787 0.505781 0.499430 -0.076718
C15   C     C_R   0.128213 0.494219 0.500570 -0.076718
C16   C     C_R   0.503807 0.261890 0.500943 0.787049
C17   C     C_R   0.496193 0.738110 0.499057 0.787045
C18   C     C_R   0.933988 0.560489 0.419258 0.003361
C19   C     C_R   0.066012 0.439514 0.580743 0.003356
C20   C     C_2   0.471501 0.460584 0.030564 -0.271032
C21   C     C_2   0.528501 0.539417 0.969436 -0.271027
C22   C     C_1   0.522894 0.526767 0.852986 0.212934
C23   C     C_R   0.494026 0.871707 0.497440 -0.085741
C24   C     C_1   0.477107 0.473233 0.147014 0.212934
C25   C     C_R   0.760149 0.255147 0.787748 -0.128746
C26   C     C_R   0.239851 0.744852 0.212251 -0.128748
C27   C     C_R   0.709284 0.200469 0.692772 -0.093084
C28   C     C_R   0.290719 0.799526 0.307228 -0.093070
C29   C     C_R   0.601389 0.127843 0.692045 0.137021
C30   C     C_R   0.398609 0.872157 0.307954 0.137021
C31   C     C_R   0.548274 0.107730 0.788221 -0.154368
C32   C     C_R   0.451719 0.892279 0.211777 -0.154379
C33   C     C_R   0.598337 0.163965 0.882472 -0.144157
C34   C     C_R   0.505973 0.128293 0.502559 -0.085738
C35   C     C_R   0.401652 0.836049 0.117525 -0.144156
C36   C     C_R   0.703997 0.237972 0.882181 -0.106456
C37   C     C_R   0.295995 0.762037 0.117817 -0.106458
C38   C     C_R   0.540626 0.938165 0.588447 -0.252447
C39   C     C_R   0.459374 0.061835 0.411553 -0.252447
C40   C     C_R   0.451934 0.934212 0.407398 -0.008426
C41   C     C_R   0.548066 0.065788 0.592602 -0.008422
C42   C     C_R   0.246980 0.183766 0.706041 -0.110869
C43   C     C_R   0.753004 0.816244 0.293978 -0.110865
C44   C     C_R   0.191694 0.257253 0.630126 -0.123120
Cu1   Cu    Cu3+1 0.492140 0.492110 0.395880 0.980182
Cu2   Cu    Cu3+1 0.507860 0.507890 0.604120 0.980183
H1    H     H_    0.743170 0.280953 0.955307 0.125741
H2    H     H_    0.419280 0.383230 0.992934 0.158468
H3    H     H_    0.843634 0.310205 0.788920 0.119314
H4    H     H_    0.156368 0.689790 0.211080 0.119311
H5    H     H_    0.753988 0.213921 0.620116 0.099740
H6    H     H_    0.246020 0.786065 0.379885 0.099739
H7    H     H_    0.468259 0.048093 0.790362 0.110775
H8    H     H_    0.531731 0.951920 0.209635 0.110776
H9    H     H_    0.575029 0.890157 0.656670 0.162692
H10   H     H_    0.424970 0.109843 0.343330 0.162692
H11   H     H_    0.285433 0.161467 0.872033 0.113374
H12   H     H_    0.256819 0.719060 0.044690 0.125739
H13   H     H_    0.714557 0.838564 0.127986 0.113373
H14   H     H_    0.292297 0.099504 0.681447 0.126510
H15   H     H_    0.707678 0.900499 0.318580 0.126514
H16   H     H_    0.195324 0.229063 0.547386 0.104675
H17   H     H_    0.804656 0.770927 0.452631 0.104668
H18   H     H_    0.555799 0.149241 0.955870 0.119119
H19   H     H_    0.444185 0.850779 0.044126 0.119121
H20   H     H_    0.076440 0.481689 0.793959 0.120525
H21   H     H_    0.923578 0.518345 0.206034 0.120523
H22   H     H_    0.177592 0.352588 0.927525 0.121091
H23   H     H_    0.822421 0.647459 0.072476 0.121088
H24   H     H_    0.889486 0.403822 0.639839 0.143811
H25   H     H_    0.110514 0.596179 0.360161 0.143808
H26   H     H_    0.580723 0.616771 0.007066 0.158470
N1    N     N_1   0.480320 0.480250 0.239400 -0.153395
N2    N     N_1   0.519680 0.519750 0.760600 -0.153394
O1    O     O_R   0.313000 0.493330 0.412070 -0.585280
O2    O     O_R   0.687000 0.506670 0.587930 -0.585279
O3    O     O_R   0.326280 0.506660 0.587930 -0.565030
O4    O     O_R   0.673720 0.493340 0.412070 -0.565030
O5    O     O_R   0.493370 0.312980 0.412070 -0.588266
O6    O     O_R   0.506630 0.687020 0.587930 -0.588266
O7    O     O_R   0.506650 0.326310 0.587930 -0.561759
O8    O     O_R   0.493350 0.673690 0.412070 -0.561762

loop_
_geom_bond_atom_site_label_1
_geom_bond_atom_site_label_2
_ccdc_geom_bond_type
Cu2   O6    S    
C27   C29   A    
C1    O3    A    
C14   C18   A    
Cu1   O8    S    
Cu2   O2    S    
C11   H24   S    
Cu1   Cu2   S    
C15   C19   A    
C11   C19   A    
C9    C42   A    
C17   C23   S    
C13   C18   A    
C35   C37   A    
C26   H4    S    
C11   C14   A    
C24   N1    T    
C35   H19   S    
C23   C40   A    
C33   C36   A    
C36   H1    S    
Cu1   N1    S    
C17   O8    A    
C16   C34   S    
C7    H22   S    
C38   H9    S    
C20   C24   S    
C12   O4    A    
C31   C33   A    
C3    C19   S    
Cu1   O4    S    
C1    C15   S    
C37   H12   S    
C4    C18   S    
C21   C22   S    
C34   C41   A    
C42   C44   A    
C32   H8    S    
C27   H5    S    
C3    C44   A    
C21   H26   S    
C34   C39   A    
C1    O1    A    
C32   C35   A    
C38   C41   A    
C4    C6    A    
C42   H14   S    
C39   C40   A    
C5    C7    A    
C6    C8    A    
C13   H25   S    
C44   H16   S    
C17   O6    A    
C2    C4    A    
Cu2   O7    S    
C39   H10   S    
C2    C43   A    
C8    H23   S    
C30   C40   S    
Cu1   O5    S    
C31   H7    S    
C20   H2    S    
C6    H21   S    
C12   C14   S    
C13   C15   A    
C12   O2    A    
C22   N2    T    
Cu2   N2    S    
C2    H17   S    
C43   H15   S    
C7    C9    A    
C29   C41   S    
C10   C43   A    
C5    H20   S    
C3    C5    A    
Cu2   O3    S    
C26   C37   A    
C25   C27   A    
C23   C38   A    
C26   C28   A    
Cu1   O1    S    
C16   O5    A    
C28   C30   A    
C10   H13   S    
C29   C31   A    
C30   C32   A    
C28   H6    S    
C33   H18   S    
C16   O7    A    
C9    H11   S    
C25   H3    S    
C25   C36   A    
C20   C21   D    
C8    C10   A    
