data_mof_unit_58188.cif
_audit_creation_date              2013-03-05T16:50:32-0500
_audit_creation_method            fapswitch 2.2
_symmetry_space_group_name_H-M    P1
_symmetry_Int_Tables_number       1
_space_group_crystal_system       triclinic
_cell_length_a                    15.630182
_cell_length_b                    15.066715
_cell_length_c                    14.896266
_cell_angle_alpha                 90.255985
_cell_angle_beta                  89.491497
_cell_angle_gamma                 90.047589
_cell_volume                      3507.82931056

loop_
_atom_site_label
_atom_site_type_symbol
_atom_site_description
_atom_site_fract_x
_atom_site_fract_y
_atom_site_fract_z
_atom_type_partial_charge
O1    O     O_R   0.378020 0.573650 0.500030 -0.610490
O2    O     O_R   0.621980 0.426350 0.499970 -0.602757
O3    O     O_R   0.621980 0.573650 0.499970 -0.609951
O4    O     O_R   0.378020 0.426350 0.500030 -0.620155
C1    C     C_R   0.338145 0.499965 0.499031 0.894510
C2    C     C_R   0.661917 0.500036 0.499132 0.894835
O5    O     O_R   0.499980 0.573670 0.367860 -0.609184
O6    O     O_R   0.500020 0.426330 0.632140 -0.616998
O7    O     O_R   0.500020 0.573670 0.632140 -0.607312
O8    O     O_R   0.499980 0.426330 0.367860 -0.618028
C3    C     C_R   0.498504 0.499890 0.326706 0.891419
C4    C     C_R   0.500361 0.500295 0.673371 0.888301
Zn1   Zn    Zn3+2 0.500000 0.598370 0.500000 0.975540
Zn2   Zn    Zn3+2 0.500000 0.401630 0.500000 0.967903
C5    C     C_R   0.580919 0.510504 0.813626 0.128408
C6    C     C_R   0.417458 0.494692 0.186457 0.126439
C7    C     C_R   0.502868 0.502210 0.768803 -0.067416
C8    C     C_R   0.495621 0.500842 0.231384 -0.065619
C9    C     C_R   0.424803 0.506721 0.812868 -0.265466
C10   C     C_R   0.571806 0.519267 0.187562 -0.253802
C11   C     C_R   0.420979 0.514964 0.905607 0.078867
C12   C     C_R   0.574428 0.527528 0.094940 0.078041
C13   C     C_R   0.498713 0.522291 0.953305 -0.083045
C14   C     C_R   0.496616 0.521784 0.047204 -0.082567
C15   C     C_R   0.578735 0.527174 0.907014 -0.030996
C16   C     C_R   0.416952 0.512553 0.093457 -0.032347
C17   C     C_R   0.341240 0.517952 0.951102 0.081918
C18   C     C_R   0.652778 0.543304 0.049704 0.080312
C19   C     C_R   0.339804 0.521629 0.045155 0.447929
C20   C     C_R   0.653589 0.548113 0.955755 0.449089
H1    H     H_    0.367245 0.502815 0.773063 0.148181
H2    H     H_    0.629089 0.525775 0.227489 0.151554
C21   C     C_R   0.956167 0.578391 0.423043 0.151986
C22   C     C_R   0.045862 0.415174 0.433633 0.158542
C23   C     C_R   0.046184 0.578159 0.421172 0.157330
C24   C     C_R   0.955884 0.415294 0.435196 0.143197
C25   C     C_R   0.912452 0.497427 0.436613 0.039210
C26   C     C_R   0.089562 0.497135 0.433649 0.042360
C27   C     C_1   0.824165 0.499115 0.460757 -0.009814
C28   C     C_1   0.177302 0.498839 0.457988 -0.011569
C29   C     C_1   0.250451 0.499698 0.479256 -0.207485
C30   C     C_1   0.750332 0.499914 0.480949 -0.200016
C31   C     C_R   0.455387 0.952481 0.431102 0.341241
C32   C     C_R   0.530900 0.047418 0.573262 0.319062
C33   C     C_R   0.533207 0.953239 0.571905 0.322380
C34   C     C_R   0.456631 0.046801 0.430398 0.354233
C35   C     C_R   0.495094 0.905026 0.501265 -0.298528
C36   C     C_R   0.495478 0.094920 0.501083 -0.294928
C37   C     C_1   0.498127 0.807074 0.500427 0.218911
C38   C     C_1   0.498432 0.192903 0.500240 0.237062
N1    N     N_1   0.500000 0.270550 0.500000 -0.105247
N2    N     N_1   0.500000 0.729450 0.500000 -0.101365
C39   C     C_3   0.664269 0.495271 0.762364 -0.798160
H3    H     H_    0.708150 0.453217 0.802034 0.267816
H4    H     H_    0.655100 0.458561 0.698552 0.206610
H5    H     H_    0.694775 0.559698 0.745856 0.250132
C40   C     C_3   0.337727 0.464513 0.237157 -0.808117
H6    H     H_    0.300208 0.417187 0.195880 0.269946
H7    H     H_    0.352691 0.427670 0.299186 0.215533
H8    H     H_    0.298232 0.522610 0.256792 0.249437
C41   C     C_3   0.257564 0.517186 0.900198 -0.876798
H9    H     H_    0.252499 0.455123 0.860124 0.234675
H10   H     H_    0.200305 0.519824 0.944587 0.281285
H11   H     H_    0.254801 0.575491 0.854985 0.226821
C42   C     C_3   0.735772 0.554627 0.100731 -0.872766
H12   H     H_    0.748957 0.493944 0.140291 0.238404
H13   H     H_    0.792196 0.565232 0.056434 0.279789
H14   H     H_    0.730849 0.612856 0.146443 0.227805
O9    O     O_3   0.262494 0.534820 0.089251 -0.610843
C43   C     C_3   0.252117 0.626779 0.105054 0.087509
H15   H     H_    0.250570 0.663984 0.040597 0.149463
H16   H     H_    0.304744 0.653443 0.147408 0.143194
C44   C     C_3   0.167808 0.642476 0.154436 -0.829452
H17   H     H_    0.167314 0.606646 0.219439 0.261822
H18   H     H_    0.159346 0.714533 0.167798 0.206431
H19   H     H_    0.113723 0.618410 0.112995 0.260878
O10   O     O_3   0.727991 0.573995 0.912162 -0.612281
C45   C     C_3   0.726677 0.667270 0.902656 0.083917
H20   H     H_    0.722168 0.700937 0.969332 0.151591
H21   H     H_    0.671860 0.688482 0.860479 0.147750
C46   C     C_3   0.809215 0.697150 0.857109 -0.828305
H22   H     H_    0.813991 0.668011 0.788593 0.254356
H23   H     H_    0.810099 0.770642 0.851850 0.210455
H24   H     H_    0.865177 0.675565 0.896981 0.260768
C47   C     C_3   0.094820 0.664863 0.409710 -0.912286
H25   H     H_    0.165102 0.656120 0.404768 0.242866
H26   H     H_    0.075283 0.697722 0.346620 0.240899
H27   H     H_    0.081185 0.709664 0.467420 0.245535
C48   C     C_3   0.907584 0.327740 0.439147 -0.861592
H28   H     H_    0.837149 0.335255 0.436774 0.246999
H29   H     H_    0.925590 0.285670 0.380657 0.239100
H30   H     H_    0.923275 0.292329 0.502068 0.242379
C49   C     C_3   0.908147 0.665556 0.414141 -0.879939
H31   H     H_    0.837664 0.657815 0.413734 0.242994
H32   H     H_    0.924546 0.710414 0.470754 0.240497
H33   H     H_    0.925715 0.697887 0.349777 0.240172
C50   C     C_3   0.094087 0.327605 0.435778 -0.892020
H34   H     H_    0.164466 0.335275 0.430831 0.241070
H35   H     H_    0.079397 0.292119 0.499212 0.241879
H36   H     H_    0.075187 0.285580 0.377890 0.239866
O11   O     O_3   0.426955 0.091134 0.355643 -0.554244
C51   C     C_3   0.345204 0.127754 0.373824 0.106708
H37   H     H_    0.333554 0.144047 0.446094 0.099965
H38   H     H_    0.295243 0.080192 0.351892 0.148434
C52   C     C_3   0.335059 0.212857 0.320283 -0.794556
H39   H     H_    0.343077 0.198870 0.247433 0.262290
H40   H     H_    0.270421 0.241272 0.332292 0.199307
H41   H     H_    0.383835 0.262210 0.341257 0.264162
O12   O     O_3   0.568847 0.908125 0.643012 -0.588941
C53   C     C_3   0.656957 0.896039 0.625353 0.163814
H42   H     H_    0.691179 0.960860 0.627424 0.171289
H43   H     H_    0.668251 0.863858 0.558719 0.123333
C54   C     C_3   0.694291 0.836024 0.696867 -0.849099
H44   H     H_    0.662144 0.770231 0.695314 0.260753
H45   H     H_    0.763800 0.826514 0.684136 0.205588
H46   H     H_    0.685160 0.866375 0.764369 0.258717
O13   O     O_3   0.569398 0.093095 0.642739 -0.584821
C55   C     C_3   0.507824 0.107859 0.711049 0.130475
H47   H     H_    0.488147 0.043887 0.742242 0.167936
H48   H     H_    0.450157 0.142224 0.684654 0.115384
C56   C     C_3   0.546566 0.166677 0.783332 -0.791487
H49   H     H_    0.565678 0.231585 0.754224 0.262314
H50   H     H_    0.498865 0.178411 0.837782 0.204890
H51   H     H_    0.603732 0.134033 0.812124 0.258056
O14   O     O_3   0.421615 0.907432 0.358358 -0.557120
C57   C     C_3   0.338790 0.876599 0.381098 0.132181
H52   H     H_    0.295397 0.932849 0.397840 0.107103
H53   H     H_    0.340102 0.830518 0.439213 0.129014
C58   C     C_3   0.301890 0.826261 0.301538 -0.818448
H54   H     H_    0.343001 0.768309 0.284692 0.255984
H55   H     H_    0.236577 0.802121 0.318442 0.201081
H56   H     H_    0.298208 0.870527 0.242280 0.258185

loop_
_geom_bond_atom_site_label_1
_geom_bond_atom_site_label_2
_geom_bond_distance
_ccdc_geom_bond_type
C24   C48   1.520459 S    
C3    C8    1.421198 S    
C57   H52   1.111999 S    
C17   C19   1.401862 A    
C44   H17   1.110678 S    
O3    C2    1.273123 A    
C9    H1    1.083259 S    
C31   O14   1.384386 S    
C50   H34   1.107826 S    
C35   C37   1.476610 S    
O2    C2    1.273269 A    
O10   C45   1.413281 S    
C39   H5    1.108775 S    
O5    C3    1.267347 A    
C52   H40   1.110322 S    
C49   H31   1.107790 S    
O1    C1    1.272808 A    
C5    C39   1.521270 S    
C24   C25   1.411933 A    
C9    C11   1.387251 A    
C14   C16   1.424721 A    
C58   H54   1.111011 S    
C47   H25   1.108265 S    
C33   O12   1.382691 S    
C5    C15   1.412647 A    
C22   C50   1.520657 S    
C51   C52   1.522195 S    
C33   C35   1.411885 A    
C41   H10   1.108636 S    
O7    Zn1   2.004899 S    
C53   H42   1.113565 S    
C56   H51   1.110702 S    
C17   C41   1.517607 S    
C53   H43   1.115460 S    
C50   H35   1.109920 S    
C55   H47   1.113772 S    
C20   O10   1.383560 S    
C42   H13   1.108640 S    
C4    C7    1.422628 S    
O6    Zn2   2.001631 S    
C13   C14   1.398886 A    
C43   H15   1.114436 S    
C48   H29   1.109555 S    
C8    C10   1.381467 A    
C41   H9    1.110296 S    
O3    Zn1   1.942906 S    
C54   H46   1.110850 S    
C37   N2    1.169920 T    
C36   C38   1.477082 S    
C11   C17   1.414035 A    
C49   H32   1.110018 S    
C12   C18   1.412998 A    
C44   H18   1.110691 S    
C51   H37   1.116529 S    
C46   H23   1.110466 S    
C46   H22   1.111180 S    
C27   C30   1.190044 T    
C19   O9    1.384290 S    
C39   H4    1.107977 S    
C6    C16   1.412512 A    
C52   H41   1.110390 S    
C34   C36   1.416611 A    
C47   H26   1.109552 S    
O11   C51   1.415685 S    
C23   C26   1.410726 A    
O8    Zn2   2.004900 S    
C45   H20   1.114927 S    
C7    C9    1.381968 A    
C40   H8    1.108254 S    
C57   C58   1.521773 S    
C39   H3    1.110103 S    
C21   C25   1.412149 A    
C55   C56   1.521041 S    
C41   H11   1.110422 S    
Zn1   N2    1.974947 S    
C34   O11   1.384807 S    
Zn2   N1    1.974947 S    
O6    C4    1.270076 A    
C42   H14   1.110462 S    
C43   C44   1.521610 S    
C38   N1    1.170138 T    
C45   H21   1.114803 S    
C48   H30   1.109979 S    
C51   H38   1.109760 S    
C53   C54   1.521028 S    
C56   H49   1.111137 S    
C28   C29   1.189171 T    
C10   C12   1.386133 A    
C49   H33   1.109602 S    
O8    C3    1.269277 A    
C11   C13   1.416916 A    
O14   C57   1.413895 S    
C44   H19   1.110830 S    
C12   C14   1.416665 A    
O1    Zn1   1.942301 S    
C46   H24   1.111330 S    
C32   C33   1.419509 A    
C54   H44   1.111240 S    
C10   H2    1.083399 S    
C47   H27   1.109886 S    
C15   C20   1.417020 A    
C5    C7    1.401136 A    
C1    C29   1.404521 S    
C57   H53   1.112473 S    
C50   H36   1.109546 S    
C22   C26   1.410702 A    
O4    C1    1.272917 A    
C21   C49   1.520074 S    
C52   H39   1.110563 S    
C58   H56   1.110649 S    
C18   C20   1.401631 A    
C18   C42   1.518422 S    
C25   C27   1.423163 S    
O13   C55   1.411420 S    
C26   C28   1.421799 S    
C23   C47   1.520397 S    
C45   C46   1.521031 S    
C40   H6    1.110046 S    
C32   O13   1.382336 S    
C21   C23   1.407010 A    
C22   C24   1.406360 A    
C6    C40   1.521706 S    
C13   C15   1.424891 A    
O4    Zn2   1.942907 S    
O9    C43   1.413572 S    
O2    Zn2   1.942299 S    
C31   C34   1.421286 A    
C55   H48   1.115329 S    
C56   H50   1.110503 S    
C40   H7    1.106908 S    
O7    C4    1.267117 A    
O5    Zn1   2.001633 S    
C16   C19   1.416698 A    
C6    C8    1.400995 A    
C42   H12   1.110390 S    
C2    C30   1.405878 S    
C43   H16   1.114661 S    
C54   H45   1.110497 S    
C48   H28   1.107704 S    
O12   C53   1.411566 S    
C31   C35   1.416930 A    
C32   C36   1.411688 A    
C58   H55   1.110618 S    
