data_mof_unit_31722.cif
_audit_creation_date              2012-12-11T15:31:39-0500
_audit_creation_method            fapswitch 2.2
_symmetry_space_group_name_H-M    P1
_symmetry_Int_Tables_number       1
_space_group_crystal_system       triclinic
_cell_length_a                    13.573965
_cell_length_b                    13.589525
_cell_length_c                    27.673174
_cell_angle_alpha                 90.382572
_cell_angle_beta                  90.164287
_cell_angle_gamma                 119.979064
_cell_volume                      4421.51771306

loop_
_atom_site_label
_atom_site_type_symbol
_atom_type_description
_atom_site_fract_x
_atom_site_fract_y
_atom_site_fract_z
_atom_type_partial_charge
C1    C     C_R   0.619496 0.898402 0.431273 0.545282
C2    C     C_R   0.276283 0.893221 0.257381 -0.100781
C3    C     C_R   0.257218 0.883903 0.207414 -0.103971
C4    C     C_R   0.599732 0.218515 0.431304 0.544460
C5    C     C_R   0.053740 0.784551 0.221224 -0.100988
C6    C     C_R   0.072801 0.793759 0.271188 -0.104126
C7    C     C_R   0.184174 0.847679 0.289384 0.041861
C8    C     C_R   0.145829 0.829088 0.189215 0.041811
C9    C     C_1   0.124164 0.813907 0.137944 -0.054963
C10   C     C_1   0.205666 0.854338 0.340646 -0.055176
C11   C     C_1   0.096880 0.794492 0.095923 -0.011075
C12   C     C_R   0.631035 0.234729 0.208678 -0.103971
C13   C     C_1   0.634605 0.866006 0.383636 -0.011272
C14   C     C_R   0.701100 0.771665 0.272723 -0.104097
C15   C     C_R   0.708604 0.759723 0.222826 -0.100964
C16   C     C_R   0.279525 0.878857 0.430538 0.544624
C17   C     C_R   0.608078 0.862521 0.208309 -0.103995
C18   C     C_R   0.600473 0.874361 0.258201 -0.100827
C19   C     C_R   0.647416 0.829472 0.290521 0.041848
C20   C     C_R   0.662586 0.805536 0.190503 0.041848
C21   C     C_1   0.675640 0.796674 0.139297 -0.055152
C22   C     C_1   0.642180 0.846185 0.341693 -0.055194
C23   C     C_R   0.620428 0.217300 0.258587 -0.100780
C24   C     C_1   0.692984 0.786945 0.097296 -0.011445
C25   C     C_R   0.641840 0.282126 0.614494 0.024863
C26   C     C_R   0.725195 0.270828 0.639909 -0.126681
C27   C     C_R   0.739339 0.292866 0.688971 -0.123315
C28   C     C_R   0.620695 0.900598 0.568894 0.543266
C29   C     C_R   0.673229 0.330332 0.712942 0.038511
C30   C     C_R   0.599366 0.354278 0.686502 -0.121661
C31   C     C_R   0.582933 0.329282 0.637411 -0.129354
C32   C     C_R   0.579084 0.308807 0.792183 -0.120200
C33   C     C_R   0.586155 0.327772 0.841748 -0.131598
C34   C     C_R   0.666166 0.310356 0.290669 0.041869
C35   C     C_R   0.788928 0.395512 0.839075 -0.127655
C36   C     C_R   0.782415 0.379675 0.789594 -0.126148
C37   C     C_R   0.678191 0.339649 0.765603 0.038542
C38   C     C_R   0.692100 0.375791 0.865041 0.024422
C39   C     C_R   0.222102 0.862208 0.614545 0.022683
C40   C     C_R   0.602013 0.223494 0.568280 0.542561
C41   C     C_R   0.239148 0.956058 0.642564 -0.128683
C42   C     C_R   0.210940 0.942534 0.691172 -0.126176
C43   C     C_R   0.164107 0.834956 0.712060 0.066521
C44   C     C_R   0.137631 0.739668 0.683168 -0.079621
C45   C     C_R   0.687668 0.345409 0.190651 0.041883
C46   C     C_R   0.167281 0.753284 0.634654 -0.128228
C47   C     C_R   0.182329 0.761393 0.792186 0.278290
C48   C     C_R   0.156551 0.746983 0.841712 -0.119289
C49   C     C_R   0.060241 0.856061 0.834359 -0.144152
C50   C     C_R   0.085680 0.871339 0.785683 -0.177612
C51   C     C_R   0.144453 0.822639 0.764189 0.044897
C52   C     C_R   0.279481 0.881372 0.568121 0.544287
C53   C     C_R   0.092323 0.790840 0.862340 -0.018471
C54   C     C_R   0.640466 0.861244 0.615110 0.022227
C55   C     C_R   0.549742 0.767826 0.637795 -0.121052
C56   C     C_1   0.694240 0.365271 0.139440 -0.055131
C57   C     C_R   0.557971 0.746449 0.686175 -0.111538
C58   C     C_R   0.657524 0.817227 0.712358 0.038449
C59   C     C_R   0.751680 0.904479 0.688650 -0.122176
C60   C     C_R   0.743139 0.926626 0.640308 -0.128814
C61   C     C_R   0.712806 0.899398 0.795210 -0.114362
C62   C     C_R   0.723569 0.886913 0.844430 -0.129078
C63   C     C_R   0.622665 0.682021 0.833798 -0.132212
C64   C     C_1   0.631185 0.264522 0.383725 -0.011212
C65   C     C_R   0.614167 0.694598 0.784491 -0.135220
C66   C     C_R   0.661365 0.803429 0.764717 0.035827
C67   C     C_1   0.650331 0.290442 0.341809 -0.055220
C68   C     C_R   0.681186 0.778250 0.863754 0.023575
C69   C     C_R   0.049271 0.761121 0.048245 0.545819
C70   C     C_R   0.714291 0.435785 0.049722 0.545569
C71   C     C_R   0.723556 0.770728 0.049544 0.545526
C72   C     C_R   0.043042 0.755490 0.910279 0.544109
C73   C     C_R   0.708188 0.428965 0.912390 0.540194
C74   C     C_R   0.717580 0.764739 0.911679 0.538710
C75   C     C_R   0.723789 0.421035 0.272658 -0.104151
C76   C     C_R   0.734507 0.438465 0.222743 -0.100950
C77   C     C_3   0.218514 0.612316 0.780248 -0.006923
C78   C     C_1   0.701567 0.390755 0.097435 -0.011284
C79   C     C_3   0.311158 0.605112 0.808912 -0.251416
C80   C     C_3   0.282976 0.482332 0.815192 -0.490898
C81   C     C_1   0.232586 0.862876 0.382702 -0.011277
Cr1   Cr    Cr6+3 0.417720 0.831920 0.499820 1.024374
Cr2   Cr    Cr6+3 0.668190 0.085770 0.500360 1.022784
Cr3   Cr    Cr6+3 0.414060 0.082260 0.499840 1.024200
Cr4   Cr    Cr6+3 0.908000 0.821090 0.979770 1.024782
Cr5   Cr    Cr6+3 0.912420 0.571130 0.979880 1.021515
Cr6   Cr    Cr6+3 0.657970 0.566940 0.980940 1.023324
H1    H     H_    0.759182 0.493549 0.297059 0.103405
H2    H     H_    0.872041 0.432834 0.856099 0.131864
H3    H     H_    0.550813 0.387539 0.704123 0.097946
H4    H     H_    0.778020 0.524499 0.209141 0.098801
H5    H     H_    0.519447 0.340160 0.618181 0.123761
H6    H     H_    0.281698 0.041113 0.627950 0.133616
H7    H     H_    0.230795 0.016785 0.712970 0.103075
H8    H     H_    0.055855 0.917979 0.764342 0.112723
H9    H     H_    0.009624 0.890055 0.849355 0.149972
H10   H     H_    0.097481 0.655418 0.698537 0.111693
H11   H     H_    0.152360 0.679634 0.613531 0.121728
H12   H     H_    0.751363 0.715827 0.209427 0.098621
H13   H     H_    0.469516 0.715680 0.619212 0.131528
H14   H     H_    0.594011 0.162225 0.184266 0.103498
H15   H     H_    0.747108 0.984134 0.780804 0.107374
H16   H     H_    0.769180 0.962047 0.867005 0.122500
H17   H     H_    0.484273 0.678553 0.703676 0.104806
H18   H     H_    0.574374 0.619387 0.761660 0.102631
H19   H     H_    0.590823 0.597194 0.847766 0.135031
H20   H     H_    0.830547 0.957937 0.707946 0.099041
H21   H     H_    0.814669 0.998451 0.623509 0.125020
H22   H     H_    0.575407 0.131281 0.272171 0.098642
H23   H     H_    0.572623 0.898671 0.183743 0.103430
H24   H     H_    0.362840 0.934855 0.271077 0.098502
H25   H     H_    0.329025 0.918198 0.183100 0.103541
H26   H     H_    0.967163 0.741533 0.207525 0.098715
H27   H     H_    0.000968 0.757948 0.295495 0.103211
H28   H     H_    0.737954 0.736905 0.297287 0.103411
H29   H     H_    0.208154 0.569716 0.744663 0.139503
H30   H     H_    0.134833 0.564005 0.798769 0.104920
H31   H     H_    0.392932 0.652488 0.789445 0.186884
H32   H     H_    0.321725 0.645254 0.845068 0.163954
H33   H     H_    0.201886 0.433497 0.835102 0.148377
H34   H     H_    0.558992 0.919519 0.271591 0.098409
H35   H     H_    0.352007 0.480544 0.836103 0.148410
H36   H     H_    0.275425 0.441571 0.779395 0.137037
H37   H     H_    0.184604 0.700356 0.863964 0.118179
H38   H     H_    0.772350 0.235048 0.623039 0.132020
H39   H     H_    0.496930 0.273609 0.774490 0.103697
H40   H     H_    0.510369 0.311168 0.861258 0.124726
H41   H     H_    0.796717 0.273431 0.708456 0.098461
H42   H     H_    0.860208 0.404551 0.769989 0.093093
O1    O     O_R   0.302900 0.805360 0.446400 -0.505385
O2    O     O_R   0.638120 0.455970 0.034270 -0.504118
O3    O     O_R   0.667540 0.672320 0.030160 -0.492797
O4    O     O_R   0.522090 0.841370 0.450730 -0.493931
O5    O     O_R   0.814460 0.840990 0.926980 -0.521074
O6    O     O_R   0.001710 0.811400 0.930110 -0.501401
O7    O     O_R   0.023410 0.659800 0.926210 -0.522288
O8    O     O_R   0.806940 0.473170 0.931090 -0.506367
O9    O     O_R   0.633420 0.451310 0.927930 -0.522619
O10   O     O_R   0.663190 0.668000 0.931580 -0.504286
O11   O     O_3   0.826130 0.653050 0.980200 -0.247105
O12   O     O_R   0.657980 0.180990 0.549630 -0.506159
O13   O     O_R   0.693280 0.995650 0.447220 -0.504561
O14   O     O_R   0.657260 0.178740 0.451050 -0.493880
O15   O     O_R   0.502640 0.195380 0.446850 -0.504953
O16   O     O_R   0.319630 0.976590 0.450330 -0.493386
O17   O     O_R   0.303680 0.807790 0.552740 -0.518447
O18   O     O_R   0.522820 0.843620 0.549310 -0.503516
O19   O     O_R   0.694060 0.998080 0.553560 -0.521646
O20   O     O_3   0.253997 0.727825 0.771320 -0.566831
O21   O     O_R   0.503420 0.197810 0.553190 -0.521194
O22   O     O_R   0.320350 0.978840 0.548910 -0.504135
O23   O     O_3   0.499990 0.999990 0.500010 -0.245611
O24   O     O_R   0.819150 0.845650 0.033320 -0.504550
O25   O     O_R   0.006060 0.815720 0.028680 -0.492702
O26   O     O_R   0.028100 0.664460 0.032550 -0.504472
O27   O     O_R   0.811290 0.477490 0.029660 -0.493119

loop_
_geom_bond_atom_site_label_1
_geom_bond_atom_site_label_2
_ccdc_geom_bond_type
C25   C31   A    
C7    C10   S    
Cr2   O14   S    
C63   C65   A    
C70   C78   S    
C41   C42   A    
C2    C7    A    
Cr6   O11   S    
C75   C76   A    
C17   H23   S    
C4    O14   A    
C80   H33   S    
Cr1   O18   S    
C39   C41   A    
C54   C60   A    
Cr3   O16   S    
C12   C23   A    
C26   C27   A    
C69   O26   A    
C45   C76   A    
C70   O27   A    
C36   C37   A    
Cr2   O23   S    
C77   H30   S    
C25   C40   S    
C30   C31   A    
C50   H8    S    
C72   O7    A    
C27   C29   A    
C73   O9    A    
Cr3   O15   S    
C32   H39   S    
C14   H28   S    
C71   O24   A    
C79   H31   S    
C33   H40   S    
C17   C20   A    
C56   C78   T    
C18   C19   A    
C27   H41   S    
Cr6   O2    S    
Cr5   O27   S    
C6    H27   S    
C1    O13   A    
Cr5   O8    S    
C71   O3    A    
C63   C68   A    
C61   C66   A    
C58   C66   S    
C41   H6    S    
C47   O20   S    
C45   C56   S    
C8    C9    S    
C79   H32   S    
C55   H13   S    
Cr1   O1    S    
C77   H29   S    
C16   O1    A    
C60   H21   S    
Cr5   O11   S    
C34   C75   A    
C39   C52   S    
C46   H11   S    
C59   C60   A    
C40   O12   A    
C15   C20   A    
C1    O4    A    
C65   H18   S    
Cr1   O17   S    
C44   C46   A    
C50   C51   A    
C77   C79   S    
C48   C53   A    
C23   H22   S    
C70   O2    A    
C2    H24   S    
C28   O19   A    
C64   C67   T    
C31   H5    S    
C19   C22   S    
C3    C8    A    
C77   O20   S    
Cr2   O12   S    
C28   C54   S    
C72   O6    A    
C80   H35   S    
C76   H4    S    
C58   C59   A    
C59   H20   S    
Cr2   O19   S    
C16   O16   A    
C35   C36   A    
Cr6   O3    S    
Cr5   O26   S    
C4    O15   A    
C29   C30   A    
C5    C8    A    
C44   H10   S    
C47   C48   A    
C3    H25   S    
C23   C34   A    
C35   C38   A    
C17   C18   A    
C40   O21   A    
Cr4   O24   S    
C32   C37   A    
C63   H19   S    
C9    C11   T    
Cr4   O11   S    
Cr4   O6    S    
C39   C46   A    
C35   H2    S    
Cr5   O7    S    
C65   C66   A    
C55   C57   A    
C43   C44   A    
C1    C13   S    
C42   C43   A    
Cr6   O9    S    
Cr3   O23   S    
C62   H16   S    
C57   H17   S    
C54   C55   A    
C28   O18   A    
C52   O17   A    
C5    H26   S    
C42   H7    S    
C14   C19   A    
C69   O25   A    
Cr6   O10   S    
C12   C45   A    
C34   C67   S    
C48   H37   S    
Cr2   O13   S    
C47   C51   A    
C11   C69   S    
C6    C7    A    
C74   O10   A    
C4    C64   S    
C10   C81   T    
C33   C38   A    
C62   C68   A    
C32   C33   A    
Cr1   O4    S    
C2    C3    A    
C25   C26   A    
C12   H14   S    
C36   H42   S    
C15   H12   S    
C43   C51   S    
C57   C58   A    
C5    C6    A    
C73   O8    A    
C52   O22   A    
C49   C53   A    
C74   O5    A    
C16   C81   S    
C13   C22   T    
C61   H15   S    
Cr4   O25   S    
C49   H9    S    
C61   C62   A    
C80   H36   S    
C18   H34   S    
C79   C80   S    
Cr3   O22   S    
C75   H1    S    
C20   C21   S    
C49   C50   A    
C21   C24   T    
C29   C37   S    
C14   C15   A    
Cr4   O5    S    
C53   C72   S    
C68   C74   S    
C26   H38   S    
C30   H3    S    
Cr1   O23   S    
C24   C71   S    
C38   C73   S    
Cr3   O21   S    
