data_mof_unit_41574.cif
_audit_creation_date              2013-03-05T15:49:33-0500
_audit_creation_method            fapswitch 2.2
_symmetry_space_group_name_H-M    P1
_symmetry_Int_Tables_number       1
_space_group_crystal_system       triclinic
_cell_length_a                    25.259523
_cell_length_b                    7.244534
_cell_length_c                    21.829823
_cell_angle_alpha                 89.968708
_cell_angle_beta                  110.411515
_cell_angle_gamma                 89.981194
_cell_volume                      3743.89349081

loop_
_atom_site_label
_atom_site_type_symbol
_atom_site_description
_atom_site_fract_x
_atom_site_fract_y
_atom_site_fract_z
_atom_type_partial_charge
O1    O     O_R   0.554350 0.505270 0.581390 -0.581421
O2    O     O_R   0.445650 0.005270 0.418610 -0.581758
O3    O     O_R   0.553380 0.177580 0.454800 -0.575590
O4    O     O_R   0.446620 0.677580 0.545200 -0.575889
C1    C     C_R   0.567500 0.345842 0.440219 0.960718
C2    C     C_R   0.432539 0.845830 0.559829 0.961776
O5    O     O_R   0.560970 0.175640 0.583140 -0.571538
O6    O     O_R   0.439030 0.675640 0.416860 -0.571560
O7    O     O_R   0.453290 0.004120 0.547860 -0.538326
O8    O     O_R   0.546710 0.504120 0.452140 -0.538752
C3    C     C_R   0.576089 0.343406 0.607956 1.019300
C4    C     C_R   0.423890 0.843584 0.392072 1.020269
O9    O     O_3   0.464660 0.338800 0.488280 -0.253893
O10   O     O_3   0.535340 0.838800 0.511720 -0.253837
V1    V     V_3+5 0.506560 0.064420 0.502170 1.308352
V2    V     V_3+5 0.493440 0.564420 0.497830 1.307986
C5    C     C_R   0.148072 0.943393 0.290823 -0.154795
C6    C     C_R   0.851499 0.454642 0.709265 -0.154481
H1    H     H_    0.062416 0.961289 0.224723 0.193782
H2    H     H_    0.937138 0.473574 0.775289 0.194352
H3    H     H_    0.234674 0.950677 0.402970 0.129381
H4    H     H_    0.764674 0.466350 0.597394 0.129849
H5    H     H_    0.135711 0.958089 0.333387 0.148421
H6    H     H_    0.863650 0.474967 0.666776 0.148245
C7    C     C_R   0.120902 0.939353 0.172960 -0.325292
C8    C     C_R   0.879021 0.440383 0.827075 -0.325492
C9    C     C_R   0.395006 0.799271 0.271664 0.129700
C10   C     C_R   0.605355 0.293191 0.728133 0.131543
C11   C     C_R   0.353818 0.763922 0.210849 0.655975
C12   C     C_R   0.646779 0.254088 0.788459 0.655325
C13   C     C_R   0.296229 0.775274 0.201694 0.161080
C14   C     C_R   0.704291 0.266999 0.797361 0.160585
C15   C     C_R   0.278890 0.851465 0.251828 -0.098128
C16   C     C_R   0.721257 0.349135 0.747848 -0.097138
C17   C     C_R   0.320943 0.872622 0.315725 0.044208
C18   C     C_R   0.678996 0.373939 0.684266 0.044383
C19   C     C_R   0.220912 0.895443 0.242127 -0.022240
C20   C     C_R   0.779083 0.395779 0.757775 -0.021442
C21   C     C_R   0.205149 0.920887 0.297925 0.096118
C22   C     C_R   0.794566 0.428192 0.702131 0.096463
C23   C     C_R   0.246458 0.927471 0.360364 -0.160296
C24   C     C_R   0.753104 0.437995 0.639845 -0.159978
C25   C     C_R   0.303470 0.910898 0.368901 -0.079001
C26   C     C_R   0.696185 0.418276 0.631332 -0.081544
C27   C     C_R   0.178200 0.922814 0.179473 0.764358
C28   C     C_R   0.821853 0.419580 0.820606 0.766935
C29   C     C_R   0.106258 0.946939 0.228962 -0.222219
C30   C     C_R   0.893424 0.455444 0.771059 -0.222662
C31   C     C_R   0.379323 0.845726 0.325637 -0.421650
C32   C     C_R   0.620719 0.344655 0.674358 -0.421830
H7    H     H_    0.333750 0.923279 0.418063 0.090293
H8    H     H_    0.665761 0.433457 0.582358 0.093649
C33   C     C_R   0.099524 0.785738 0.856922 0.646891
C34   C     C_R   0.900648 0.285925 0.143271 0.646070
C35   C     C_R   0.134148 0.771540 0.819110 0.680768
C36   C     C_R   0.866029 0.271697 0.181089 0.680339
C37   C     C_R   0.174766 0.907651 0.822534 -0.258889
C38   C     C_R   0.825237 0.407491 0.177446 -0.258337
C39   C     C_R   0.179891 0.057560 0.865147 -0.238140
C40   C     C_R   0.819922 0.557083 0.134586 -0.238979
H9    H     H_    0.211541 0.162407 0.869443 0.218065
H10   H     H_    0.788126 0.661639 0.130106 0.217977
C41   C     C_R   0.146408 0.071559 0.904747 0.346281
C42   C     C_R   0.853400 0.571061 0.094973 0.345773
C43   C     C_R   0.104867 0.935061 0.900406 -0.584157
C44   C     C_R   0.895131 0.434956 0.099573 -0.583553
N1    N     N_R   0.242807 0.043827 0.776608 -0.057590
N2    N     N_R   0.757105 0.543548 0.223266 -0.057618
N3    N     N_R   0.276064 0.034586 0.740882 -0.057213
N4    N     N_R   0.723886 0.534305 0.259038 -0.057145
C45   C     C_R   0.280290 0.876550 0.709340 0.133527
C46   C     C_R   0.719809 0.376368 0.290766 0.133622
N5    N     N_R   0.249720 0.727631 0.715310 -0.063753
N6    N     N_R   0.750488 0.227538 0.284927 -0.063751
N7    N     N_R   0.216312 0.737081 0.751001 -0.002089
N8    N     N_R   0.783860 0.236992 0.249191 -0.002114
C47   C     C_R   0.211992 0.895538 0.782403 0.297237
C48   C     C_R   0.788034 0.395359 0.217608 0.297014
C49   C     C_R   0.326344 0.704036 0.640350 -0.094240
C50   C     C_R   0.673844 0.203938 0.359912 -0.093774
H11   H     H_    0.305969 0.577367 0.646443 0.139670
H12   H     H_    0.694251 0.077241 0.353888 0.139671
C51   C     C_R   0.361936 0.700433 0.603308 -0.111685
C52   C     C_R   0.638250 0.200424 0.396960 -0.110468
H13   H     H_    0.366521 0.573213 0.580462 0.223046
H14   H     H_    0.633721 0.073271 0.419922 0.222847
C53   C     C_R   0.390350 0.859365 0.594394 -0.315699
C54   C     C_R   0.609768 0.359377 0.405753 -0.316247
C55   C     C_R   0.377831 0.028405 0.619596 0.429426
C56   C     C_R   0.622320 0.528418 0.380545 0.428979
C57   C     C_R   0.343135 0.030204 0.657719 -0.222925
C58   C     C_R   0.657008 0.530121 0.342409 -0.222831
H15   H     H_    0.334882 0.161056 0.676679 0.161482
H16   H     H_    0.665272 0.660957 0.323421 0.161768
C59   C     C_R   0.317384 0.868886 0.669138 0.063551
C60   C     C_R   0.682756 0.368747 0.331024 0.063136
O11   O     O_R   0.953220 0.285790 0.047790 -0.537335
O12   O     O_R   0.046780 0.785790 0.952210 -0.537265
O13   O     O_R   0.939020 0.617570 0.916840 -0.563765
O14   O     O_R   0.060980 0.117570 0.083160 -0.563053
C61   C     C_R   0.924069 0.448756 0.892220 1.053412
C62   C     C_R   0.075904 0.948590 0.107794 1.052937
O15   O     O_R   0.946600 0.615450 0.045180 -0.578392
O16   O     O_R   0.053400 0.115450 0.954820 -0.578010
O17   O     O_R   0.054370 0.786770 0.081410 -0.597940
O18   O     O_R   0.945630 0.286770 0.918590 -0.597044
C63   C     C_R   0.934006 0.446708 0.061246 1.090661
C64   C     C_R   0.065994 0.946731 0.938748 1.089866
O19   O     O_3   0.035300 0.454160 0.011680 -0.270044
O20   O     O_3   0.964700 0.954160 0.988320 -0.269977
V3    V     V_3+5 0.993450 0.728620 0.997830 1.335592
V4    V     V_3+5 0.006550 0.228620 0.002170 1.336324
F1    F     F_    0.126689 0.625465 0.778021 -0.645803
F2    F     F_    0.873668 0.125940 0.222406 -0.645913
N9    N     N_R   0.157096 0.220983 0.950713 0.274312
O21   O     O_R   0.164820 0.187567 0.011790 -0.272486
O22   O     O_R   0.169009 0.384382 0.934380 -0.319557
N10   N     N_R   0.842507 0.719956 0.048706 0.274290
O23   O     O_R   0.834972 0.685943 0.987726 -0.274629
O24   O     O_R   0.830314 0.883393 0.064685 -0.319409
N11   N     N_R   0.396589 0.201989 0.603824 0.233355
O25   O     O_R   0.419845 0.320258 0.650193 -0.354461
O26   O     O_R   0.377567 0.258402 0.543434 -0.441900
N12   N     N_R   0.603631 0.702087 0.396338 0.233667
O27   O     O_R   0.580760 0.821063 0.350022 -0.354185
O28   O     O_R   0.622535 0.757893 0.456774 -0.442359
F3    F     F_    0.191784 0.951308 0.125341 -0.644899
F4    F     F_    0.808365 0.441092 0.875123 -0.645840
N13   N     N_R   0.452884 0.767595 0.279379 0.280056
O29   O     O_R   0.474860 0.855423 0.242041 -0.246691
O30   O     O_R   0.478068 0.620728 0.310276 -0.350289
N14   N     N_R   0.547557 0.260703 0.720590 0.280202
O31   O     O_R   0.525782 0.346414 0.758538 -0.246870
O32   O     O_R   0.522379 0.114543 0.689270 -0.350789
N15   N     N_R   0.257410 0.677415 0.147124 0.300204
O33   O     O_R   0.221768 0.560779 0.156473 -0.356483
O34   O     O_R   0.261776 0.688007 0.089547 -0.198614
N16   N     N_R   0.743407 0.165202 0.850655 0.299932
O35   O     O_R   0.779300 0.052475 0.839802 -0.360134
O36   O     O_R   0.739113 0.168145 0.908360 -0.196193
F5    F     F_    0.370288 0.696334 0.162250 -0.569079
F6    F     F_    0.630610 0.181486 0.836594 -0.569436
F7    F     F_    0.059505 0.653904 0.849345 -0.651998
F8    F     F_    0.940834 0.154442 0.151045 -0.652204

loop_
_geom_bond_atom_site_label_1
_geom_bond_atom_site_label_2
_geom_bond_distance
_ccdc_geom_bond_type
C34   F8    1.358497 S    
C41   C43   1.421017 A    
C9    C11   1.395556 A    
C23   C25   1.391294 A    
C51   C53   1.405847 A    
N1    C47   1.358326 A    
C44   C63   1.498183 S    
C50   C52   1.403653 A    
O2    C4    1.337470 A    
C2    O7    1.324240 A    
C4    C31   1.493982 S    
C18   C32   1.427181 A    
N15   O33   1.301797 A    
C21   C23   1.398918 A    
O18   V4    1.978561 S    
C49   C59   1.404381 A    
C5    H5    1.083813 S    
N6    N8    1.335108 A    
C6    H6    1.083807 S    
C28   F4    1.356342 S    
C20   C22   1.419401 A    
C52   H14   1.073516 S    
C8    C61   1.480634 S    
C46   C60   1.491663 S    
H1    C29   1.083586 S    
C7    C62   1.480572 S    
C37   C39   1.406677 A    
C45   C59   1.491567 S    
C38   C40   1.406780 A    
N9    O21   1.300960 A    
C58   C60   1.401464 A    
O12   C64   1.334476 A    
C62   O17   1.335871 A    
C40   H10   1.083088 S    
C5    C21   1.404686 A    
N3    C45   1.359547 A    
C6    C22   1.404659 A    
O20   V3    1.770284 S    
N10   O23   1.301035 A    
C1    C54   1.508622 S    
C10   C32   1.408911 A    
C5    C29   1.394617 A    
N14   O31   1.300954 A    
N9    O22   1.301361 A    
O1    C3    1.337759 A    
C17   C31   1.427074 A    
C13   C15   1.424462 A    
C50   C60   1.404393 A    
C17   C25   1.406002 A    
C7    C29   1.396376 A    
C43   C64   1.498383 S    
C8    C30   1.396322 A    
C41   N9    1.436668 S    
C26   H8    1.082763 S    
C22   C24   1.399015 A    
O17   V3    1.979199 S    
C11   F5    1.358915 S    
O6    V2    1.991387 S    
C11   C13   1.399978 A    
N5    N7    1.335076 A    
C24   C26   1.391338 A    
O14   C62   1.336973 A    
C10   N14   1.430582 S    
C33   C35   1.400130 A    
N2    C48   1.358316 A    
C34   C36   1.400126 A    
C39   H9    1.083096 S    
N11   O26   1.301263 A    
C37   C47   1.494649 S    
C46   N6    1.359332 A    
O19   V4    1.770933 S    
C45   N5    1.359324 A    
O11   V4    1.978331 S    
C38   C48   1.494716 S    
C35   F1    1.357649 S    
C15   C19   1.440273 A    
C2    C53   1.508468 S    
O16   V4    1.998639 S    
C33   F7    1.358500 S    
C42   C44   1.420857 A    
O4    V2    1.998339 S    
O5    C3    1.331616 A    
C14   N16   1.438895 S    
C57   H15   1.083448 S    
C56   C58   1.403484 A    
C49   C51   1.403534 A    
O6    C4    1.331912 A    
O13   V3    1.992508 S    
C58   H16   1.083440 S    
O1    V2    1.979712 S    
O2    V1    1.980362 S    
N7    C47   1.361093 A    
N11   O25   1.300109 A    
H2    C30   1.083523 S    
N16   O36   1.301688 A    
H3    C23   1.084056 S    
O4    C2    1.339244 A    
C51   H13   1.073454 S    
C54   C56   1.422756 A    
O14   V4    1.991364 S    
C53   C55   1.422744 A    
C9    N13   1.430515 S    
C39   C41   1.408149 A    
C18   C26   1.405932 A    
C55   C57   1.403423 A    
C19   C27   1.429797 A    
C7    C27   1.409117 A    
O16   C64   1.340282 A    
C33   C43   1.414703 A    
N12   O28   1.301267 A    
N13   O29   1.300987 A    
C61   O18   1.336144 A    
N15   O34   1.301715 A    
O12   V3    1.978288 S    
O13   C61   1.336639 A    
C16   C20   1.440233 A    
C56   N12   1.427676 S    
C52   C54   1.405880 A    
N8    C48   1.361125 A    
O3    C1    1.339215 A    
C6    C30   1.394553 A    
O15   C63   1.340230 A    
C10   C12   1.395570 A    
C34   C44   1.414596 A    
O15   V3    1.998495 S    
C49   H11   1.082864 S    
C12   F6    1.358850 S    
C40   C42   1.408245 A    
C35   C37   1.406350 A    
O7    V1    1.982993 S    
C1    O8    1.324222 A    
C19   C21   1.419371 A    
C3    C32   1.494119 S    
O8    V2    1.983041 S    
C12   C14   1.400047 A    
C25   H7    1.082774 S    
H4    C24   1.084028 S    
C42   N10   1.436699 S    
C55   N11   1.427636 S    
C27   F3    1.356222 S    
O5    V1    1.992533 S    
C15   C17   1.436780 A    
C50   H12   1.082857 S    
C36   C38   1.406378 A    
C16   C18   1.436825 A    
N10   O24   1.301379 A    
C20   C28   1.430005 A    
C13   N15   1.438664 S    
N16   O35   1.301755 A    
C8    C28   1.409193 A    
C57   C59   1.401532 A    
O11   C63   1.334292 A    
N14   O32   1.300409 A    
O9    V2    1.771725 S    
N2    N4    1.332449 A    
C36   F2    1.357638 S    
O10   V1    1.771075 S    
O3    V1    1.998194 S    
N4    C46   1.359570 A    
N1    N3    1.332435 A    
C9    C31   1.408657 A    
C14   C16   1.424268 A    
N12   O27   1.300093 A    
N13   O30   1.300444 A    
