data_mof_unit_40389.cif
_audit_creation_date              2013-03-05T16:06:18-0500
_audit_creation_method            fapswitch 2.2
_symmetry_space_group_name_H-M    P1
_symmetry_Int_Tables_number       1
_space_group_crystal_system       triclinic
_cell_length_a                    10.814231
_cell_length_b                    9.65748
_cell_length_c                    27.834487
_cell_angle_alpha                 89.995698
_cell_angle_beta                  95.329151
_cell_angle_gamma                 89.997298
_cell_volume                      2894.41902575

loop_
_atom_site_label
_atom_site_type_symbol
_atom_site_description
_atom_site_fract_x
_atom_site_fract_y
_atom_site_fract_z
_atom_type_partial_charge
O1    O     O_R   0.319640 0.618740 0.500000 -0.587683
O2    O     O_R   0.680360 0.381260 0.500000 -0.590720
O3    O     O_R   0.680360 0.618740 0.500000 -0.587509
O4    O     O_R   0.319640 0.381260 0.500000 -0.590818
C1    C     C_R   0.262448 0.500010 0.499858 0.775044
C2    C     C_R   0.737553 0.500007 0.500146 0.775142
O5    O     O_R   0.500020 0.618770 0.430260 -0.585397
O6    O     O_R   0.499980 0.381230 0.569740 -0.581359
O7    O     O_R   0.499980 0.618770 0.569740 -0.585415
O8    O     O_R   0.500020 0.381230 0.430260 -0.581047
C3    C     C_R   0.503337 0.499793 0.407553 0.814836
C4    C     C_R   0.496573 0.499780 0.592438 0.815043
Cu1   Cu    Cu3+1 0.500000 0.640660 0.500000 0.932685
Cu2   Cu    Cu3+1 0.500000 0.359340 0.500000 0.922448
C5    C     C_R   0.390980 0.537483 0.173375 0.598891
C6    C     C_R   0.605175 0.542297 0.826316 0.602271
O9    O     O_2   0.284401 0.540312 0.195001 -0.454585
O10   O     O_2   0.710710 0.553485 0.804290 -0.444595
N1    N     N_R   0.501462 0.526030 0.201151 -0.469180
N2    N     N_R   0.494761 0.525748 0.798805 -0.476136
C7    C     C_R   0.611619 0.516434 0.181016 0.562169
C8    C     C_R   0.385469 0.510720 0.819237 0.555673
C9    C     C_R   0.526908 0.388161 0.276296 0.177056
C10   C     C_R   0.470311 0.388503 0.723548 0.177505
C11   C     C_R   0.538852 0.382046 0.327481 0.132318
C12   C     C_R   0.459483 0.382228 0.672375 0.132403
C13   C     C_R   0.482689 0.626473 0.329848 -0.253198
C14   C     C_R   0.516318 0.626334 0.670136 -0.270193
C15   C     C_R   0.483256 0.636444 0.279893 0.179357
C16   C     C_R   0.513357 0.637027 0.719934 0.181224
C17   C     C_R   0.501901 0.516560 0.252806 0.298409
C18   C     C_R   0.493784 0.517209 0.747097 0.303597
C19   C     C_R   0.500671 0.523814 0.101291 -0.181208
C20   C     C_R   0.497415 0.521598 0.898703 -0.184037
C21   C     C_R   0.388496 0.545080 0.122684 -0.108506
C22   C     C_R   0.608455 0.547814 0.877085 -0.078232
C23   C     C_R   0.278225 0.575983 0.093257 0.428503
C24   C     C_R   0.718626 0.579429 0.906507 0.328165
C25   C     C_R   0.612997 0.503499 0.130629 -0.132253
C26   C     C_R   0.385450 0.496852 0.869626 -0.132208
C27   C     C_R   0.508100 0.500929 0.354262 -0.128082
C28   C     C_R   0.491090 0.500896 0.645685 -0.123913
H1    H     H_    0.463474 0.718798 0.349908 0.175897
H2    H     H_    0.536475 0.718765 0.650257 0.180168
C29   C     C_R   0.386074 0.503477 0.971137 0.000232
C30   C     C_R   0.613329 0.508370 0.029033 0.048727
C31   C     C_R   0.611671 0.534187 0.978668 0.012016
C32   C     C_R   0.386923 0.533726 0.021207 -0.063248
C33   C     C_R   0.498466 0.519111 0.949457 -0.027883
C34   C     C_R   0.500355 0.521893 0.050553 -0.023313
C35   C     C_R   0.279585 0.454442 0.942246 0.092659
C36   C     C_R   0.721199 0.464681 0.058332 0.159016
C37   C     C_R   0.278471 0.454763 0.891692 0.421233
C38   C     C_R   0.721807 0.466483 0.108868 0.407970
O11   O     O_2   0.277747 0.510052 0.790589 -0.492682
O12   O     O_2   0.718816 0.519936 0.209954 -0.493487
C39   C     C_R   0.280094 0.580068 0.042684 0.265991
C40   C     C_R   0.716636 0.583591 0.957314 0.261439
C41   C     C_R   0.063951 0.374262 0.500079 -0.182112
C42   C     C_R   0.936055 0.625899 0.500018 -0.177220
C43   C     C_R   0.936083 0.374260 0.500017 -0.182077
C44   C     C_R   0.063918 0.625901 0.499919 -0.177349
H3    H     H_    0.111946 0.275849 0.500273 0.152104
H4    H     H_    0.888043 0.724326 0.499999 0.154014
H5    H     H_    0.888114 0.275844 0.499891 0.152196
H6    H     H_    0.111906 0.724328 0.499875 0.153871
C45   C     C_R   0.871589 0.500056 0.500073 -0.011354
C46   C     C_R   0.128414 0.500061 0.499939 -0.011257
C47   C     C_R   0.416919 0.074229 0.469084 0.229427
C48   C     C_R   0.582376 0.925767 0.531188 0.236379
C49   C     C_R   0.583060 0.074208 0.530924 0.229988
C50   C     C_R   0.417616 0.925788 0.468816 0.235304
N3    N     N_R   0.500000 0.852070 0.500000 -0.189261
N4    N     N_R   0.500000 0.147930 0.500000 -0.189406
C51   C     C_3   0.319833 0.146223 0.434732 -0.775078
H7    H     H_    0.325615 0.257934 0.432478 0.277103
H8    H     H_    0.326705 0.111636 0.397136 0.195602
H9    H     H_    0.225650 0.122160 0.445178 0.198007
C52   C     C_3   0.675311 0.853830 0.567219 -0.775513
H10   H     H_    0.674568 0.741769 0.567390 0.273911
H11   H     H_    0.771326 0.883304 0.560453 0.198646
H12   H     H_    0.657896 0.883328 0.604491 0.194183
C53   C     C_3   0.680039 0.146178 0.565321 -0.775913
H13   H     H_    0.674369 0.257905 0.567519 0.277076
H14   H     H_    0.672905 0.111698 0.602914 0.195544
H15   H     H_    0.774281 0.121985 0.554966 0.197839
C54   C     C_3   0.324694 0.853874 0.432781 -0.773863
H16   H     H_    0.325433 0.741812 0.432615 0.273892
H17   H     H_    0.228674 0.883374 0.439536 0.198843
H18   H     H_    0.342137 0.883373 0.395512 0.194140
C55   C     C_3   0.465271 0.775802 0.255819 -0.794857
H19   H     H_    0.459738 0.860462 0.282562 0.212702
H20   H     H_    0.544739 0.798263 0.234484 0.239766
H21   H     H_    0.377991 0.776816 0.231534 0.264154
C56   C     C_3   0.531468 0.778303 0.742595 -0.779325
H22   H     H_    0.626833 0.815739 0.738195 0.243408
H23   H     H_    0.463606 0.852059 0.724373 0.217211
H24   H     H_    0.517399 0.779146 0.781520 0.237593
O13   O     O_3   0.171704 0.609634 0.114713 -0.637030
H25   H     H_    0.099482 0.613548 0.090133 0.379813
O14   O     O_3   0.826529 0.607066 0.885282 -0.650967
H26   H     H_    0.898685 0.581204 0.908096 0.340012
C57   C     C_3   0.409507 0.252379 0.646701 -0.790401
H27   H     H_    0.337309 0.280212 0.617288 0.240575
H28   H     H_    0.486030 0.194852 0.631929 0.239674
H29   H     H_    0.362919 0.180804 0.670310 0.225557
C58   C     C_3   0.589331 0.252282 0.353075 -0.788624
H30   H     H_    0.661860 0.280212 0.382352 0.240585
H31   H     H_    0.513137 0.194634 0.368026 0.239195
H32   H     H_    0.635680 0.180738 0.329379 0.226662
C59   C     C_3   0.459612 0.257787 0.753079 -0.826373
H33   H     H_    0.514296 0.173025 0.738314 0.233325
H34   H     H_    0.497341 0.270244 0.791236 0.226948
H35   H     H_    0.360729 0.226401 0.752443 0.243061
C60   C     C_3   0.538904 0.257898 0.246673 -0.822742
H36   H     H_    0.484299 0.172636 0.261173 0.233887
H37   H     H_    0.502120 0.270584 0.208415 0.227396
H38   H     H_    0.638011 0.227192 0.247588 0.242201
O15   O     O_3   0.173822 0.405090 0.865072 -0.670327
H39   H     H_    0.201900 0.338451 0.841267 0.346709
O16   O     O_3   0.827938 0.422082 0.135828 -0.662781
H40   H     H_    0.802151 0.353134 0.159331 0.346637
C61   C     C_3   0.173610 0.380940 0.963709 -0.692491
H41   H     H_    0.156383 0.279149 0.945744 0.232677
H42   H     H_    0.194300 0.357001 0.002540 0.217720
H43   H     H_    0.087377 0.443562 0.958113 0.260780
C62   C     C_3   0.828831 0.392114 0.037571 -0.667011
H44   H     H_    0.847543 0.291577 0.056242 0.220940
H45   H     H_    0.809219 0.365704 0.998891 0.202776
H46   H     H_    0.914015 0.456569 0.042942 0.277587
O17   O     O_3   0.179830 0.639050 0.015745 -0.739414
H47   H     H_    0.208273 0.677195 0.985614 0.344838
O18   O     O_3   0.811418 0.645137 0.986588 -0.720920
H48   H     H_    0.855721 0.712051 0.967373 0.350008

loop_
_geom_bond_atom_site_label_1
_geom_bond_atom_site_label_2
_geom_bond_distance
_ccdc_geom_bond_type
C54   H16   1.082276 S    
O14   H26   0.991179 S    
C13   C15   1.394387 A    
C35   C61   1.517033 S    
C56   H22   1.110303 S    
C23   O13   1.384581 S    
O3    C2    1.302634 A    
N1    C17   1.440277 S    
C52   H12   1.108694 S    
C10   C18   1.417147 A    
C56   H24   1.108028 S    
C61   H41   1.110830 S    
C31   C33   1.412858 A    
C5    N1    1.365949 A    
C11   C58   1.517755 S    
C19   C25   1.413012 A    
O1    C1    1.302655 A    
Cu2   N4    2.041689 S    
N1    C7    1.365939 A    
C10   C12   1.419584 A    
C24   O14   1.382016 S    
C12   C57   1.517817 S    
C61   H42   1.107575 S    
C25   C38   1.418334 A    
C29   C35   1.423099 A    
C60   H36   1.110803 S    
C30   C36   1.423753 A    
C42   C44   1.383007 A    
C14   C28   1.403854 A    
C13   C27   1.404445 A    
O7    Cu1   1.952659 S    
C49   N4    1.382330 A    
C24   C40   1.416934 A    
C59   H33   1.110777 S    
C42   C45   1.401178 A    
C60   H37   1.108402 S    
C4    C28   1.488834 S    
C58   H30   1.110573 S    
C3    C27   1.489029 S    
C48   C49   1.433612 A    
C57   H29   1.106762 S    
O3    Cu1   1.961899 S    
O6    C4    1.309856 A    
C32   C34   1.413805 A    
Cu1   Cu2   2.716842 S    
C58   H31   1.107152 S    
O2    C2    1.302800 A    
C10   C59   1.516640 S    
C1    C46   1.449690 S    
C5    C21   1.410634 A    
O7    C4    1.313486 A    
C36   C62   1.518161 S    
C36   C38   1.406157 A    
C49   C53   1.520952 S    
C40   O18   1.383047 S    
C41   C43   1.382634 A    
C44   H6    1.083070 S    
C32   C39   1.421470 A    
C57   H28   1.107127 S    
O8    Cu2   1.952659 S    
C11   C27   1.424977 A    
C55   H19   1.111088 S    
C52   H11   1.109494 S    
O4    C1    1.302780 A    
C61   H43   1.110224 S    
C19   C34   1.412065 A    
C14   H2    1.082993 S    
C35   C37   1.406069 A    
C9    C17   1.416063 A    
C47   C50   1.433608 A    
O5    C3    1.313512 A    
C51   H7    1.082814 S    
C62   H45   1.107621 S    
C16   C56   1.508293 S    
C43   H5    1.082670 S    
C41   C46   1.400906 A    
C55   H20   1.110413 S    
C43   C45   1.400892 A    
C53   H13   1.082791 S    
C7    C25   1.409523 A    
C29   C33   1.414382 A    
C6    N2    1.366690 A    
C60   H38   1.110028 S    
C8    C26   1.408952 A    
C48   N3    1.382113 A    
C37   O15   1.379943 S    
C47   N4    1.382347 A    
C59   H34   1.108383 S    
C51   H8    1.107549 S    
O16   H40   0.991444 S    
C2    C45   1.449691 S    
C53   H14   1.107569 S    
C38   O16   1.379922 S    
Cu1   N3    2.041688 S    
C54   H17   1.109504 S    
O18   H48   0.990350 S    
C58   H32   1.106839 S    
C20   C26   1.412892 A    
O1    Cu1   1.961919 S    
C62   H44   1.110901 S    
C15   C55   1.507910 S    
C50   C54   1.520228 S    
C12   C28   1.424503 A    
N2    C18   1.440703 S    
C29   C32   1.423184 A    
C5    O9    1.349212 S    
C30   C31   1.422332 A    
C20   C33   1.411885 A    
O6    Cu2   1.952690 S    
C21   C23   1.414396 A    
C48   C52   1.520251 S    
C39   O17   1.382477 S    
N2    C8    1.366109 A    
C50   N3    1.382104 A    
C7    O12   1.349205 S    
O15   H39   0.991384 S    
C56   H23   1.110822 S    
C8    O11   1.349222 S    
C30   C34   1.415769 A    
C41   H3    1.082666 S    
O13   H25   0.990082 S    
C44   C46   1.401162 A    
C42   H4    1.083073 S    
C22   C24   1.414975 A    
C62   H46   1.110365 S    
C15   C17   1.406369 A    
C6    C22   1.411300 A    
C55   H21   1.108772 S    
C16   C18   1.408908 A    
C14   C16   1.393268 A    
C19   C21   1.415100 A    
C47   C51   1.520966 S    
C59   H35   1.110044 S    
C20   C22   1.415049 A    
C9    C11   1.419786 A    
O4    Cu2   1.961899 S    
O2    Cu2   1.961919 S    
C51   H9    1.109479 S    
O8    C3    1.309943 A    
C9    C60   1.516338 S    
C52   H10   1.082272 S    
C13   H1    1.082367 S    
O5    Cu1   1.952690 S    
C53   H15   1.109455 S    
C6    O10   1.349074 S    
C26   C37   1.418760 A    
C54   H18   1.108691 S    
C57   H27   1.110561 S    
C23   C39   1.410241 A    
O17   H47   0.990754 S    
C31   C40   1.412358 A    
