data_mof_unit_7714.cif
_audit_creation_date              2012-12-10T20:38:21-0500
_audit_creation_method            fapswitch 2.2
_symmetry_space_group_name_H-M    P1
_symmetry_Int_Tables_number       1
_space_group_crystal_system       triclinic
_cell_length_a                    9.893803
_cell_length_b                    10.712731
_cell_length_c                    16.757154
_cell_angle_alpha                 90.147012
_cell_angle_beta                  84.780021
_cell_angle_gamma                 89.527241
_cell_volume                      1768.64897591

loop_
_atom_site_label
_atom_site_type_symbol
_atom_type_description
_atom_site_fract_x
_atom_site_fract_y
_atom_site_fract_z
_atom_type_partial_charge
C1    C     C_R   0.500563 0.739993 0.496640 0.923825
C2    C     C_R   0.364199 0.530153 0.787670 -0.250074
C3    C     C_R   0.454868 0.289757 0.175400 0.202507
C4    C     C_R   0.454408 0.339962 0.251825 -0.299956
C5    C     C_R   0.619445 0.497230 0.204563 0.103638
C6    C     C_R   0.619257 0.448227 0.126395 0.170184
C7    C     C_R   0.529573 0.349605 0.111929 0.045450
C8    C     C_2   0.455049 0.424638 0.988361 -0.160333
C9    C     C_2   0.494051 0.327049 0.030294 -0.145157
C10   C     C_R   0.530783 0.446053 0.265805 -0.129154
C11   C     C_R   0.380243 0.937333 0.490865 -0.211218
C12   C     C_R   0.480684 0.497703 0.652848 0.935893
C13   C     C_R   0.502896 0.871721 0.483389 -0.049749
C14   C     C_R   0.625523 0.936440 0.462564 0.205415
C15   C     C_R   0.622710 0.065831 0.463919 -0.290977
C16   C     C_R   0.500960 0.129203 0.485067 -0.032241
C17   C     C_R   0.379059 0.064855 0.490895 -0.073383
C18   C     C_3   0.261290 0.072832 0.553320 0.450344
C19   C     C_3   0.264323 0.931412 0.554593 0.541438
C20   C     C_R   0.921469 0.589058 0.541652 -0.028994
C21   C     C_R   0.936244 0.413490 0.457190 0.146730
C22   C     C_R   0.080280 0.414900 0.456760 0.574141
C23   C     C_R   0.500511 0.260265 0.497524 0.925271
C24   C     C_R   0.064238 0.589283 0.541508 -0.068865
C25   C     C_3   0.055902 0.608389 0.630041 0.397233
C26   C     C_3   0.903105 0.608013 0.630357 0.375813
C27   C     C_R   0.519336 0.494359 0.347094 0.876030
C28   C     C_R   0.467931 0.474249 0.737901 -0.093866
C29   C     C_R   0.557288 0.389544 0.768419 -0.171024
C30   C     C_R   0.546615 0.361500 0.849564 0.208295
C31   C     C_R   0.446570 0.423443 0.901542 0.099133
C32   C     C_R   0.353680 0.506829 0.869831 0.199681
H1    H     H_    0.636018 0.344458 0.728943 0.200886
H2    H     H_    0.716636 0.115558 0.452639 0.168489
H3    H     H_    0.168598 0.113678 0.530568 0.044624
H4    H     H_    0.172364 0.887152 0.534000 0.048592
H5    H     H_    0.098905 0.529653 0.662999 0.129713
H6    H     H_    0.392473 0.296667 0.300706 0.206025
H7    H     H_    0.852169 0.697935 0.648342 0.125374
H8    H     H_    0.498380 0.233317 0.005957 0.189420
H9    H     H_    0.294132 0.594704 0.763000 0.199591
H10   H     H_    0.437169 0.514042 0.018689 0.174512
N1    N     N_R   0.857140 0.500860 0.500530 -0.105438
N2    N     N_R   0.142780 0.500820 0.500530 -0.169486
O1    O     O_R   0.385310 0.683210 0.499990 -0.597137
O2    O     O_R   0.614650 0.683240 0.500000 -0.602218
O3    O     O_R   0.371780 0.500000 0.615800 -0.604104
O4    O     O_R   0.601120 0.500040 0.615800 -0.560633
O5    O     O_R   0.385350 0.316760 0.500000 -0.558712
O6    O     O_R   0.614690 0.316790 0.500010 -0.615440
O7    O     O_R   0.398880 0.499960 0.384200 -0.597271
O8    O     O_R   0.628220 0.500000 0.384200 -0.601518
Zn1   Zn    Zn3+2 0.346870 0.499980 0.499990 1.038194
Zn2   Zn    Zn3+2 0.653130 0.500020 0.500010 1.012627
N3    N     N_2   0.698791 0.503618 0.060644 -0.298550
H11   H     H_    0.724348 0.595899 0.066788 0.238058
C33   C     C_3   0.807564 0.426355 0.023384 -0.769542
H12   H     H_    0.893423 0.422658 0.061454 0.231226
H13   H     H_    0.843058 0.466361 0.964259 0.244240
H14   H     H_    0.773109 0.329647 0.013706 0.259487
N4    N     N_2   0.752760 0.874029 0.446889 -0.284208
H15   H     H_    0.833437 0.921432 0.467154 0.218112
C34   C     C_3   0.780934 0.833090 0.364876 -0.757879
H16   H     H_    0.787754 0.914713 0.323909 0.224402
H17   H     H_    0.700062 0.769598 0.347960 0.257977
H18   H     H_    0.879312 0.781937 0.358626 0.232103
F1    F     F_    0.295777 0.125885 0.624155 -0.601799
F2    F     F_    0.304618 0.884481 0.625786 -0.551934
N5    N     N_2   0.874140 0.311713 0.421076 -0.254298
H19   H     H_    0.910590 0.227302 0.439870 0.220619
C35   C     C_3   0.879104 0.316361 0.334776 -0.747617
H20   H     H_    0.985307 0.307205 0.307420 0.252202
H21   H     H_    0.835302 0.405166 0.315871 0.273764
H22   H     H_    0.818421 0.238769 0.312853 0.224000
F3    F     F_    0.156513 0.326443 0.415323 -0.691746
F4    F     F_    0.103407 0.723862 0.650368 -0.634826
F5    F     F_    0.847499 0.505072 0.670413 -0.675183
N6    N     N_2   0.696808 0.604529 0.220717 -0.316235
H23   H     H_    0.657820 0.687293 0.200973 0.210028
C36   C     C_3   0.843427 0.593452 0.208133 -0.789483
H24   H     H_    0.883622 0.657778 0.159950 0.230002
H25   H     H_    0.876833 0.496914 0.191685 0.246832
H26   H     H_    0.888217 0.618857 0.264080 0.246301
N7    N     N_2   0.254972 0.573479 0.920923 -0.314519
H27   H     H_    0.224068 0.657002 0.897655 0.248130
C37   C     C_3   0.141608 0.499286 0.953077 -0.790235
H28   H     H_    0.083518 0.465335 0.903711 0.253309
H29   H     H_    0.073831 0.557684 0.994648 0.240094
H30   H     H_    0.176748 0.418277 0.987105 0.256666
N8    N     N_2   0.370787 0.186157 0.161538 -0.300244
H31   H     H_    0.284693 0.180827 0.201025 0.238065
C38   C     C_3   0.443079 0.068207 0.153890 -0.806213
H32   H     H_    0.372503 0.993623 0.138554 0.243389
H33   H     H_    0.484652 0.043941 0.211381 0.240305
H34   H     H_    0.527489 0.072530 0.105533 0.243164
N9    N     N_2   0.644847 0.280060 0.878781 -0.324867
H35   H     H_    0.743075 0.307712 0.862374 0.247899
C39   C     C_3   0.625723 0.149611 0.860532 -0.769342
H36   H     H_    0.697720 0.091892 0.892101 0.241490
H37   H     H_    0.645189 0.132525 0.795030 0.259596
H38   H     H_    0.520708 0.120427 0.880900 0.255138

loop_
_geom_bond_atom_site_label_1
_geom_bond_atom_site_label_2
_ccdc_geom_bond_type
C10   C27   S    
N3    H11   S    
C34   H17   S    
C6    N3    S    
C12   O4    A    
N8    H31   S    
O4    Zn2   S    
C11   C19   S    
O6    Zn2   S    
C12   C28   S    
C3    N8    S    
C28   C29   A    
N7    C37   S    
C3    C7    A    
C19   H4    S    
C36   H26   S    
C30   C31   A    
N6    C36   S    
C1    O2    A    
C23   O5    A    
C2    H9    S    
C15   C16   A    
C29   H1    S    
C2    C32   A    
C18   C19   S    
N5    C35   S    
C30   N9    S    
C25   H5    S    
C21   N1    A    
N2    Zn1   S    
C22   N2    A    
C20   C24   A    
O8    Zn2   S    
C8    C9    D    
N9    C39   S    
C18   H3    S    
C15   H2    S    
O3    Zn1   S    
C34   H18   S    
O1    Zn1   S    
C21   C22   A    
N4    H15   S    
C22   F3    S    
C12   O3    A    
C27   O7    A    
C32   N7    S    
C26   F5    S    
C24   C25   S    
C36   H25   S    
C35   H21   S    
C37   H28   S    
C16   C17   A    
C33   H14   S    
C18   F1    S    
C14   N4    S    
C38   H34   S    
C21   N5    S    
O7    Zn1   S    
C29   C30   A    
N1    Zn2   S    
N8    C38   S    
C31   C32   A    
N9    H35   S    
O2    Zn2   S    
C38   H33   S    
C17   C18   S    
C19   F2    S    
N7    H27   S    
C4    H6    S    
C16   C23   S    
C39   H37   S    
N3    C33   S    
C24   N2    A    
C1    C13   S    
C4    C10   A    
C3    C4    A    
C20   N1    A    
C27   O8    A    
C7    C9    S    
C11   C17   A    
N6    H23   S    
C8    C31   S    
N4    C34   S    
C8    H10   S    
C36   H24   S    
C23   O6    A    
C37   H30   S    
C35   H22   S    
C6    C7    A    
C39   H38   S    
C25   F4    S    
C25   C26   S    
C35   H20   S    
C11   C13   A    
C1    O1    A    
C33   H12   S    
C5    C6    A    
C20   C26   S    
O5    Zn1   S    
C38   H32   S    
C37   H29   S    
C9    H8    S    
N5    H19   S    
C26   H7    S    
C33   H13   S    
C34   H16   S    
C5    C10   A    
C39   H36   S    
C14   C15   A    
C2    C28   A    
C5    N6    S    
C13   C14   A    
