data_mof_unit_33356.cif
_audit_creation_date              2012-12-11T14:43:41-0500
_audit_creation_method            fapswitch 2.2
_symmetry_space_group_name_H-M    P1
_symmetry_Int_Tables_number       1
_space_group_crystal_system       triclinic
_cell_length_a                    20.901995
_cell_length_b                    7.096433
_cell_length_c                    16.348371
_cell_angle_alpha                 90.002181
_cell_angle_beta                  92.265813
_cell_angle_gamma                 90.003961
_cell_volume                      2423.05152523

loop_
_atom_site_label
_atom_site_type_symbol
_atom_type_description
_atom_site_fract_x
_atom_site_fract_y
_atom_site_fract_z
_atom_type_partial_charge
O1    O     O_R   0.564840 0.505290 0.579830 -0.538860
O2    O     O_R   0.435160 0.005290 0.420170 -0.538823
O3    O     O_R   0.556720 0.179930 0.409350 -0.538035
O4    O     O_R   0.443280 0.679930 0.590650 -0.538050
C1    C     C_R   0.571106 0.344133 0.381424 0.736214
C2    C     C_R   0.428895 0.844129 0.618577 0.736209
O5    O     O_R   0.572280 0.175810 0.578530 -0.523759
O6    O     O_R   0.427720 0.675810 0.421470 -0.523752
O7    O     O_R   0.450830 0.001920 0.590540 -0.529223
O8    O     O_R   0.549170 0.501920 0.409460 -0.529247
C3    C     C_R   0.589273 0.343029 0.605954 0.732479
C4    C     C_R   0.410731 0.843006 0.394037 0.732483
O9    O     O_3   0.460130 0.338030 0.503750 -0.369911
O10   O     O_3   0.539870 0.838030 0.496250 -0.369976
V1    V     V_3+5 0.507400 0.064560 0.499310 1.510219
V2    V     V_3+5 0.492600 0.564560 0.500690 1.510204
C5    C     C_R   0.146175 0.918903 0.164747 -0.086232
C6    C     C_R   0.853845 0.418843 0.835224 -0.086169
C7    C     C_R   0.358474 0.841954 0.329223 -0.092039
C8    C     C_R   0.641525 0.342052 0.670772 -0.092021
C9    C     C_R   0.302985 0.680299 0.215233 -0.159592
C10   C     C_R   0.696919 0.180662 0.784892 -0.159498
C11   C     C_R   0.356296 0.699917 0.268525 0.140275
C12   C     C_R   0.643615 0.200313 0.731589 0.140242
C13   C     C_R   0.307447 0.971101 0.330764 -0.198729
C14   C     C_R   0.692623 0.470961 0.669130 -0.198830
C15   C     C_R   0.253977 0.953407 0.275416 0.123240
C16   C     C_R   0.746077 0.453293 0.724502 0.123249
C17   C     C_R   0.250558 0.803225 0.218189 0.084682
C18   C     C_R   0.749419 0.303323 0.781832 0.084648
C19   C     C_R   0.195785 0.781933 0.164218 0.083885
C20   C     C_R   0.804189 0.282007 0.835806 0.083851
C21   C     C_R   0.151313 0.067674 0.221640 -0.134020
C22   C     C_R   0.848775 0.567440 0.778246 -0.134018
C23   C     C_R   0.203754 0.083326 0.276794 -0.116358
C24   C     C_R   0.796356 0.583037 0.723052 -0.116280
H1    H     H_    0.114127 0.173568 0.223544 0.172514
H2    H     H_    0.886002 0.673216 0.776298 0.172403
H3    H     H_    0.308529 0.082086 0.376381 0.143084
H4    H     H_    0.691603 0.581739 0.623422 0.142990
C25   C     C_R   0.373377 0.757542 0.831261 -0.142313
C26   C     C_R   0.626604 0.257775 0.168711 -0.142374
H5    H     H_    0.394337 0.708878 0.889179 0.135489
H6    H     H_    0.605634 0.209218 0.110779 0.135498
C27   C     C_R   0.387824 0.845000 0.690138 -0.053274
C28   C     C_R   0.612177 0.345024 0.309864 -0.053317
C29   C     C_R   0.077691 0.945290 0.730028 0.102935
C30   C     C_R   0.922321 0.445157 0.269979 0.102954
C31   C     C_R   0.111453 0.926461 0.658885 -0.106424
C32   C     C_R   0.888559 0.426260 0.341120 -0.106416
C33   C     C_R   0.176776 0.884095 0.661405 0.122236
C34   C     C_R   0.823231 0.383941 0.338593 0.122232
C35   C     C_R   0.211728 0.876367 0.738150 0.031000
C36   C     C_R   0.788274 0.376347 0.261848 0.031002
C37   C     C_R   0.175506 0.878680 0.811075 0.009823
C38   C     C_R   0.824492 0.378745 0.188920 0.009818
C39   C     C_R   0.280173 0.856310 0.746298 0.100455
C40   C     C_R   0.719826 0.356345 0.253700 0.100478
C41   C     C_R   0.308175 0.803202 0.823501 0.117722
C42   C     C_R   0.691813 0.303380 0.176481 0.117737
C43   C     C_R   0.271280 0.797904 0.892719 -0.160503
C44   C     C_R   0.728702 0.298174 0.107257 -0.160482
C45   C     C_R   0.206706 0.842928 0.887194 -0.135175
C46   C     C_R   0.793282 0.343144 0.112791 -0.135122
C47   C     C_R   0.322573 0.893929 0.682352 -0.188115
C48   C     C_R   0.677435 0.393891 0.317662 -0.188117
C49   C     C_R   0.411963 0.769772 0.764086 -0.124443
C50   C     C_R   0.588024 0.269926 0.235894 -0.124584
C51   C     C_R   0.108369 0.912882 0.806575 -0.130298
C52   C     C_R   0.891634 0.412874 0.193426 -0.130299
H7    H     H_    0.306239 0.963419 0.626884 0.144842
H8    H     H_    0.693781 0.463292 0.373151 0.144815
H9    H     H_    0.180894 0.844358 0.943218 0.125629
H10   H     H_    0.819090 0.344657 0.056765 0.125599
O11   O     O_R   0.950790 0.256670 0.090520 -0.531242
O12   O     O_R   0.049210 0.756670 0.909480 -0.531268
O13   O     O_R   0.927720 0.590370 0.921470 -0.537699
O14   O     O_R   0.072280 0.090370 0.078530 -0.537710
C53   C     C_R   0.909127 0.421638 0.896171 0.724003
C54   C     C_R   0.090878 0.921652 0.103823 0.724030
O15   O     O_R   0.943270 0.586180 0.090640 -0.530767
O16   O     O_R   0.056730 0.086180 0.909360 -0.530751
O17   O     O_R   0.064850 0.759970 0.079840 -0.514934
O18   O     O_R   0.935150 0.259970 0.920160 -0.514926
C55   C     C_R   0.930591 0.418240 0.119516 0.727911
C56   C     C_R   0.069412 0.918240 0.880485 0.727875
O19   O     O_3   0.039850 0.428050 0.996240 -0.357261
O20   O     O_3   0.960150 0.928050 0.003760 -0.357261
V3    V     V_3+5 0.992610 0.701540 0.000700 1.551257
V4    V     V_3+5 0.007390 0.201540 0.999300 1.551292
I1    I     I_    0.189578 0.545436 0.081931 -0.423509
I2    I     I_    0.810345 0.045610 0.918137 -0.423457
I3    I     I_    0.978338 0.008330 0.716974 -0.364278
I4    I     I_    0.021682 0.508111 0.283042 -0.364226
I5    I     I_    0.208370 0.782676 0.546542 -0.413462
I6    I     I_    0.791631 0.282380 0.453428 -0.413589
H11   H     H_    0.085576 0.936272 0.600349 0.184912
H12   H     H_    0.914442 0.435973 0.399657 0.184909
H13   H     H_    0.304238 0.568382 0.170721 0.178457
H14   H     H_    0.695597 0.068988 0.829511 0.178425
H15   H     H_    0.205445 0.199566 0.319825 0.153514
H16   H     H_    0.794724 0.699117 0.679943 0.153513
I7    I     I_    0.432893 0.512907 0.247252 -0.434292
I8    I     I_    0.566862 0.013965 0.753020 -0.434288
H17   H     H_    0.461165 0.722758 0.770272 0.148672
H18   H     H_    0.538817 0.222949 0.229696 0.148710
H19   H     H_    0.292925 0.763171 0.952174 0.149498
H20   H     H_    0.707048 0.263559 0.047791 0.149487

loop_
_geom_bond_atom_site_label_1
_geom_bond_atom_site_label_2
_ccdc_geom_bond_type
C2    C27   S    
C15   C17   A    
O1    C3    A    
C23   H15   S    
O2    C4    A    
C2    O7    A    
C25   C49   A    
O14   V4    S    
O5    C3    A    
O13   V3    S    
C30   I4    S    
C24   H16   S    
C28   C48   A    
C53   O18   A    
C9    H13   S    
O14   C54   A    
C39   C41   A    
C44   H20   S    
C40   C42   A    
C42   C44   A    
C41   C43   A    
C43   C45   A    
C29   C51   A    
C44   C46   A    
O11   V4    S    
C40   C48   A    
C11   I7    S    
C8    C12   A    
C48   H8    S    
C6    C53   S    
C31   C33   A    
C37   C45   A    
C27   C49   A    
C32   C34   A    
C38   C46   A    
C30   C52   A    
O12   V3    S    
O15   V3    S    
C30   C32   A    
O6    V2    S    
C26   C50   A    
C25   H5    S    
C26   H6    S    
C50   H18   S    
C54   O17   A    
C43   H19   S    
C34   C36   A    
C35   C37   A    
O17   V3    S    
C36   C38   A    
C3    C8    S    
C32   H12   S    
C10   H14   S    
C25   C41   A    
C29   C31   A    
C26   C42   A    
C35   C39   A    
C49   H17   S    
C45   H9    S    
C15   C23   A    
O16   C56   A    
C9    C17   A    
C5    C54   S    
C21   H1    S    
C33   C35   A    
O4    V2    S    
C7    C11   A    
C28   C50   A    
O6    C4    A    
C29   I3    S    
O13   C53   A    
C5    C21   A    
O1    V2    S    
O2    V1    S    
C6    C22   A    
C37   C51   A    
O4    C2    A    
O20   V4    S    
C38   C52   A    
C9    C11   A    
C27   C47   A    
C5    C19   A    
C10   C12   A    
O19   V4    S    
C6    C20   A    
O12   C56   A    
O3    V1    S    
O11   C55   A    
C36   C40   A    
O18   V4    S    
C10   C18   A    
C22   H2    S    
C14   C16   A    
C39   C47   A    
O3    C1    A    
C13   C15   A    
C1    C28   S    
C19   I1    S    
O16   V4    S    
C16   C18   A    
O7    V1    S    
C1    O8    A    
C17   C19   A    
C47   H7    S    
C13   H3    S    
C18   C20   A    
C14   H4    S    
C20   I2    S    
C8    C14   A    
C4    C7    S    
O5    V1    S    
C21   C23   A    
C34   I6    S    
C22   C24   A    
C7    C13   A    
C31   H11   S    
O20   V3    S    
C16   C24   A    
O9    V2    S    
O19   V3    S    
C46   H10   S    
O10   V1    S    
O8    V2    S    
C12   I8    S    
C52   C55   S    
O15   C55   A    
C51   C56   S    
C33   I5    S    
