data_mof_unit_18568.cif
_audit_creation_date              2012-12-11T15:16:47-0500
_audit_creation_method            fapswitch 2.2
_symmetry_space_group_name_H-M    P1
_symmetry_Int_Tables_number       1
_space_group_crystal_system       triclinic
_cell_length_a                    25.132651
_cell_length_b                    7.232021
_cell_length_c                    21.887355
_cell_angle_alpha                 90.000484
_cell_angle_beta                  110.269658
_cell_angle_gamma                 90.000694
_cell_volume                      3731.88007434

loop_
_atom_site_label
_atom_site_type_symbol
_atom_type_description
_atom_site_fract_x
_atom_site_fract_y
_atom_site_fract_z
_atom_type_partial_charge
O1    O     O_R   0.554350 0.505270 0.581390 -0.532626
O2    O     O_R   0.445650 0.005270 0.418610 -0.532629
O3    O     O_R   0.553380 0.177580 0.454800 -0.542087
O4    O     O_R   0.446620 0.677580 0.545200 -0.542090
C1    C     C_R   0.566069 0.344609 0.438558 0.674002
C2    C     C_R   0.433930 0.844608 0.561442 0.673990
O5    O     O_R   0.560970 0.175640 0.583140 -0.532322
O6    O     O_R   0.439030 0.675640 0.416860 -0.532334
O7    O     O_R   0.453290 0.004120 0.547860 -0.537747
O8    O     O_R   0.546710 0.504120 0.452140 -0.537743
C3    C     C_R   0.576030 0.343687 0.607667 0.677154
C4    C     C_R   0.423969 0.843684 0.392333 0.677133
O9    O     O_3   0.464660 0.338800 0.488280 -0.373406
O10   O     O_3   0.535340 0.838800 0.511720 -0.373399
V1    V     V_3+5 0.506560 0.064420 0.502170 1.394181
V2    V     V_3+5 0.493440 0.564420 0.497830 1.394163
C5    C     C_R   0.149864 0.016421 0.287735 -0.144855
C6    C     C_R   0.850147 0.516217 0.712254 -0.144863
H1    H     H_    0.064296 0.036849 0.221494 0.110380
H2    H     H_    0.935717 0.536612 0.778494 0.110371
H3    H     H_    0.137598 0.060059 0.328295 0.148233
H4    H     H_    0.862419 0.559753 0.671687 0.148237
C7    C     C_R   0.120794 0.945186 0.172793 -0.033576
C8    C     C_R   0.879206 0.445162 0.827207 -0.033561
C9    C     C_R   0.395065 0.788965 0.274444 -0.156048
C10   C     C_R   0.604926 0.289090 0.725561 -0.156054
C11   C     C_R   0.355006 0.777223 0.212118 -0.118977
C12   C     C_R   0.644982 0.277404 0.787891 -0.118970
C13   C     C_R   0.298352 0.820330 0.200762 -0.137145
C14   C     C_R   0.701639 0.320469 0.799244 -0.137140
C15   C     C_R   0.280066 0.878242 0.252028 0.072708
C16   C     C_R   0.719931 0.378281 0.747973 0.072704
C17   C     C_R   0.321881 0.894182 0.315851 0.004205
C18   C     C_R   0.678120 0.394159 0.684146 0.004188
C19   C     C_R   0.221715 0.918563 0.242120 0.019669
C20   C     C_R   0.778285 0.418555 0.757880 0.019678
C21   C     C_R   0.206961 0.978897 0.296143 0.025596
C22   C     C_R   0.793047 0.478768 0.703849 0.025569
C23   C     C_R   0.249377 0.002272 0.357902 0.396132
C24   C     C_R   0.750634 0.502102 0.642085 0.396139
C25   C     C_R   0.305362 0.953998 0.367509 -0.289709
C26   C     C_R   0.694645 0.453876 0.632482 -0.289668
C27   C     C_R   0.177314 0.901998 0.180433 -0.184253
C28   C     C_R   0.822682 0.402056 0.819572 -0.184238
C29   C     C_R   0.107588 0.001837 0.226759 -0.174458
C30   C     C_R   0.892421 0.501675 0.773233 -0.174467
C31   C     C_R   0.379524 0.847640 0.326760 -0.055236
C32   C     C_R   0.620474 0.347663 0.673239 -0.055225
H5    H     H_    0.185219 0.860163 0.137120 0.092799
H6    H     H_    0.814771 0.360330 0.862891 0.092783
H7    H     H_    0.438626 0.751190 0.282035 0.106914
H8    H     H_    0.561362 0.251358 0.717974 0.106907
H9    H     H_    0.269987 0.806398 0.151216 0.107250
H10   H     H_    0.730001 0.306584 0.848793 0.107251
H11   H     H_    0.367895 0.732269 0.172148 0.124326
H12   H     H_    0.632088 0.232531 0.827865 0.124327
H13   H     H_    0.336062 0.965912 0.416314 0.137590
H14   H     H_    0.663948 0.465749 0.583675 0.137555
C33   C     C_R   0.120305 0.765409 0.881033 -0.161714
C34   C     C_R   0.879698 0.265409 0.118972 -0.161713
H15   H     H_    0.105320 0.637343 0.894985 0.123790
H16   H     H_    0.894685 0.137343 0.105023 0.123791
C35   C     C_R   0.155675 0.755652 0.843788 -0.138398
C36   C     C_R   0.844329 0.255652 0.156217 -0.138397
H17   H     H_    0.166750 0.620674 0.830408 0.134556
H18   H     H_    0.833256 0.120674 0.169600 0.134557
C37   C     C_R   0.176210 0.917417 0.823930 0.020393
C38   C     C_R   0.823791 0.417417 0.176071 0.020392
C39   C     C_R   0.160576 0.089385 0.842730 -0.135070
C40   C     C_R   0.839421 0.589384 0.157266 -0.135070
H19   H     H_    0.175537 0.217046 0.828469 0.138560
H20   H     H_    0.824458 0.717045 0.171524 0.138560
C41   C     C_R   0.125194 0.099246 0.880062 -0.159698
C42   C     C_R   0.874804 0.599244 0.119934 -0.159698
H21   H     H_    0.113964 0.234290 0.893210 0.121624
H22   H     H_    0.886031 0.734289 0.106783 0.121626
C43   C     C_R   0.104381 0.937340 0.899656 -0.047332
C44   C     C_R   0.895619 0.437339 0.100344 -0.047334
N1    N     N_R   0.233134 0.062364 0.764062 -0.279945
N2    N     N_R   0.766863 0.562365 0.235933 -0.279945
N3    N     N_R   0.266544 0.052365 0.728274 -0.283252
N4    N     N_R   0.733452 0.552367 0.271721 -0.283251
C45   C     C_R   0.281877 0.886069 0.710525 0.513985
C46   C     C_R   0.718124 0.386071 0.289476 0.513979
N5    N     N_R   0.262209 0.730215 0.730221 -0.280179
N6    N     N_R   0.737796 0.230217 0.269786 -0.280180
N7    N     N_R   0.228794 0.740213 0.765998 -0.283661
N8    N     N_R   0.771211 0.240215 0.234009 -0.283660
C47   C     C_R   0.213517 0.906494 0.783817 0.513971
C48   C     C_R   0.786484 0.406495 0.216183 0.513970
C49   C     C_R   0.336425 0.702837 0.653645 -0.132346
C50   C     C_R   0.663580 0.202840 0.346361 -0.132290
H23   H     H_    0.321418 0.575234 0.667884 0.138331
H24   H     H_    0.678590 0.075237 0.332127 0.138321
C51   C     C_R   0.373074 0.692712 0.617893 -0.163643
C52   C     C_R   0.626930 0.192714 0.382112 -0.163629
H25   H     H_    0.385083 0.557569 0.605733 0.123875
H26   H     H_    0.614923 0.057571 0.394275 0.123848
C53   C     C_R   0.394087 0.854511 0.598521 -0.041125
C54   C     C_R   0.605913 0.354512 0.401479 -0.041130
C55   C     C_R   0.376917 0.026611 0.615483 -0.155782
C56   C     C_R   0.623078 0.526613 0.384510 -0.155827
H27   H     H_    0.391930 0.154523 0.601458 0.116452
H28   H     H_    0.608061 0.654524 0.398530 0.116464
C57   C     C_R   0.340313 0.036670 0.651208 -0.130326
C58   C     C_R   0.659683 0.536672 0.348786 -0.130366
H29   H     H_    0.328386 0.171775 0.663486 0.132395
H30   H     H_    0.671606 0.671778 0.336503 0.132396
C59   C     C_R   0.319790 0.874989 0.671150 0.022994
C60   C     C_R   0.680210 0.374992 0.328851 0.023003
O11   O     O_R   0.953220 0.285790 0.047790 -0.537666
O12   O     O_R   0.046780 0.785790 0.952210 -0.537666
O13   O     O_R   0.939020 0.617570 0.916840 -0.533446
O14   O     O_R   0.060980 0.117570 0.083160 -0.533447
C61   C     C_R   0.924010 0.448956 0.892309 0.679649
C62   C     C_R   0.075989 0.948960 0.107691 0.679649
O15   O     O_R   0.946600 0.615450 0.045180 -0.540650
O16   O     O_R   0.053400 0.115450 0.954820 -0.540650
O17   O     O_R   0.054370 0.786770 0.081410 -0.531597
O18   O     O_R   0.945630 0.286770 0.918590 -0.531596
C63   C     C_R   0.934340 0.446974 0.061785 0.676451
C64   C     C_R   0.065660 0.946974 0.938215 0.676457
O19   O     O_3   0.035300 0.454160 0.011680 -0.373093
O20   O     O_3   0.964700 0.954160 0.988320 -0.373090
V3    V     V_3+5 0.993450 0.728620 0.997830 1.408314
V4    V     V_3+5 0.006550 0.228620 0.002170 1.408315
O21   O     O_3   0.236225 0.061606 0.411148 -0.569120
C65   C     C_3   0.233954 0.257371 0.411562 0.071991
H31   H     H_    0.205614 0.297521 0.438609 0.154398
H32   H     H_    0.214923 0.318094 0.361804 0.106965
C66   C     C_3   0.292815 0.340853 0.446550 -0.327772
H33   H     H_    0.311576 0.278998 0.495865 0.200961
H34   H     H_    0.321172 0.310552 0.418581 0.195888
C67   C     C_3   0.289233 0.550114 0.452837 -0.775228
H35   H     H_    0.267920 0.612912 0.404189 0.236372
H36   H     H_    0.332570 0.608766 0.473735 0.228963
H37   H     H_    0.265152 0.585492 0.485281 0.241511
O22   O     O_3   0.763790 0.561384 0.588836 -0.569118
C68   C     C_3   0.766080 0.757148 0.588418 0.072052
H38   H     H_    0.794465 0.797255 0.561421 0.154324
H39   H     H_    0.785069 0.817896 0.638178 0.106988
C69   C     C_3   0.707238 0.840659 0.553355 -0.327808
H40   H     H_    0.688551 0.778947 0.504008 0.200953
H41   H     H_    0.678812 0.810214 0.581228 0.195926
C70   C     C_3   0.710831 0.049944 0.547161 -0.775190
H42   H     H_    0.732049 0.112609 0.595854 0.236336
H43   H     H_    0.667501 0.108593 0.526175 0.228951
H44   H     H_    0.735007 0.085488 0.514835 0.241546

loop_
_geom_bond_atom_site_label_1
_geom_bond_atom_site_label_2
_ccdc_geom_bond_type
C22   C24   A    
C35   H17   S    
C7    C29   A    
C11   C13   A    
O1    C3    A    
C37   C47   S    
C66   C67   S    
O2    C4    A    
C65   H31   S    
C33   C43   A    
C67   H37   S    
C70   H42   S    
C12   H12   S    
C23   C25   A    
O5    C3    A    
C57   H29   S    
C34   C44   A    
C42   H22   S    
C16   C20   A    
C19   C21   A    
C46   N6    A    
O14   V4    S    
C68   C69   S    
C51   C53   A    
O11   C63   A    
H2    C30   S    
C50   C52   A    
C7    C27   A    
C34   H16   S    
O16   C64   A    
C39   H19   S    
C44   C63   S    
O15   C63   A    
C43   C64   S    
N3    C45   A    
C7    C62   S    
C18   C26   A    
C24   O22   S    
C40   C42   A    
C38   C48   S    
C45   C59   S    
C39   C41   A    
C19   C27   A    
C9    C31   A    
C10   C32   A    
C58   H30   S    
O5    V1    S    
C55   H27   S    
C13   C15   A    
C41   H21   S    
C69   C70   S    
C26   H14   S    
C3    C32   S    
C2    O7    A    
C4    C31   S    
C6    C30   A    
C54   C56   A    
C70   H43   S    
N5    N7    A    
C55   C57   A    
C35   C37   A    
C33   H15   S    
C23   O21   S    
N2    N4    A    
N1    N3    A    
C27   H5    S    
O19   V4    S    
C67   H36   S    
C66   H34   S    
C49   C51   A    
C5    H3    S    
H1    C29   S    
C52   H26   S    
C37   C39   A    
C16   C18   A    
O4    V2    S    
C9    H7    S    
O12   C64   A    
C10   H8    S    
C49   H23   S    
C14   H10   S    
O10   V1    S    
C1    C54   S    
O6    C4    A    
O11   V4    S    
C15   C17   A    
O1    V2    S    
C5    C21   A    
C56   H28   S    
O2    V1    S    
O12   V3    S    
O18   V4    S    
O17   V3    S    
O4    C2    A    
C45   N5    A    
N8    C48   A    
N4    C46   A    
N7    C47   A    
C17   C31   A    
C15   C19   A    
C20   C28   A    
C18   C32   A    
O21   C65   S    
C65   C66   S    
C36   C38   A    
C70   H44   S    
O3    V1    S    
C58   C60   A    
C28   H6    S    
C57   C59   A    
C53   C55   A    
C6    H4    S    
C10   C12   A    
C5    C29   A    
O3    C1    A    
C65   H32   S    
O14   C62   A    
C68   H38   S    
C51   H25   S    
C67   H35   S    
C9    C11   A    
C11   H11   S    
C33   C35   A    
C62   O17   A    
C34   C36   A    
C17   C25   A    
C2    C53   S    
C49   C59   A    
C20   C22   A    
C6    C22   A    
C8    C30   A    
C1    O8    A    
C21   C23   A    
O8    V2    S    
C14   C16   A    
C68   H39   S    
C50   C60   A    
C50   H24   S    
C13   H9    S    
C8    C28   A    
C52   C54   A    
C24   C26   A    
C12   C14   A    
C56   C58   A    
N6    N8    A    
N2    C48   A    
C46   C60   S    
N1    C47   A    
O22   C68   S    
C25   H13   S    
O13   V3    S    
C8    C61   S    
O6    V2    S    
C61   O18   A    
C42   C44   A    
O9    V2    S    
C38   C40   A    
C41   C43   A    
C69   H40   S    
C40   H20   S    
O16   V4    S    
O15   V3    S    
C69   H41   S    
C66   H33   S    
O7    V1    S    
C36   H18   S    
O20   V3    S    
O13   C61   A    
