data_mof_unit_52509.cif
_audit_creation_date              2012-12-10T18:57:41-0500
_audit_creation_method            fapswitch 2.2
_symmetry_space_group_name_H-M    P1
_symmetry_Int_Tables_number       1
_space_group_crystal_system       triclinic
_cell_length_a                    10.891358
_cell_length_b                    10.902435
_cell_length_c                    9.567824
_cell_angle_alpha                 91.196502
_cell_angle_beta                  91.698035
_cell_angle_gamma                 91.632216
_cell_volume                      1134.87761472

loop_
_atom_site_label
_atom_site_type_symbol
_atom_type_description
_atom_site_fract_x
_atom_site_fract_y
_atom_site_fract_z
_atom_type_partial_charge
C1    C     C_R   0.499616 0.262215 0.497970 0.847263
C2    C     C_R   0.491075 0.128472 0.492669 -0.162366
C3    C     C_R   0.499802 0.058276 0.366608 0.267941
C4    C     C_R   0.496435 0.930709 0.371135 -0.235850
C5    C     C_R   0.490476 0.870365 0.498894 -0.144987
C6    C     C_R   0.472013 0.939600 0.619971 0.111034
C7    C     C_3   0.544467 0.942429 0.754509 -0.484064
C8    C     C_3   0.539149 0.080567 0.753587 -0.355048
C9    C     C_R   0.541784 0.600373 0.076448 0.157489
C10   C     C_R   0.438480 0.410961 0.070852 -0.099670
C11   C     C_R   0.435265 0.411909 0.920628 0.568125
C12   C     C_R   0.265056 0.496584 0.497523 0.866421
C13   C     C_R   0.539989 0.601061 0.930309 0.080787
C14   C     C_3   0.659754 0.669222 0.927777 -0.523559
C15   C     C_3   0.662090 0.670397 0.087103 0.337504
C16   C     C_R   0.498992 0.737545 0.500796 0.801930
C17   C     C_R   0.734722 0.489832 0.502456 0.743133
C18   C     C_2   0.928134 0.450962 0.391505 -0.251754
C19   C     C_2   0.866169 0.460238 0.509961 0.289646
C20   C     C_2   0.061856 0.437941 0.393361 0.314266
C21   C     C_2   0.132332 0.499211 0.491526 -0.320189
C22   C     C_R   0.470365 0.066321 0.616607 0.098830
Cu1   Cu    Cu3+1 0.499990 0.499980 0.640670 0.995806
Cu2   Cu    Cu3+1 0.500010 0.500020 0.359330 1.019336
H1    H     H_    0.881120 0.453954 0.290524 0.208993
H2    H     H_    0.630779 0.127060 0.744907 0.204758
H3    H     H_    0.391909 0.338286 0.125005 0.206217
H4    H     H_    0.732110 0.614922 0.880637 0.212942
H5    H     H_    0.652385 0.761947 0.886742 0.156805
H6    H     H_    0.652248 0.762862 0.136954 0.079306
H7    H     H_    0.091337 0.556963 0.569927 0.134980
H8    H     H_    0.506144 0.879221 0.274317 0.180089
H9    H     H_    0.492699 0.900721 0.840869 0.211789
H10   H     H_    0.639406 0.910782 0.739979 0.195430
H11   H     H_    0.481663 0.117541 0.837612 0.258840
N1    N     N_R   0.500780 0.500930 0.147930 -0.189990
N2    N     N_R   0.500780 0.500890 0.852020 -0.209116
O1    O     O_R   0.500000 0.319640 0.618810 -0.535746
O2    O     O_R   0.500010 0.319680 0.381230 -0.539593
O3    O     O_R   0.321940 0.499980 0.618760 -0.562325
O4    O     O_R   0.321950 0.500020 0.381180 -0.553692
O5    O     O_R   0.499990 0.680320 0.618770 -0.578839
O6    O     O_R   0.500000 0.680360 0.381190 -0.599265
O7    O     O_R   0.678050 0.499980 0.618820 -0.584604
O8    O     O_R   0.678060 0.500020 0.381240 -0.536361
O9    O     O_3   0.371799 0.321351 0.842048 -0.570157
C23   C     C_3   0.249320 0.307976 0.884658 -0.282206
H12   H     H_    0.193514 0.264837 0.797018 0.211383
H13   H     H_    0.207551 0.397606 0.910122 0.159944
H14   H     H_    0.244008 0.245345 0.974396 0.201763
O10   O     O_3   0.759759 0.601704 0.140811 -0.537371
C24   C     C_3   0.865545 0.679672 0.155883 -0.342811
H15   H     H_    0.858919 0.740512 0.249903 0.171638
H16   H     H_    0.881223 0.735677 0.061600 0.164056
H17   H     H_    0.947812 0.623218 0.169876 0.189753
O11   O     O_3   0.920310 0.413146 0.630730 -0.564472
C25   C     C_3   0.911566 0.492513 0.747828 -0.274776
H18   H     H_    0.839681 0.455367 0.816231 0.212551
H19   H     H_    0.895079 0.589806 0.720798 0.120611
H20   H     H_    0.999761 0.491960 0.808825 0.176200
Br1   Br    Br    0.126594 0.334951 0.249420 -0.562214
Br2   Br    Br    0.532659 0.123511 0.185829 -0.556535

loop_
_geom_bond_atom_site_label_1
_geom_bond_atom_site_label_2
_ccdc_geom_bond_type
C10   H3    S    
C2    C22   A    
C9    N1    A    
C8    C22   S    
Cu1   Cu2   S    
C12   O3    A    
C12   O4    A    
C15   O10   S    
Cu1   O1    S    
C8    H2    S    
C6    C7    S    
C13   N2    A    
C23   H12   S    
C24   H17   S    
C24   H15   S    
C21   H7    S    
C2    C3    A    
C9    C15   S    
C17   O7    A    
C5    C16   S    
C7    C8    S    
C23   H13   S    
Cu2   N1    S    
C13   C14   S    
O11   C25   S    
Cu2   O4    S    
C7    H9    S    
C16   O6    A    
C25   H18   S    
C4    H8    S    
Cu1   O5    S    
C1    O1    A    
Cu2   O8    S    
C17   C19   S    
C24   H16   S    
C18   C19   D    
C23   H14   S    
C18   C20   S    
C5    C6    A    
C7    H10   S    
C18   H1    S    
C25   H19   S    
C10   C11   A    
C1    O2    A    
C14   H5    S    
Cu1   O3    S    
C6    C22   A    
C16   O5    A    
Cu2   O2    S    
C20   C21   D    
C3    C4    A    
C15   H6    S    
C1    C2    S    
O9    C23   S    
C3    Br2   S    
C20   Br1   S    
C11   N2    A    
Cu2   O6    S    
C9    C13   A    
C14   C15   S    
C25   H20   S    
C10   N1    A    
C14   H4    S    
Cu1   N2    S    
C19   O11   S    
C12   C21   S    
Cu1   O7    S    
O10   C24   S    
C17   O8    A    
C4    C5    A    
C11   O9    S    
C8    H11   S    
