data_mof_unit_24801.cif
_audit_creation_date              2012-12-10T18:35:15-0500
_audit_creation_method            fapswitch 2.2
_symmetry_space_group_name_H-M    P1
_symmetry_Int_Tables_number       1
_space_group_crystal_system       triclinic
_cell_length_a                    18.519097
_cell_length_b                    18.891216
_cell_length_c                    18.947201
_cell_angle_alpha                 109.999386
_cell_angle_beta                  108.986362
_cell_angle_gamma                 108.884014
_cell_volume                      5136.25152552

loop_
_atom_site_label
_atom_site_type_symbol
_atom_type_description
_atom_site_fract_x
_atom_site_fract_y
_atom_site_fract_z
_atom_type_partial_charge
C1    C     C_R   0.381880 0.501653 0.381729 0.813648
C2    C     C_R   0.851716 0.810440 0.837198 -0.022788
C3    C     C_R   0.972110 0.744951 0.971721 -0.124294
C4    C     C_R   0.959172 0.734486 0.036539 -0.226674
C5    C     C_R   0.026996 0.784824 0.122193 0.003891
C6    C     C_R   0.280954 0.547764 0.945935 -0.141006
C7    C     C_R   0.198320 0.477160 0.881931 -0.100603
C8    C     C_R   0.169184 0.399819 0.884086 0.100584
C9    C     C_R   0.225280 0.392840 0.948680 -0.159646
C10   C     C_R   0.307749 0.463599 0.012827 -0.132567
C11   C     C_R   0.335442 0.541171 0.011675 -0.088355
C12   C     C_R   0.079173 0.257994 0.751337 -0.181733
C13   C     C_R   0.826174 0.811836 0.570942 -0.186109
C14   C     C_R   0.998882 0.186752 0.683633 -0.054095
C15   C     C_R   0.919746 0.181346 0.679689 0.033317
C16   C     C_R   0.922795 0.245928 0.746119 -0.226600
C17   C     C_R   0.003111 0.316870 0.814445 -0.067364
C18   C     C_R   0.082280 0.324605 0.815894 0.002042
C19   C     C_R   0.778008 0.116593 0.547806 -0.081414
C20   C     C_R   0.696870 0.046736 0.480445 -0.134709
C21   C     C_R   0.669586 0.966277 0.475070 -0.195628
C22   C     C_R   0.722646 0.955659 0.537850 -0.061173
C23   C     C_R   0.804662 0.025454 0.606113 0.039326
C24   C     C_R   0.811416 0.809036 0.492705 -0.105755
C25   C     C_R   0.833314 0.106296 0.609910 0.012753
C26   C     C_R   0.731943 0.742057 0.415888 0.058640
C27   C     C_R   0.672447 0.678482 0.420815 -0.207414
C28   C     C_R   0.686298 0.684537 0.500074 -0.064146
C29   C     C_R   0.762274 0.753790 0.576448 0.075509
C30   C     C_R   0.689136 0.796617 0.314605 -0.301799
C31   C     C_R   0.663782 0.790655 0.233707 0.056529
C32   C     C_R   0.654554 0.720736 0.166218 -0.175345
C33   C     C_R   0.620000 0.618444 0.500971 0.782019
C34   C     C_R   0.667327 0.656245 0.178826 -0.279910
C35   C     C_R   0.689921 0.660684 0.259458 0.523250
C36   C     C_R   0.707317 0.734916 0.329670 0.018288
C37   C     C_R   0.406942 0.756956 0.552980 -0.272681
C38   C     C_R   0.357146 0.676111 0.478158 -0.160673
C39   C     C_R   0.369128 0.663162 0.406180 0.042353
C40   C     C_R   0.428616 0.734214 0.408413 0.467270
C41   C     C_R   0.476736 0.815731 0.483049 -0.135714
C42   C     C_R   0.467373 0.827330 0.556168 0.037207
C43   C     C_R   0.250024 0.575293 0.256479 -0.176938
C44   C     C_R   0.616720 0.497832 0.618646 0.859399
C45   C     C_R   0.184426 0.496715 0.183229 -0.165665
C46   C     C_R   0.177779 0.418241 0.178092 -0.064234
C47   C     C_R   0.244263 0.420425 0.242427 0.447040
C48   C     C_R   0.311877 0.500711 0.316220 -0.209236
C49   C     C_R   0.310805 0.578199 0.325487 -0.026984
C50   C     C_R   0.021211 0.305014 0.115441 -0.103365
C51   C     C_R   0.944781 0.228422 0.044683 0.474208
C52   C     C_R   0.949185 0.175841 0.974490 0.339519
C53   C     C_R   0.029144 0.200522 0.973415 -0.120200
C54   C     C_R   0.102404 0.280518 0.039810 -0.175177
C55   C     C_R   0.381393 0.381582 0.500836 0.838768
C56   C     C_R   0.098684 0.333682 0.109501 -0.027374
C57   C     C_R   0.254625 0.537777 0.585069 -0.159799
C58   C     C_R   0.273036 0.470704 0.580505 -0.070289
C59   C     C_R   0.224598 0.390579 0.503760 0.086278
C60   C     C_R   0.154092 0.377378 0.433339 -0.181945
C61   C     C_R   0.135577 0.444530 0.438274 -0.117018
C62   C     C_R   0.186058 0.524764 0.513883 -0.143473
C63   C     C_R   0.175615 0.248473 0.493157 -0.205476
C64   C     C_R   0.188309 0.181266 0.498415 -0.047032
C65   C     C_R   0.267963 0.181294 0.510529 -0.039942
C66   C     C_R   0.782685 0.823647 0.799351 -0.171687
C67   C     C_R   0.331529 0.246915 0.510029 -0.028128
C68   C     C_R   0.317728 0.315418 0.505161 -0.087798
C69   C     C_R   0.240657 0.317644 0.500595 -0.038367
C70   C     C_R   0.357665 0.152570 0.616885 -0.083000
C71   C     C_R   0.381183 0.097921 0.640716 -0.142768
C72   C     C_R   0.339277 0.010183 0.581442 -0.193929
C73   C     C_R   0.273538 0.976269 0.497425 0.076060
C74   C     C_R   0.247887 0.031181 0.473932 -0.142247
C75   C     C_R   0.290290 0.120010 0.533734 0.045230
C76   C     C_R   0.569761 0.630689 0.842739 -0.231858
C77   C     C_R   0.747842 0.802584 0.712544 0.084610
C78   C     C_R   0.633403 0.611033 0.830066 0.570766
C79   C     C_R   0.609112 0.524031 0.778513 -0.035511
C80   C     C_R   0.524943 0.457999 0.748026 -0.209331
C81   C     C_R   0.463837 0.478441 0.765866 0.068333
C82   C     C_R   0.486408 0.565054 0.811538 -0.302478
C83   C     C_R   0.738873 0.501252 0.824539 -0.033003
C84   C     C_R   0.812294 0.500291 0.816092 -0.116428
C85   C     C_R   0.819271 0.498132 0.743243 -0.035745
C86   C     C_R   0.751477 0.491857 0.677557 -0.229446
C87   C     C_R   0.680428 0.495204 0.685918 -0.022296
C88   C     C_R   0.782356 0.764514 0.662889 0.096822
C89   C     C_R   0.674828 0.503006 0.760839 0.001223
C90   C     C_R   0.966154 0.593700 0.770887 -0.098573
C91   C     C_R   0.042657 0.607364 0.766210 -0.142662
C92   C     C_R   0.053095 0.537194 0.726214 -0.217131
C93   C     C_R   0.986685 0.452568 0.690030 0.065670
C94   C     C_R   0.909712 0.438918 0.695798 -0.139739
C95   C     C_R   0.899621 0.509789 0.736794 0.084797
C96   C     C_R   0.998613 0.879314 0.381969 0.776372
C97   C     C_R   0.880419 0.877664 0.495791 0.792727
C98   C     C_R   0.999569 0.118978 0.618156 0.775755
C99   C     C_R   0.849366 0.748617 0.701538 -0.233656
C100  C     C_R   0.119471 0.116095 0.498117 0.790280
C101  C     C_R   0.001844 0.381800 0.882239 0.788645
C102  C     C_R   0.118740 0.498159 0.116859 0.826683
C103  C     C_R   0.998973 0.618758 0.118120 0.833420
C104  C     C_R   0.880722 0.500189 0.881796 0.860409
C105  C     C_R   0.024021 0.741795 0.528584 0.555714
C106  C     C_R   0.040150 0.758627 0.467034 -0.145844
C107  C     C_R   0.973618 0.714500 0.380875 -0.032360
C108  C     C_R   0.892635 0.647452 0.354772 -0.130138
C109  C     C_R   0.876262 0.628042 0.414613 -0.144821
C110  C     C_R   0.884543 0.772723 0.788183 -0.135032
C111  C     C_R   0.941037 0.674835 0.501059 -0.251375
C112  C     C_R   0.986095 0.671240 0.248620 -0.214922
C113  C     C_R   0.998237 0.685925 0.184747 -0.050711
C114  C     C_R   0.012942 0.765529 0.187679 0.098638
C115  C     C_R   0.011554 0.827095 0.252761 -0.144705
C116  C     C_R   0.999961 0.812417 0.316727 -0.049177
C117  C     C_R   0.988932 0.734593 0.316212 0.044038
C118  C     C_R   0.108015 0.850576 0.144177 0.561190
C119  C     C_R   0.120557 0.859148 0.077039 -0.229547
C120  C     C_R   0.053062 0.806489 0.991743 -0.196139
Cu1   Cu    Cu3+1 0.499980 0.561800 0.561790 0.968459
Cu2   Cu    Cu3+1 0.500020 0.438200 0.438210 0.993899
Cu3   Cu    Cu3+1 0.061810 0.999960 0.561770 0.994916
Cu4   Cu    Cu3+1 0.938190 0.999990 0.438190 0.981584
Cu5   Cu    Cu3+1 0.061800 0.561770 0.999960 0.999013
Cu6   Cu    Cu3+1 0.938200 0.438190 0.000000 0.935719
H1    H     H_    0.880823 0.830863 0.905046 0.137365
H2    H     H_    0.636255 0.715217 0.103372 0.181830
H3    H     H_    0.659103 0.602631 0.125487 0.157485
H4    H     H_    0.397419 0.764770 0.608066 0.134197
H5    H     H_    0.308829 0.623261 0.476119 0.167530
H6    H     H_    0.520660 0.870074 0.483427 0.177424
H7    H     H_    0.250394 0.634562 0.262070 0.182251
H8    H     H_    0.758451 0.853306 0.839006 0.131080
H9    H     H_    0.163871 0.300702 0.039387 0.196135
H10   H     H_    0.171544 0.576594 0.517559 0.137417
H11   H     H_    0.293041 0.599598 0.644074 0.123195
H12   H     H_    0.325004 0.481335 0.636858 0.127975
H13   H     H_    0.113258 0.314993 0.374918 0.147730
H14   H     H_    0.081473 0.434245 0.383948 0.168715
H15   H     H_    0.115923 0.249540 0.488115 0.163706
H16   H     H_    0.393132 0.220667 0.663392 0.186305
H17   H     H_    0.432993 0.123931 0.705040 0.145780
H18   H     H_    0.359532 0.968957 0.600680 0.125465
H19   H     H_    0.195935 0.005392 0.409726 0.148671
H20   H     H_    0.439562 0.582065 0.824051 0.142624
H21   H     H_    0.584422 0.696837 0.877261 0.150333
H22   H     H_    0.877569 0.721335 0.665325 0.124166
H23   H     H_    0.507981 0.391207 0.712193 0.198001
H24   H     H_    0.756982 0.490102 0.621751 0.150581
H25   H     H_    0.958980 0.648590 0.801728 0.109115
H26   H     H_    0.093804 0.672502 0.793333 0.130762
H27   H     H_    0.112726 0.548929 0.722623 0.118621
H28   H     H_    0.858078 0.373954 0.668711 0.150717
H29   H     H_    0.926487 0.657116 0.545327 0.134430
H30   H     H_    0.939264 0.764516 0.817602 0.108178
H31   H     H_    0.104693 0.807142 0.486884 0.149813
H32   H     H_    0.842592 0.609920 0.287648 0.193189
H33   H     H_    0.813366 0.576157 0.393875 0.188946
H34   H     H_    0.976299 0.610749 0.246936 0.149661
H35   H     H_    0.020843 0.887467 0.254322 0.129172
H36   H     H_    0.182737 0.904987 0.089597 0.136579
H37   H     H_    0.064247 0.813389 0.941332 0.135732
H38   H     H_    0.919149 0.704256 0.905954 0.159759
H39   H     H_    0.887078 0.862129 0.629482 0.175643
H40   H     H_    0.896375 0.686222 0.019926 0.192554
H41   H     H_    0.399390 0.595847 0.061218 0.134595
H42   H     H_    0.302785 0.607511 0.944476 0.128352
H43   H     H_    0.156864 0.482819 0.831097 0.118228
H44   H     H_    0.205444 0.332448 0.948668 0.172873
H45   H     H_    0.350423 0.458095 0.063028 0.133243
H46   H     H_    0.139653 0.262450 0.752942 0.157157
H47   H     H_    0.862135 0.240894 0.744410 0.148281
H48   H     H_    0.797603 0.178573 0.551120 0.188087
H49   H     H_    0.655224 0.054927 0.432133 0.143664
H50   H     H_    0.612742 0.625543 0.362648 0.146782
H51   H     H_    0.607321 0.911945 0.421774 0.145572
H52   H     H_    0.700237 0.892549 0.532118 0.197115
H53   H     H_    0.694720 0.849558 0.366269 0.158451
O1    O     O_R   0.409800 0.552190 0.462000 -0.591654
O2    O     O_R   0.947810 0.909820 0.357620 -0.586049
O3    O     O_R   0.962020 0.909790 0.552160 -0.592121
O4    O     O_R   0.857630 0.909810 0.447800 -0.587622
O5    O     O_R   0.052190 0.090130 0.642340 -0.575494
O6    O     O_R   0.947800 0.090160 0.537980 -0.561338
O7    O     O_R   0.142370 0.090140 0.552150 -0.559314
O8    O     O_R   0.037980 0.090170 0.447800 -0.589931
O9    O     O_R   0.052200 0.461970 0.909800 -0.579727
O10   O     O_R   0.947810 0.357610 0.909840 -0.614757
O11   O     O_R   0.142370 0.552160 0.090140 -0.565300
O12   O     O_R   0.409840 0.447810 0.357640 -0.543754
O13   O     O_R   0.037990 0.447800 0.090170 -0.616327
O14   O     O_R   0.052190 0.642350 0.090120 -0.570008
O15   O     O_R   0.947800 0.537990 0.090150 -0.569381
O16   O     O_R   0.962010 0.552150 0.909780 -0.581271
O17   O     O_R   0.857630 0.447800 0.909820 -0.558765
O18   O     O_R   0.590160 0.642370 0.552180 -0.568143
O19   O     O_R   0.590190 0.537990 0.447820 -0.600942
O20   O     O_R   0.590160 0.552190 0.642360 -0.587228
O21   O     O_R   0.590200 0.447810 0.538000 -0.563945
O22   O     O_R   0.409810 0.462010 0.552180 -0.593650
O23   O     O_R   0.409840 0.357630 0.447820 -0.564100
O24   O     O_R   0.052200 0.909800 0.461980 -0.591963
O25   O     O_3   0.699241 0.595561 0.272533 -0.608693
C121  C     C_3   0.623276 0.514704 0.211341 -0.364225
H54   H     H_    0.623799 0.487336 0.149600 0.176077
H55   H     H_    0.561954 0.518233 0.200541 0.155091
H56   H     H_    0.623358 0.469428 0.236233 0.200944
C122  C     C_2   0.519176 0.912626 0.635696 0.354232
H57   H     H_    0.509692 0.920588 0.690944 0.053490
O26   O     O_2   0.573221 0.974853 0.640756 -0.545700
O27   O     O_3   0.434090 0.726317 0.335378 -0.583303
C123  C     C_3   0.498801 0.703009 0.334681 -0.326034
H58   H     H_    0.481342 0.639523 0.331801 0.154278
H59   H     H_    0.564008 0.753826 0.391656 0.165709
H60   H     H_    0.503459 0.696466 0.276094 0.193455
O28   O     O_3   0.245366 0.344104 0.229983 -0.556621
C124  C     C_3   0.208707 0.312323 0.274460 -0.272916
H61   H     H_    0.245479 0.359173 0.344646 0.135378
H62   H     H_    0.212625 0.252895 0.266190 0.187852
H63   H     H_    0.138546 0.294536 0.247780 0.157273
C125  C     C_2   0.021431 0.353962 0.196091 0.347764
H64   H     H_    0.070937 0.421055 0.241424 0.061594
O29   O     O_2   0.968291 0.318956 0.214599 -0.528299
O30   O     O_3   0.865325 0.201891 0.043823 -0.518809
C126  C     C_3   0.829625 0.254209 0.027752 -0.212061
H65   H     H_    0.843154 0.273853 0.982237 0.114128
H66   H     H_    0.853970 0.312940 0.088737 0.186515
H67   H     H_    0.757483 0.217026 0.998577 0.168423
O31   O     O_3   0.876549 0.096566 0.910499 -0.572960
C127  C     C_3   0.827553 0.106807 0.843888 -0.216104
H68   H     H_    0.868187 0.137945 0.819886 0.134947
H69   H     H_    0.795689 0.143978 0.864712 0.162813
H70   H     H_    0.774309 0.042053 0.789250 0.230305
C128  C     C_2   0.036119 0.141896 0.903591 0.377615
H71   H     H_    0.982234 0.076845 0.857241 0.137816
O32   O     O_2   0.102263 0.165061 0.897267 -0.570058
C129  C     C_2   0.679199 0.825383 0.679661 0.480528
H72   H     H_    0.655169 0.852559 0.721142 0.024963
O33   O     O_2   0.648995 0.815212 0.607175 -0.552662
C130  C     C_2   0.412278 0.242621 0.516265 0.333120
H73   H     H_    0.408624 0.180293 0.486546 0.079191
O34   O     O_2   0.483740 0.307537 0.557541 -0.562666
C131  C     C_2   0.234921 0.883945 0.435422 0.348059
H74   H     H_    0.247841 0.841356 0.457922 0.051128
O35   O     O_2   0.190468 0.854601 0.358447 -0.502732
O36   O     O_3   0.718048 0.675067 0.862673 -0.588162
C132  C     C_3   0.753516 0.736316 0.949977 -0.365292
H75   H     H_    0.738527 0.705498 0.987881 0.171222
H76   H     H_    0.731155 0.784845 0.955112 0.177170
H77   H     H_    0.825599 0.772053 0.979780 0.192030
C133  C     C_2   0.376238 0.411137 0.738476 0.339475
H78   H     H_    0.330163 0.429463 0.751544 0.061581
O37   O     O_2   0.354281 0.334730 0.701670 -0.573849
C134  C     C_2   0.727411 0.502688 0.899525 0.342895
H79   H     H_    0.662021 0.473192 0.890971 0.073153
O38   O     O_2   0.789465 0.538960 0.971670 -0.570785
C135  C     C_2   0.999044 0.379973 0.645694 0.339953
H80   H     H_    0.061988 0.392303 0.649310 0.064050
O39   O     O_2   0.939066 0.305808 0.603405 -0.567855
O40   O     O_3   0.093176 0.788353 0.612669 -0.591193
C136  C     C_3   0.064626 0.805761 0.674118 -0.323564
H81   H     H_    0.040360 0.749144 0.682953 0.154407
H82   H     H_    0.014213 0.826034 0.657338 0.166354
H83   H     H_    0.121519 0.860065 0.737035 0.195407
O41   O     O_3   0.174666 0.898449 0.229690 -0.538255
C137  C     C_3   0.228083 0.984708 0.253844 -0.323760
H84   H     H_    0.188895 0.013708 0.230222 0.141072
H85   H     H_    0.277296 0.988974 0.231883 0.170517
H86   H     H_    0.265336 0.023979 0.325114 0.186523
C138  C     C_2   0.859043 0.014486 0.674027 0.252533
H87   H     H_    0.929063 0.057224 0.712855 0.086434
O42   O     O_2   0.825724 0.959094 0.689773 -0.560238
C139  C     C_2   0.647340 0.858068 0.221072 0.365143
H88   H     H_    0.655018 0.911700 0.274337 0.066675
O43   O     O_2   0.625056 0.854686 0.151321 -0.550846

loop_
_geom_bond_atom_site_label_1
_geom_bond_atom_site_label_2
_ccdc_geom_bond_type
C16   H47   S    
C99   H22   S    
C134  O38   D    
C93   C94   A    
C5    C114  S    
C137  H85   S    
C73   C74   A    
C74   H19   S    
C135  O39   D    
C19   C20   A    
C96   O2    A    
C22   H52   S    
C52   O31   S    
C136  H83   S    
C114  C115  A    
C67   C130  S    
C7    C8    A    
C12   H46   S    
C45   C46   A    
C37   H4    S    
C47   O28   S    
C23   C138  S    
C26   C27   A    
Cu3   O5    S    
C54   H9    S    
C124  H63   S    
Cu5   O9    S    
C121  H56   S    
C13   C29   A    
C28   C29   A    
C103  C113  S    
C76   C78   A    
C130  H73   S    
C98   O6    A    
C101  O10   A    
C109  C111  A    
O40   C136  S    
C34   C35   A    
C137  H86   S    
C35   O25   S    
C15   C25   S    
C20   H49   S    
C108  H32   S    
C106  C107  A    
Cu5   O16   S    
C15   C16   A    
C55   O22   A    
C108  C109  A    
C72   H18   S    
C139  H88   S    
C41   C42   A    
C62   H10   S    
C37   C42   A    
C43   H7    S    
C126  H67   S    
C17   C101  S    
C118  C119  A    
Cu1   O20   S    
C29   C88   S    
C120  H37   S    
C122  O26   D    
C118  O41   S    
C13   H39   S    
C2    C110  A    
C35   C36   A    
C34   H3    S    
C4    H40   S    
C8    C9    A    
C65   C67   A    
C51   O30   S    
C102  O13   A    
C30   H53   S    
C97   O4    A    
C92   H27   S    
C103  O15   A    
Cu5   O14   S    
C101  O9    A    
C123  H59   S    
C131  H74   S    
C53   C128  S    
C136  H81   S    
Cu4   O6    S    
C132  H77   S    
C94   H28   S    
C2    H1    S    
C58   H12   S    
C21   H51   S    
Cu5   Cu6   S    
C105  C111  A    
C59   C60   A    
C66   H8    S    
C21   C22   A    
C123  H58   S    
C11   H41   S    
Cu2   O12   S    
C128  O32   D    
C9    H44   S    
C94   C95   A    
C119  H36   S    
C112  C113  A    
C82   H20   S    
C132  H76   S    
C14   C98   S    
Cu1   O1    S    
C54   C56   A    
C121  H55   S    
C63   H15   S    
C80   H23   S    
C83   C89   A    
C129  O33   D    
C93   C135  S    
C70   H16   S    
C74   C75   A    
C51   C52   A    
C47   C48   A    
C63   C69   A    
Cu3   Cu4   S    
C100  O8    A    
C38   C39   A    
C84   C85   A    
C77   C88   A    
Cu4   O4    S    
C122  H57   S    
C3    C120  A    
C76   C82   A    
C91   C92   A    
C55   C68   S    
C78   C79   A    
C72   C73   A    
C136  H82   S    
C57   C62   A    
C10   H45   S    
C85   C86   A    
C99   C110  A    
O31   C127  S    
C81   C82   A    
C3    C4    A    
C67   C68   A    
C13   C24   A    
C83   C134  S    
C60   C61   A    
C130  O34   D    
C32   C34   A    
C115  H35   S    
Cu6   O10   S    
C100  O7    A    
C7    H43   S    
C37   C38   A    
O25   C121  S    
C41   H6    S    
Cu6   O15   S    
C133  O37   D    
C124  H62   S    
C83   C84   A    
C127  H68   S    
C33   O18   A    
C30   C31   A    
C128  H71   S    
C61   C62   A    
C20   C21   A    
C12   C18   A    
C17   C18   A    
C104  O17   A    
C57   H11   S    
C50   C51   A    
C52   C53   A    
Cu2   O19   S    
C119  C120  A    
Cu6   O13   S    
C43   C45   A    
Cu1   O18   S    
Cu1   Cu2   S    
C70   C71   A    
C42   C122  S    
C3    H38   S    
C59   C69   S    
C1    O12   A    
C26   C36   S    
C40   C41   A    
C39   C49   S    
C78   O36   S    
C28   C33   S    
C44   O21   A    
C55   O23   A    
C10   C11   A    
C127  H69   S    
C1    C48   S    
C77   C129  S    
C84   C104  S    
C79   C80   A    
C58   C59   A    
C107  C108  A    
C90   C91   A    
C134  H79   S    
C44   C87   S    
C16   C17   A    
C91   H26   S    
C6    C11   A    
Cu5   O11   S    
C76   H21   S    
C132  H75   S    
C96   O24   A    
C97   O3    A    
C113  C114  A    
C9    C10   A    
C123  H60   S    
C138  O42   D    
C6    H42   S    
C121  H54   S    
C46   C47   A    
C50   C125  S    
C112  H34   S    
O30   C126  S    
C125  O29   D    
C86   C87   A    
C45   C102  S    
C68   C69   A    
C31   C32   A    
C43   C49   A    
C14   C15   A    
C24   C26   A    
C80   C81   A    
C2    C66   A    
C90   C95   A    
C27   H50   S    
Cu4   O8    S    
C137  H84   S    
C90   H25   S    
C61   H14   S    
C53   C54   A    
C6    C7    A    
C30   C36   A    
Cu3   O3    S    
C106  H31   S    
C103  O14   A    
C105  C106  A    
C40   O27   S    
C126  H66   S    
C1    O1    A    
C65   C75   S    
Cu3   O24   S    
C5    C118  A    
Cu2   O21   S    
C38   H5    S    
C32   H2    S    
Cu3   O7    S    
C86   H24   S    
C135  H80   S    
C12   C14   A    
C19   H48   S    
Cu1   O22   S    
Cu4   O2    S    
C50   C56   A    
C64   C65   A    
C85   C95   S    
Cu2   O23   S    
C124  H61   S    
C112  C117  A    
C71   H17   S    
C33   O19   A    
C48   C49   A    
C4    C5    A    
O28   C124  S    
C129  H72   S    
C92   C93   A    
C102  O11   A    
C104  O16   A    
C131  O35   D    
C116  C117  A    
C127  H70   S    
C139  O43   D    
C24   C97   S    
C66   C77   A    
C98   O5    A    
C125  H64   S    
C19   C25   A    
C8    C18   S    
C79   C89   S    
C88   C99   A    
C110  H30   S    
O41   C137  S    
C60   H13   S    
C63   C64   A    
C39   C40   A    
Cu6   O17   S    
C64   C100  S    
C23   C25   A    
C71   C72   A    
O27   C123  S    
C70   C75   A    
C44   O20   A    
C105  O40   S    
C126  H65   S    
C46   C56   S    
C27   C28   A    
C87   C89   A    
C22   C23   A    
C96   C116  S    
C73   C131  S    
C81   C133  S    
C115  C116  A    
C57   C58   A    
C31   C139  S    
C111  H29   S    
C107  C117  S    
C138  H87   S    
O36   C132  S    
C133  H78   S    
C109  H33   S    
