data_mof_unit_39649.cif
_audit_creation_date              2012-12-10T20:31:00-0500
_audit_creation_method            fapswitch 2.2
_symmetry_space_group_name_H-M    P1
_symmetry_Int_Tables_number       1
_space_group_crystal_system       triclinic
_cell_length_a                    15.004485
_cell_length_b                    10.676105
_cell_length_c                    9.850954
_cell_angle_alpha                 89.972159
_cell_angle_beta                  89.815375
_cell_angle_gamma                 90.052736
_cell_volume                      1578.00992593

loop_
_atom_site_label
_atom_site_type_symbol
_atom_type_description
_atom_site_fract_x
_atom_site_fract_y
_atom_site_fract_z
_atom_type_partial_charge
C1    C     C_R   0.502648 0.259907 0.500056 0.884346
C2    C     C_R   0.907609 0.526522 0.379449 0.123285
C3    C     C_R   0.952146 0.436884 0.739087 -0.244618
C4    C     C_R   0.044795 0.435605 0.740712 0.261376
C5    C     C_R   0.092415 0.465609 0.621303 0.049348
C6    C     C_R   0.046320 0.496204 0.500646 0.017291
C7    C     C_R   0.092951 0.527013 0.380349 0.128068
C8    C     C_R   0.046955 0.556744 0.261228 -0.166653
C9    C     C_R   0.954439 0.556140 0.260649 -0.199204
C10   C     C_R   0.184892 0.466198 0.618825 -0.212204
C11   C     C_R   0.230653 0.498127 0.500096 -0.095825
C12   C     C_R   0.326577 0.499553 0.500115 0.897552
C13   C     C_R   0.185045 0.528208 0.381248 -0.233813
C14   C     C_R   0.515384 0.063780 0.623332 0.139426
C15   C     C_R   0.516761 0.128547 0.500694 -0.103271
C16   C     C_R   0.535241 0.064868 0.379311 -0.219156
C17   C     C_R   0.535433 0.935328 0.379294 -0.221895
C18   C     C_R   0.517104 0.871416 0.500649 -0.102536
C19   C     C_R   0.515633 0.936028 0.623331 0.124452
C20   C     C_3   0.450913 0.928482 0.738800 -0.465076
C21   C     C_3   0.450474 0.070455 0.738578 -0.486597
C22   C     C_R   0.458868 0.405781 0.071680 0.192355
C23   C     C_R   0.502843 0.740067 0.499969 0.883880
C24   C     C_R   0.547462 0.586331 0.071738 -0.128585
C25   C     C_R   0.547489 0.586320 0.927650 -0.129137
C26   C     C_R   0.458489 0.406168 0.928956 0.189888
C27   C     C_3   0.361625 0.375413 0.925059 -0.470670
C28   C     C_3   0.362498 0.372939 0.078904 -0.452498
C29   C     C_R   0.673375 0.499840 0.499799 0.886731
C30   C     C_R   0.815377 0.526981 0.380020 -0.252673
C31   C     C_R   0.769178 0.498567 0.499534 -0.070323
C32   C     C_R   0.814408 0.468661 0.619000 -0.232127
C33   C     C_R   0.906587 0.467119 0.620005 0.060579
C34   C     C_R   0.953547 0.496469 0.500038 0.063772
H1    H     H_    0.779691 0.550672 0.287919 0.158202
H2    H     H_    0.543650 0.886341 0.283781 0.166041
H3    H     H_    0.385938 0.886626 0.709021 0.210566
H4    H     H_    0.481519 0.887726 0.831466 0.201767
H5    H     H_    0.385291 0.111142 0.708231 0.204977
H6    H     H_    0.584366 0.657454 0.125975 0.139493
H7    H     H_    0.584413 0.657427 0.872984 0.145755
H8    H     H_    0.321385 0.453867 0.884024 0.230561
H9    H     H_    0.348333 0.282380 0.878968 0.204980
H10   H     H_    0.321353 0.448201 0.125160 0.224078
H11   H     H_    0.777957 0.445761 0.711023 0.162476
H12   H     H_    0.351521 0.277892 0.121959 0.205135
H13   H     H_    0.915712 0.414318 0.831134 0.177084
H14   H     H_    0.221901 0.441029 0.708358 0.192383
H15   H     H_    0.221089 0.553671 0.289729 0.158579
H16   H     H_    0.082538 0.580545 0.168825 0.181133
H17   H     H_    0.919567 0.579236 0.167764 0.154748
H18   H     H_    0.543340 0.113995 0.283795 0.171043
N1    N     N_R   0.499390 0.499140 0.142800 -0.106074
N2    N     N_R   0.499390 0.499180 0.857150 -0.105156
O1    O     O_R   0.500010 0.316790 0.614690 -0.617609
O2    O     O_R   0.500000 0.316760 0.385350 -0.623142
O3    O     O_R   0.367850 0.499990 0.614680 -0.625855
O4    O     O_R   0.367840 0.499950 0.385340 -0.623330
O5    O     O_R   0.500000 0.683240 0.614650 -0.620339
O6    O     O_R   0.499990 0.683210 0.385310 -0.626986
O7    O     O_R   0.632160 0.500050 0.614660 -0.627329
O8    O     O_R   0.632150 0.500010 0.385320 -0.625968
Zn1   Zn    Zn3+2 0.500010 0.500020 0.653130 0.946968
Zn2   Zn    Zn3+2 0.499990 0.499980 0.346870 0.946109
H19   H     H_    0.480623 0.111830 0.831264 0.203578
Br1   Br    Br    0.101633 0.393181 0.909329 -0.599357

loop_
_geom_bond_atom_site_label_1
_geom_bond_atom_site_label_2
_ccdc_geom_bond_type
C7    C13   A    
C23   O5    A    
C11   C12   S    
O2    Zn2   S    
C24   C25   A    
O3    Zn1   S    
C6    C7    A    
C1    C15   S    
C17   H2    S    
C8    H16   S    
C20   H4    S    
C32   H11   S    
O5    Zn1   S    
C19   C20   S    
C21   H5    S    
C2    C30   A    
C30   C31   A    
O6    Zn2   S    
C12   O4    A    
C32   C33   A    
C2    C34   A    
C17   C18   A    
C1    O1    A    
C5    C10   A    
C29   C31   S    
C22   C28   S    
C4    C5    A    
C25   N2    A    
C4    Br1   S    
C20   H3    S    
C11   C13   A    
C27   H8    S    
C28   H12   S    
C26   C27   S    
C23   O6    A    
C30   H1    S    
C13   H15   S    
C12   O3    A    
C26   N2    A    
C14   C21   S    
C3    H13   S    
C24   H6    S    
C1    O2    A    
C33   C34   A    
C22   N1    A    
C10   H14   S    
C5    C6    A    
N1    Zn2   S    
C29   O7    A    
C6    C34   A    
C10   C11   A    
C3    C33   A    
C22   C26   A    
C15   C16   A    
C27   H9    S    
C7    C8    A    
C20   C21   S    
C16   H18   S    
C18   C19   A    
N2    Zn1   S    
C25   H7    S    
C27   C28   S    
O7    Zn1   S    
C14   C15   A    
C16   C17   A    
O8    Zn2   S    
O4    Zn2   S    
C21   H19   S    
C24   N1    A    
C29   O8    A    
C2    C9    A    
C14   C19   A    
C28   H10   S    
C31   C32   A    
C3    C4    A    
C18   C23   S    
O1    Zn1   S    
C8    C9    A    
C9    H17   S    
