data_mof_unit_49295.cif
_audit_creation_date              2012-12-11T15:29:38-0500
_audit_creation_method            fapswitch 2.2
_symmetry_space_group_name_H-M    P1
_symmetry_Int_Tables_number       1
_space_group_crystal_system       triclinic
_cell_length_a                    21.601158
_cell_length_b                    7.273981
_cell_length_c                    14.980768
_cell_angle_alpha                 90.104969
_cell_angle_beta                  74.301784
_cell_angle_gamma                 89.989338
_cell_volume                      2266.07085767

loop_
_atom_site_label
_atom_site_type_symbol
_atom_type_description
_atom_site_fract_x
_atom_site_fract_y
_atom_site_fract_z
_atom_type_partial_charge
O1    O     O_R   0.464160 0.506670 0.130070 -0.536241
O2    O     O_R   0.535840 0.006670 0.869930 -0.528990
O3    O     O_R   0.589710 0.179080 0.006710 -0.527763
O4    O     O_R   0.410290 0.679080 0.993290 -0.531831
C1    C     C_R   0.614025 0.344459 0.010237 0.714163
C2    C     C_R   0.385278 0.844187 0.992168 0.720947
O5    O     O_R   0.467940 0.177220 0.138010 -0.536597
O6    O     O_R   0.532060 0.677220 0.861990 -0.550137
O7    O     O_R   0.413200 0.002810 0.002170 -0.551462
O8    O     O_R   0.586800 0.502810 0.997830 -0.553328
C3    C     C_R   0.457571 0.346178 0.174377 0.717909
C4    C     C_R   0.543328 0.845506 0.825632 0.725662
O9    O     O_3   0.482180 0.337850 0.955280 -0.384269
O10   O     O_3   0.517820 0.837850 0.044720 -0.382612
V1    V     V_3+5 0.503310 0.064600 0.008300 1.447134
V2    V     V_3+5 0.496690 0.564600 0.991700 1.418873
C5    C     C_R   0.568594 0.852564 0.723661 -0.045184
C6    C     C_R   0.433588 0.356466 0.276359 -0.044674
C7    C     C_R   0.923610 0.882013 0.275776 -0.106141
C8    C     C_R   0.080359 0.374696 0.725237 -0.078425
C9    C     C_R   0.554670 0.833904 0.568660 -0.204968
C10   C     C_R   0.448875 0.342721 0.430843 -0.207629
C11   C     C_R   0.528238 0.825434 0.665270 0.202079
C12   C     C_R   0.474310 0.327538 0.334082 0.207129
C13   C     C_R   0.634492 0.880571 0.684744 -0.292461
C14   C     C_R   0.368572 0.394508 0.316025 -0.294895
C15   C     C_R   0.663202 0.862253 0.588054 0.080553
C16   C     C_R   0.340476 0.380008 0.412834 0.080740
C17   C     C_R   0.621341 0.853949 0.530154 0.118970
C18   C     C_R   0.382604 0.370849 0.470121 0.120329
C19   C     C_R   0.731747 0.859953 0.546845 -0.022852
C20   C     C_R   0.272188 0.380862 0.454406 -0.009910
C21   C     C_R   0.756477 0.874166 0.448347 0.059585
C22   C     C_R   0.247669 0.398891 0.552738 0.058254
C23   C     C_R   0.711857 0.894686 0.395310 -0.190460
C24   C     C_R   0.292688 0.422591 0.604997 -0.193131
C25   C     C_R   0.646094 0.873944 0.434595 -0.202497
C26   C     C_R   0.358389 0.397526 0.565481 -0.196635
C27   C     C_R   0.776453 0.834531 0.599895 -0.051171
C28   C     C_R   0.227643 0.355208 0.401490 -0.070404
C29   C     C_R   0.841945 0.876680 0.561995 -0.019860
C30   C     C_R   0.162852 0.403511 0.438607 -0.033578
C31   C     C_R   0.864199 0.919241 0.466697 0.007206
C32   C     C_R   0.138806 0.434470 0.535133 0.025969
C33   C     C_R   0.824967 0.878700 0.407419 -0.016137
C34   C     C_R   0.179087 0.398979 0.594250 -0.016660
C35   C     C_R   0.926761 0.989365 0.428692 -0.063489
C36   C     C_R   0.073047 0.475501 0.574286 -0.062618
C37   C     C_R   0.957371 0.963141 0.334393 -0.083805
C38   C     C_R   0.043352 0.424693 0.665547 -0.124092
C39   C     C_R   0.856635 0.845991 0.311375 -0.032006
C40   C     C_R   0.148419 0.362487 0.690570 -0.037492
H1    H     H_    0.614072 0.881683 0.390096 0.130579
H2    H     H_    0.390726 0.406014 0.609487 0.124298
H3    H     H_    0.523263 0.823404 0.523357 0.119120
H4    H     H_    0.480655 0.331196 0.475535 0.118169
H5    H     H_    0.662083 0.919666 0.731667 0.165667
H6    H     H_    0.340812 0.435526 0.269535 0.153733
H7    H     H_    0.726304 0.933392 0.323293 0.152859
H8    H     H_    0.278439 0.464961 0.676629 0.146284
C41   C     C_3   0.225040 0.722499 0.927603 -0.402151
C42   C     C_3   0.775258 0.217280 0.070865 -0.406544
H9    H     H_    0.202380 0.584866 0.939669 0.231323
H10   H     H_    0.798463 0.080838 0.055281 0.219047
H11   H     H_    0.222166 0.765839 0.857608 0.149498
H12   H     H_    0.778700 0.254137 0.141515 0.151735
C43   C     C_3   0.297053 0.704846 0.927390 -0.386226
C44   C     C_3   0.702944 0.200723 0.072365 -0.381472
H13   H     H_    0.327951 0.726892 0.855642 0.159445
H14   H     H_    0.672651 0.218809 0.144823 0.161942
H15   H     H_    0.307247 0.562306 0.945371 0.163589
H16   H     H_    0.692521 0.059649 0.052492 0.163651
C45   C     C_3   0.196857 0.796601 0.099329 0.352378
C46   C     C_3   0.801666 0.308930 0.901193 0.355045
C47   C     C_3   0.223204 0.053995 0.971271 0.030898
C48   C     C_3   0.775395 0.552379 0.035597 0.045949
C49   C     C_3   0.188029 0.863840 0.002420 0.047854
C50   C     C_3   0.811277 0.365160 0.999321 0.035918
H17   H     H_    0.217092 0.085648 0.901686 0.153396
H18   H     H_    0.781482 0.576742 0.105823 0.152948
C51   C     C_3   0.314167 0.848528 0.994492 0.029312
C52   C     C_3   0.684897 0.349059 0.008522 0.031690
C53   C     C_3   0.271997 0.808585 0.096893 0.369750
C54   C     C_3   0.726366 0.316319 0.905434 0.362059
C55   C     C_3   0.296916 0.036884 0.958385 -0.413196
C56   C     C_3   0.701648 0.534762 0.048302 -0.414756
H19   H     H_    0.322008 0.048739 0.883122 0.147314
H20   H     H_    0.676653 0.541047 0.123794 0.131450
H21   H     H_    0.316613 0.154422 0.989130 0.156326
H22   H     H_    0.681412 0.654880 0.020485 0.157927
O11   O     O_R   0.913210 0.208550 0.002110 -0.546896
O12   O     O_R   0.086790 0.708550 0.997890 -0.548784
O13   O     O_R   0.032060 0.539960 0.861980 -0.548301
O14   O     O_R   0.967940 0.039960 0.138020 -0.511375
C57   C     C_R   0.048049 0.373737 0.826520 0.811128
C58   C     C_R   0.954899 0.874601 0.174330 0.806350
O15   O     O_R   0.910290 0.538020 0.993280 -0.532424
O16   O     O_R   0.089710 0.038020 0.006720 -0.526315
O17   O     O_R   0.964160 0.712340 0.130090 -0.544321
O18   O     O_R   0.035840 0.212340 0.869910 -0.531820
C59   C     C_R   0.883541 0.370652 0.998417 0.691146
C60   C     C_R   0.116232 0.870366 0.002167 0.690062
O19   O     O_3   0.017820 0.379210 0.044690 -0.374330
O20   O     O_3   0.982180 0.879210 0.955310 -0.385970
V3    V     V_3+5 0.996690 0.652500 0.991710 1.511272
V4    V     V_3+5 0.003310 0.152500 0.008290 1.567274
C61   C     C_2   0.956744 0.111376 0.485193 0.381925
H23   H     H_    0.007889 0.106953 0.477850 0.041796
O21   O     O_2   0.923634 0.218777 0.540779 -0.532098
C62   C     C_2   0.035529 0.578843 0.521673 0.342705
H24   H     H_    0.988872 0.529769 0.518299 0.065932
O22   O     O_2   0.056908 0.721051 0.481920 -0.531069
N1    N     N_3   0.173635 0.605194 0.113963 -0.677754
H25   H     H_    0.179083 0.556600 0.176596 0.309415
H26   H     H_    0.123907 0.601614 0.124171 0.273830
N2    N     N_3   0.826407 0.120271 0.879421 -0.655390
H27   H     H_    0.823924 0.085883 0.813010 0.317943
H28   H     H_    0.875404 0.114729 0.874439 0.293759
N3    N     N_3   0.294958 0.637305 0.130215 -0.662426
H29   H     H_    0.286425 0.520469 0.095020 0.245941
H30   H     H_    0.273226 0.621450 0.201145 0.266447
N4    N     N_3   0.704733 0.144778 0.870046 -0.658892
H31   H     H_    0.715550 0.026923 0.902361 0.258792
H32   H     H_    0.725373 0.134048 0.798536 0.266218
N5    N     N_3   0.196244 0.208206 0.033487 -0.612812
H33   H     H_    0.230384 0.311959 0.027293 0.239764
H34   H     H_    0.160292 0.273096 0.010625 0.288522
N6    N     N_3   0.801765 0.712172 0.977397 -0.624053
H35   H     H_    0.767194 0.814964 0.983959 0.236824
H36   H     H_    0.837383 0.775047 0.001802 0.285888
C63   C     C_2   0.822248 0.761260 0.249083 0.259132
H37   H     H_    0.791249 0.643377 0.271941 0.060512
O23   O     O_2   0.825524 0.830031 0.173803 -0.575117
C64   C     C_2   0.184486 0.285117 0.752678 0.245015
H38   H     H_    0.219858 0.177613 0.727951 0.069719
O24   O     O_2   0.176522 0.345594 0.830896 -0.577492
N7    N     N_3   0.156473 0.905302 0.176256 -0.647490
H39   H     H_    0.169218 0.043114 0.173131 0.324026
H40   H     H_    0.162708 0.855528 0.238746 0.260135
N8    N     N_3   0.839677 0.429211 0.827498 -0.628478
H41   H     H_    0.825147 0.565449 0.835073 0.315407
H42   H     H_    0.832884 0.387269 0.763940 0.266759
N9    N     N_3   0.282556 0.954690 0.159132 -0.679226
H43   H     H_    0.328710 0.943906 0.168461 0.234828
H44   H     H_    0.279616 0.083788 0.131346 0.269504
N10   N     N_3   0.713504 0.464422 0.846221 -0.684281
H45   H     H_    0.668361 0.447139 0.834115 0.239868
H46   H     H_    0.712968 0.592167 0.877302 0.269139
C65   C     C_2   0.025446 0.018365 0.299225 0.350931
H47   H     H_    0.060666 0.957479 0.329770 0.097109
O25   O     O_2   0.041659 0.140417 0.241874 -0.494645
C66   C     C_2   0.973035 0.404364 0.695824 0.430088
H48   H     H_    0.941749 0.510642 0.682027 0.064834
O26   O     O_2   0.950061 0.260679 0.731821 -0.508013
C67   C     C_2   0.890584 0.840384 0.614370 0.486217
H49   H     H_    0.937512 0.792431 0.577452 0.015421
O27   O     O_2   0.881006 0.874172 0.696529 -0.494790
C68   C     C_2   0.117818 0.373226 0.380931 0.542106
H50   H     H_    0.093899 0.242667 0.384064 0.001731
O28   O     O_2   0.108403 0.493062 0.329322 -0.509346
N11   N     N_3   0.460380 0.798283 0.704394 -0.699476
H51   H     H_    0.436806 0.792237 0.651997 0.228096
H52   H     H_    0.454173 0.669647 0.736605 0.217568
N12   N     N_3   0.541409 0.289467 0.294098 -0.690030
H53   H     H_    0.564250 0.264462 0.346164 0.227797
H54   H     H_    0.562435 0.407887 0.259319 0.202637
C69   C     C_2   0.757550 0.728505 0.686083 0.348285
H55   H     H_    0.734385 0.596514 0.685856 0.081914
O29   O     O_2   0.763424 0.794130 0.758156 -0.533574
C70   C     C_2   0.245763 0.246430 0.314876 0.287733
H56   H     H_    0.278526 0.131534 0.309563 0.098189
O30   O     O_2   0.226723 0.289485 0.248321 -0.548550

loop_
_geom_bond_atom_site_label_1
_geom_bond_atom_site_label_2
_ccdc_geom_bond_type
C36   C62   S    
O12   V3    S    
C3    C6    S    
C9    C17   A    
C67   O27   D    
C21   C33   A    
O1    C3    A    
O2    C4    A    
N6    H35   S    
C2    O7    A    
C28   C70   S    
N11   H51   S    
C27   C29   A    
C30   C68   S    
C36   C38   A    
O5    C3    A    
N7    H40   S    
C5    C11   A    
C13   H5    S    
C6    C12   A    
N12   H53   S    
C23   C25   A    
C48   C50   S    
N10   H45   S    
C65   O25   D    
C56   H20   S    
C15   C17   A    
C70   H56   S    
C33   C39   A    
C54   N4    S    
N9    H43   S    
C58   O17   A    
C34   C40   A    
C45   N1    S    
N2    H27   S    
C18   C26   A    
C23   H7    S    
C53   N3    S    
C41   H9    S    
C7    C37   A    
C62   H24   S    
C42   H10   S    
N11   H52   S    
C47   C55   S    
C41   C49   S    
C6    C14   A    
C4    C5    S    
C8    C38   A    
C61   H23   S    
C19   C21   A    
C22   C34   A    
C31   C35   A    
C29   C31   A    
C43   H15   S    
O12   C60   A    
O3    C1    A    
C25   H1    S    
C55   H19   S    
O13   C57   A    
C2    C51   S    
C50   C59   S    
C68   O28   D    
C61   O21   D    
O11   V4    S    
C49   C60   S    
C12   N12   S    
C30   C32   A    
O11   C59   A    
O13   V3    S    
O20   V3    S    
C51   C53   S    
C32   C34   A    
C51   C55   S    
N10   H46   S    
N3    H30   S    
O17   V3    S    
C42   H12   S    
C15   C19   A    
C16   C20   A    
N8    H41   S    
C69   O29   D    
C56   H22   S    
C14   H6    S    
C69   H55   S    
C9    H3    S    
C39   C63   S    
C57   O18   A    
C64   O24   D    
O5    V1    S    
C24   H8    S    
O16   C60   A    
C46   N8    S    
N1    H26   S    
C44   H16   S    
C47   N5    S    
C20   C22   A    
O4    V2    S    
C7    C39   A    
C31   C33   A    
C41   C43   S    
C26   H2    S    
C29   C67   S    
O6    C4    A    
C46   N2    S    
O1    V2    S    
O14   C58   A    
O2    V1    S    
C47   C49   S    
O4    C2    A    
C8    C57   S    
C66   O26   D    
C43   C51   S    
C52   C54   S    
C9    C11   A    
C68   H50   S    
C48   N6    S    
C10   C12   A    
C13   C15   A    
N4    H32   S    
C63   H37   S    
C48   C56   S    
O3    V1    S    
N5    H34   S    
N1    H25   S    
N9    H44   S    
O14   V4    S    
C55   H21   S    
C10   C18   A    
C14   C16   A    
O15   V3    S    
C42   C50   S    
C48   H18   S    
C46   C54   S    
C28   C30   A    
C63   O23   D    
N6    H36   S    
C10   H4    S    
N3    H29   S    
C64   H38   S    
N8    H42   S    
C37   C65   S    
O18   V4    S    
C35   C37   A    
N7    H39   S    
C35   C61   S    
O16   V4    S    
C42   C44   S    
C5    C13   A    
N12   H54   S    
O7    V1    S    
C44   C52   S    
C1    O8    A    
C8    C40   A    
C52   C56   S    
C65   H47   S    
C24   C26   A    
C53   N9    S    
C1    C52   S    
N5    H33   S    
C45   N7    S    
C16   C18   A    
C21   C23   A    
N2    H28   S    
O19   V4    S    
C22   C24   A    
C20   C28   A    
C41   H11   S    
C27   C69   S    
C62   O22   D    
C38   C66   S    
C40   C64   S    
C66   H48   S    
O6    V2    S    
C46   C50   S    
O9    V2    S    
C17   C25   A    
C67   H49   S    
C19   C27   A    
C44   H14   S    
C45   C49   S    
O10   V1    S    
O8    V2    S    
C54   N10   S    
C70   O30   D    
C43   H13   S    
N4    H31   S    
C47   H17   S    
C45   C53   S    
O15   C59   A    
C7    C58   S    
C32   C36   A    
C11   N11   S    
