data_mof_unit_10133.cif
_audit_creation_date              2012-12-10T21:07:43-0500
_audit_creation_method            fapswitch 2.2
_symmetry_space_group_name_H-M    P1
_symmetry_Int_Tables_number       1
_space_group_crystal_system       triclinic
_cell_length_a                    8.598938
_cell_length_b                    17.578927
_cell_length_c                    16.744414
_cell_angle_alpha                 90.101214
_cell_angle_beta                  98.790856
_cell_angle_gamma                 90.114098
_cell_volume                      2501.34367079

loop_
_atom_site_label
_atom_site_type_symbol
_atom_type_description
_atom_site_fract_x
_atom_site_fract_y
_atom_site_fract_z
_atom_type_partial_charge
C1    C     C_R   0.500842 0.353165 0.500060 0.867672
C2    C     C_R   0.501176 0.646830 0.500113 0.867877
C3    C     C_1   0.542031 0.966291 0.503646 -0.068457
C4    C     C_1   0.541608 0.033782 0.503631 -0.068991
C5    C     C_R   0.404043 0.448271 0.824356 0.431356
C6    C     C_R   0.589889 0.554554 0.175356 0.433504
C7    C     C_R   0.403042 0.451535 0.739943 -0.098123
C8    C     C_R   0.582744 0.554372 0.259104 -0.100731
C9    C     C_R   0.597308 0.547913 0.756024 -0.002925
C10   C     C_R   0.419549 0.445372 0.245138 -0.019312
C11   C     C_R   0.599182 0.548320 0.840324 -0.335325
C12   C     C_R   0.419333 0.444532 0.160972 -0.355022
C13   C     C_R   0.501462 0.498567 0.875675 0.026881
C14   C     C_R   0.503953 0.499713 0.124776 0.033752
C15   C     C_1   0.501941 0.499284 0.963619 0.001848
C16   C     C_1   0.502589 0.499560 0.036776 -0.002302
C17   C     C_R   0.200539 0.500030 0.478939 0.985285
C18   C     C_R   0.799461 0.500047 0.521046 0.983719
C19   C     C_2   0.035679 0.500150 0.467435 -0.393277
C20   C     C_2   0.964321 0.500028 0.532514 -0.386495
C21   C     C_R   0.529747 0.847643 0.575126 -0.163957
C22   C     C_R   0.529728 0.152275 0.429997 -0.165100
C23   C     C_R   0.516698 0.769043 0.574142 -0.201218
C24   C     C_R   0.516737 0.230854 0.428722 -0.204707
C25   C     C_R   0.510246 0.729322 0.500909 -0.036766
C26   C     C_R   0.509250 0.270670 0.500754 -0.034743
C27   C     C_R   0.517170 0.768914 0.428801 -0.201209
C28   C     C_R   0.514537 0.231177 0.573916 -0.198904
C29   C     C_R   0.530235 0.847514 0.430031 -0.162116
C30   C     C_R   0.527435 0.152614 0.574958 -0.162461
C31   C     C_R   0.536534 0.886275 0.503135 0.164379
C32   C     C_R   0.535261 0.113768 0.503063 0.165616
H1    H     H_    0.973497 0.500307 0.405747 0.174971
H2    H     H_    0.026526 0.499852 0.594203 0.182516
H3    H     H_    0.533477 0.878259 0.631638 0.134311
H4    H     H_    0.534587 0.121580 0.374235 0.133027
H5    H     H_    0.511947 0.739543 0.630462 0.157536
H6    H     H_    0.513060 0.260271 0.371676 0.154175
H7    H     H_    0.512791 0.739316 0.371698 0.159701
H8    H     H_    0.509214 0.260839 0.630149 0.152614
H9    H     H_    0.534350 0.878031 0.374196 0.135883
H10   H     H_    0.530485 0.122222 0.631451 0.133228
H11   H     H_    0.325332 0.414453 0.700431 0.143153
H12   H     H_    0.645334 0.597542 0.297528 0.142743
H13   H     H_    0.673636 0.586258 0.729525 0.139390
H14   H     H_    0.354006 0.402519 0.272307 0.140271
H15   H     H_    0.676576 0.587330 0.877651 0.167980
H16   H     H_    0.352979 0.401115 0.124382 0.164806
N1    N     N_R   0.500040 0.500030 0.707230 -0.112046
N2    N     N_R   0.499960 0.499970 0.292770 -0.110457
O1    O     O_R   0.500000 0.389130 0.566570 -0.627595
O2    O     O_R   0.500000 0.610870 0.433430 -0.629650
O3    O     O_R   0.499990 0.389100 0.433480 -0.626952
O4    O     O_R   0.500010 0.610900 0.566520 -0.624404
O5    O     O_R   0.271750 0.500010 0.550980 -0.613862
O6    O     O_R   0.728250 0.499990 0.449020 -0.615702
O7    O     O_R   0.271740 0.499980 0.417890 -0.624614
O8    O     O_R   0.728260 0.500020 0.582110 -0.623087
Zn1   Zn    Zn3+2 0.500010 0.500020 0.588860 0.942251
Zn2   Zn    Zn3+2 0.499990 0.499980 0.411140 0.931811
O9    O     O_3   0.302200 0.399153 0.855055 -0.650313
C33   C     C_3   0.383094 0.331841 0.882751 0.080206
H17   H     H_    0.323700 0.307991 0.931623 0.169117
H18   H     H_    0.508160 0.342062 0.910134 0.122786
C34   C     C_3   0.374248 0.272966 0.814492 -0.369032
H19   H     H_    0.249379 0.264049 0.787186 0.236463
H20   H     H_    0.440056 0.294119 0.766894 0.204379
C35   C     C_3   0.444941 0.197066 0.845422 -0.954723
H21   H     H_    0.570420 0.204604 0.872194 0.264674
H22   H     H_    0.438141 0.156118 0.794415 0.262915
H23   H     H_    0.378892 0.173235 0.891721 0.264383
O10   O     O_3   0.673653 0.611174 0.143396 -0.649746
C36   C     C_3   0.824889 0.583830 0.134461 0.080434
H24   H     H_    0.862560 0.614333 0.082569 0.173698
H25   H     H_    0.826329 0.521936 0.119342 0.121083
C37   C     C_3   0.943761 0.600945 0.210399 -0.387323
H26   H     H_    0.941494 0.662689 0.224569 0.237335
H27   H     H_    0.911699 0.568694 0.262486 0.208000
C38   C     C_3   0.110144 0.578520 0.198826 -0.899795
H28   H     H_    0.114575 0.516801 0.185176 0.262989
H29   H     H_    0.192974 0.590598 0.255087 0.277026
H30   H     H_    0.148047 0.611415 0.148562 0.263695

loop_
_geom_bond_atom_site_label_1
_geom_bond_atom_site_label_2
_ccdc_geom_bond_type
C9    H13   S    
O5    Zn1   S    
C27   C29   A    
C36   H24   S    
C11   H15   S    
C19   C20   D    
C37   C38   S    
C12   H16   S    
C6    O10   S    
C21   C31   A    
C22   C32   A    
C24   C26   A    
C28   H8    S    
C15   C16   T    
C1    O3    A    
C33   H18   S    
O2    Zn2   S    
C18   O8    A    
C27   H7    S    
C35   H21   S    
C34   H20   S    
C10   H14   S    
C24   H6    S    
C7    H11   S    
C17   O5    A    
C18   C20   S    
C18   O6    A    
C20   H2    S    
C36   H25   S    
C10   C12   A    
O3    Zn2   S    
O4    Zn1   S    
C21   C23   A    
C9    N1    A    
C37   H26   S    
C7    N1    A    
C19   H1    S    
C5    C7    A    
O7    Zn2   S    
C6    C8    A    
O8    Zn1   S    
C23   H5    S    
O6    Zn2   S    
C33   H17   S    
C6    C14   A    
C9    C11   A    
C34   C35   S    
C5    O9    S    
C3    C31   S    
C1    O1    A    
C4    C32   S    
C2    O2    A    
C12   C14   A    
C13   C15   S    
C2    O4    A    
C1    C26   S    
C36   C37   S    
C14   C16   S    
O1    Zn1   S    
C3    C4    T    
C10   N2    A    
C8    N2    A    
C38   H29   S    
C33   C34   S    
C29   H9    S    
C5    C13   A    
C8    H12   S    
C37   H27   S    
O10   C36   S    
C38   H30   S    
C21   H3    S    
C25   C27   A    
C22   H4    S    
C26   C28   A    
N1    Zn1   S    
N2    Zn2   S    
C28   C30   A    
C29   C31   A    
C30   C32   A    
C11   C13   A    
C35   H23   S    
C17   C19   S    
C2    C25   S    
C22   C24   A    
C23   C25   A    
O9    C33   S    
C38   H28   S    
C35   H22   S    
C34   H19   S    
C30   H10   S    
C17   O7    A    
