data_mof_unit_59643.cif
_audit_creation_date              2012-12-10T20:41:54-0500
_audit_creation_method            fapswitch 2.2
_symmetry_space_group_name_H-M    P1
_symmetry_Int_Tables_number       1
_space_group_crystal_system       triclinic
_cell_length_a                    15.044117
_cell_length_b                    15.222147
_cell_length_c                    9.875308
_cell_angle_alpha                 90.915037
_cell_angle_beta                  89.323083
_cell_angle_gamma                 90.161913
_cell_volume                      2261.02860008

loop_
_atom_site_label
_atom_site_type_symbol
_atom_type_description
_atom_site_fract_x
_atom_site_fract_y
_atom_site_fract_z
_atom_type_partial_charge
C1    C     C_R   0.378369 0.881582 0.499877 0.884160
C2    C     C_R   0.928484 0.468525 0.071948 0.187697
C3    C     C_R   0.575612 0.018690 0.070731 0.139335
C4    C     C_R   0.075618 0.518665 0.070731 0.139300
C5    C     C_R   0.575041 0.018414 0.926219 -0.144619
C6    C     C_R   0.075049 0.518383 0.926218 -0.144709
C7    C     C_R   0.428620 0.968163 0.929638 0.225803
C8    C     C_R   0.928603 0.468199 0.929641 0.225717
C9    C     C_3   0.335870 0.001472 0.927485 -0.524429
C10   C     C_3   0.835874 0.501569 0.927510 -0.524390
C11   C     C_3   0.335631 0.001423 0.081109 -0.499779
C12   C     C_R   0.381907 0.122039 0.500831 0.870016
C13   C     C_3   0.835633 0.501483 0.081133 -0.499704
C14   C     C_R   0.617938 0.122038 0.500316 0.864292
C15   C     C_R   0.622086 0.882385 0.498800 0.880737
C16   C     C_R   0.117938 0.622038 0.500317 0.864310
C17   C     C_R   0.122086 0.382385 0.498800 0.880850
C18   C     C_R   0.296021 0.235649 0.621643 0.029879
C19   C     C_R   0.270227 0.794145 0.622740 0.015469
C20   C     C_R   0.796101 0.735726 0.621609 0.029895
C21   C     C_R   0.770183 0.294188 0.622734 0.015506
C22   C     C_R   0.326161 0.197633 0.500671 -0.071318
C23   C     C_R   0.878369 0.381581 0.499877 0.884212
C24   C     C_R   0.303089 0.825240 0.500334 -0.083178
C25   C     C_R   0.826151 0.697626 0.500647 -0.071300
C26   C     C_R   0.803087 0.325241 0.500329 -0.083197
C27   C     C_R   0.303460 0.236126 0.377021 -0.219385
C28   C     C_R   0.259794 0.803872 0.379227 -0.224865
C29   C     C_R   0.803370 0.736043 0.376976 -0.219370
C30   C     C_R   0.759828 0.303839 0.379205 -0.224884
C31   C     C_R   0.738609 0.800592 0.375387 -0.229589
C32   C     C_R   0.694638 0.239676 0.379693 -0.192046
C33   C     C_R   0.238692 0.300671 0.375428 -0.229614
C34   C     C_R   0.881902 0.622034 0.500829 0.870025
C35   C     C_R   0.194603 0.739709 0.379716 -0.192055
C36   C     C_R   0.696789 0.825831 0.497311 -0.100027
C37   C     C_R   0.673347 0.197777 0.501442 -0.141926
C38   C     C_R   0.196789 0.325828 0.497326 -0.099980
C39   C     C_R   0.173349 0.697775 0.501452 -0.141921
C40   C     C_R   0.730595 0.797371 0.619127 -0.007579
C41   C     C_R   0.704508 0.231953 0.623835 0.016668
C42   C     C_R   0.230510 0.297289 0.619150 -0.007537
C43   C     C_R   0.204550 0.731912 0.623847 0.016745
C44   C     C_3   0.688618 0.765671 0.748366 0.431688
C45   C     C_3   0.261935 0.197053 0.750890 -0.568588
C46   C     C_3   0.745675 0.186533 0.742721 0.379722
C47   C     C_3   0.188422 0.265477 0.748230 0.431711
C48   C     C_3   0.245773 0.686443 0.742643 0.379766
C49   C     C_3   0.579235 0.680052 0.627556 -0.267478
C50   C     C_3   0.629830 0.249881 0.879486 -0.276158
C51   C     C_3   0.079193 0.179897 0.627038 -0.267689
C52   C     C_3   0.130065 0.749820 0.879658 -0.276135
C53   C     C_3   0.318655 0.755551 0.738952 -0.491561
C54   C     C_3   0.762119 0.697231 0.750995 -0.568554
C55   C     C_3   0.818558 0.255640 0.739035 -0.491535
C56   C     C_R   0.428496 0.968500 0.071945 0.187753
H1    H     H_    0.330991 0.212855 0.281210 0.163404
H2    H     H_    0.666023 0.219001 0.284151 0.186553
H3    H     H_    0.217705 0.325945 0.279049 0.160985
H4    H     H_    0.165958 0.719062 0.284182 0.186468
H5    H     H_    0.695156 0.815519 0.831231 0.079330
H6    H     H_    0.770438 0.119671 0.715611 0.076103
H7    H     H_    0.194868 0.315260 0.831201 0.079392
H8    H     H_    0.270525 0.619591 0.715440 0.076079
H9    H     H_    0.308846 0.209402 0.835216 0.163128
H10   H     H_    0.384664 0.728521 0.708684 0.182835
H11   H     H_    0.809111 0.709617 0.835209 0.163148
H12   H     H_    0.280229 0.831609 0.283522 0.166542
H13   H     H_    0.884582 0.228600 0.708862 0.183055
H14   H     H_    0.238855 0.128060 0.738544 0.211770
H15   H     H_    0.319418 0.800058 0.829130 0.217620
H16   H     H_    0.738998 0.628242 0.738797 0.211777
H17   H     H_    0.819277 0.300184 0.829172 0.217608
H18   H     H_    0.634995 0.032776 0.869494 0.183145
H19   H     H_    0.135009 0.532717 0.869492 0.183228
H20   H     H_    0.333811 0.068095 0.886443 0.217373
H21   H     H_    0.288650 0.953568 0.881837 0.198145
H22   H     H_    0.833865 0.568210 0.886523 0.217353
H23   H     H_    0.830829 0.712708 0.281158 0.163401
H24   H     H_    0.788617 0.453711 0.881832 0.198160
H25   H     H_    0.636787 0.647506 0.576839 0.154406
H26   H     H_    0.544348 0.721618 0.553968 0.159081
H27   H     H_    0.532270 0.627391 0.657755 0.166094
H28   H     H_    0.574864 0.233016 0.809388 0.181500
H29   H     H_    0.655146 0.317418 0.861444 0.154762
H30   H     H_    0.602044 0.248819 0.984000 0.176589
H31   H     H_    0.136815 0.147454 0.576352 0.154478
H32   H     H_    0.044306 0.221472 0.553456 0.159124
H33   H     H_    0.032273 0.127160 0.657083 0.166151
H34   H     H_    0.780293 0.331546 0.283492 0.166590
H35   H     H_    0.075036 0.733089 0.809606 0.181455
H36   H     H_    0.155458 0.817340 0.861705 0.154718
H37   H     H_    0.102339 0.748715 0.984208 0.176583
H38   H     H_    0.677957 0.980058 0.183631 0.184471
H39   H     H_    0.705742 0.058315 0.073647 0.187205
H40   H     H_    0.177954 0.480015 0.183633 0.184442
H41   H     H_    0.205756 0.558265 0.073648 0.187271
H42   H     H_    0.331013 0.068289 0.127555 0.212973
H43   H     H_    0.289254 0.952144 0.124445 0.196978
H44   H     H_    0.831040 0.568340 0.127614 0.212964
H45   H     H_    0.789238 0.452210 0.124444 0.196998
H46   H     H_    0.717557 0.825800 0.279002 0.161065
N1    N     N_R   0.499140 0.000000 0.142800 -0.117483
N2    N     N_R   0.999140 0.500000 0.142800 -0.117464
N3    N     N_R   0.499160 0.000000 0.857150 -0.121766
N4    N     N_R   0.999160 0.500000 0.857150 -0.121769
N5    N     N_3   0.655981 0.038459 0.141409 -0.404909
N6    N     N_3   0.155990 0.538419 0.141410 -0.404907
O1    O     O_R   0.408400 0.908380 0.614690 -0.603121
O2    O     O_R   0.591610 0.908390 0.614650 -0.601409
O3    O     O_R   0.091610 0.591610 0.614650 -0.626405
O4    O     O_R   0.091610 0.408390 0.614650 -0.601478
O5    O     O_R   0.591590 0.091600 0.385310 -0.597861
O6    O     O_R   0.591590 0.908400 0.385310 -0.632485
O7    O     O_R   0.091590 0.591600 0.385310 -0.597862
O8    O     O_R   0.091590 0.408400 0.385310 -0.632501
O9    O     O_3   0.600354 0.730742 0.744523 -0.580412
O10   O     O_3   0.698550 0.186947 0.869079 -0.611911
O11   O     O_3   0.100171 0.230544 0.744110 -0.580499
O12   O     O_R   0.408400 0.091620 0.614690 -0.616076
O13   O     O_3   0.198691 0.686795 0.869038 -0.611934
O14   O     O_R   0.908400 0.408380 0.614690 -0.603104
O15   O     O_R   0.908400 0.591620 0.614690 -0.616060
O16   O     O_R   0.408370 0.908370 0.385350 -0.624279
O17   O     O_R   0.408370 0.091630 0.385350 -0.630008
O18   O     O_R   0.908370 0.408370 0.385350 -0.624305
O19   O     O_R   0.908370 0.591630 0.385350 -0.630026
O20   O     O_R   0.591610 0.091610 0.614650 -0.626476
Zn1   Zn    Zn3+2 0.500010 0.000000 0.653130 0.957891
Zn2   Zn    Zn3+2 0.000010 0.500000 0.653130 0.957909
Zn3   Zn    Zn3+2 0.499980 0.000000 0.346870 0.946036
Zn4   Zn    Zn3+2 0.999980 0.500000 0.346870 0.946022

loop_
_geom_bond_atom_site_label_1
_geom_bond_atom_site_label_2
_ccdc_geom_bond_type
C21   C26   A    
C16   O7    A    
C34   O15   A    
O6    Zn3   S    
C32   H2    S    
C30   H34   S    
O20   Zn1   S    
C10   H22   S    
C50   H28   S    
C6    H19   S    
C5    N3    A    
C27   C33   A    
C4    N6    S    
C46   H6    S    
C11   H42   S    
C28   H12   S    
C38   C42   A    
C18   C42   A    
C47   H7    S    
C20   C40   A    
C48   H8    S    
C20   C25   A    
C12   C22   S    
C14   O20   A    
C46   O10   S    
O2    Zn1   S    
C11   H43   S    
C23   C26   S    
C49   H25   S    
C5    H18   S    
C2    C13   S    
O19   Zn4   S    
C50   H29   S    
C1    O1    A    
C12   O12   A    
H41   N6    S    
C49   O9    S    
C28   C35   A    
C34   O19   A    
O8    Zn4   S    
C46   C55   S    
C51   O11   S    
C41   C46   S    
C7    N3    A    
C9    H20   S    
C2    N2    A    
C43   C48   S    
C25   C34   S    
C17   C38   S    
C19   C53   S    
C47   O11   S    
H40   N6    S    
C33   H3    S    
C50   O10   S    
C15   O2    A    
C7    C56   A    
C19   C43   A    
C23   O14   A    
O7    Zn4   S    
C45   C47   S    
C25   C29   A    
C48   C53   S    
H38   N5    S    
O12   Zn1   S    
C31   H46   S    
C36   C40   A    
C4    C6    A    
C27   H1    S    
C51   H31   S    
C48   O13   S    
C21   C55   S    
C10   H24   S    
C39   C43   A    
C54   H11   S    
C3    N5    S    
O16   Zn3   S    
C35   H4    S    
C49   H26   S    
C35   C39   A    
N4    Zn2   S    
C52   O13   S    
O17   Zn3   S    
O3    Zn2   S    
C29   H23   S    
O18   Zn4   S    
C6    N4    A    
C15   O6    A    
C52   H37   S    
C9    H21   S    
C32   C37   A    
C53   H10   S    
C9    C11   S    
C55   H13   S    
H39   N5    S    
C23   O18   A    
C21   C41   A    
C20   C54   S    
C26   C30   A    
C22   C27   A    
O15   Zn2   S    
C45   H9    S    
C52   H36   S    
C13   H45   S    
C53   H15   S    
C17   O4    A    
C15   C36   S    
C3    N1    A    
C7    C9    S    
O5    Zn3   S    
C45   H14   S    
C18   C22   A    
C2    C8    A    
C24   C28   A    
C56   N1    A    
C3    C5    A    
C10   C13   S    
C8    N4    A    
C51   H32   S    
N3    Zn1   S    
C12   O17   A    
C44   H5    S    
C14   O5    A    
C33   C38   A    
C49   H27   S    
C13   H44   S    
C19   C24   A    
C1    O16   A    
C29   C31   A    
C51   H33   S    
C14   C37   S    
C30   C32   A    
C18   C45   S    
C44   O9    S    
C4    N2    A    
C42   C47   S    
C37   C41   A    
C50   H30   S    
C16   C39   S    
C55   H17   S    
C44   C54   S    
C40   C44   S    
C54   H16   S    
C16   O3    A    
C1    C24   S    
C8    C10   S    
N2    Zn4   S    
C31   C36   A    
C52   H35   S    
O4    Zn2   S    
O1    Zn1   S    
N1    Zn3   S    
O14   Zn2   S    
C11   C56   S    
C17   O8    A    
