data_mof_unit_36046.cif
_audit_creation_date              2012-10-26T19:40:06-0400
_audit_creation_method            fapswitch 2.2
_symmetry_space_group_name_H-M    P1
_symmetry_Int_Tables_number       1
_space_group_crystal_system       triclinic
_cell_length_a                    14.988384
_cell_length_b                    8.706771
_cell_length_c                    7.535096
_cell_angle_alpha                 102.982225
_cell_angle_beta                  94.877961
_cell_angle_gamma                 93.873015
_cell_volume                      950.918955834

loop_
_atom_site_label
_atom_site_type_symbol
_atom_type_description
_atom_site_fract_x
_atom_site_fract_y
_atom_site_fract_z
_atom_type_partial_charge
C1    C     C_R   0.495351 0.200415 0.454321 0.540005
C2    C     C_R   0.175809 0.357415 0.397411 0.001081
C3    C     C_R   0.767611 0.512491 0.497302 -0.017911
C4    C     C_R   0.232418 0.488036 0.502779 -0.018775
C5    C     C_R   0.802942 0.381780 0.394372 -0.100112
C6    C     C_R   0.197150 0.619478 0.604390 -0.084737
C7    C     C_R   0.895168 0.373440 0.402707 -0.021921
C8    C     C_R   0.104914 0.627806 0.596412 -0.010185
C9    C     C_R   0.953334 0.505430 0.498083 0.020685
C10   C     C_R   0.046710 0.495618 0.501884 0.019901
C11   C     C_R   0.918098 0.646771 0.588806 0.023762
C12   C     C_R   0.504694 0.799587 0.545674 0.539449
C13   C     C_R   0.081898 0.353775 0.412527 0.024252
C14   C     C_R   0.929145 0.231040 0.325288 -0.099876
C15   C     C_R   0.070926 0.770017 0.674404 -0.093847
C16   C     C_2   0.784662 0.761477 0.742550 0.295087
C17   C     C_2   0.215302 0.236736 0.260869 0.297515
C18   C     C_2   0.049375 0.051992 0.307941 0.637471
C19   C     C_2   0.949519 0.947814 0.700353 0.638787
C20   C     C_2   0.400331 0.955486 0.304219 0.246748
C21   C     C_2   0.599814 0.044465 0.695642 0.244979
C22   C     C_2   0.424772 0.319628 0.927616 0.466123
C23   C     C_R   0.021416 0.215902 0.341098 0.100984
C24   C     C_2   0.575268 0.680324 0.072368 0.466119
C25   C     C_R   0.978474 0.784520 0.661579 0.086567
C26   C     C_2   0.478537 0.033869 0.437470 0.008022
C27   C     C_2   0.521560 0.966124 0.562489 0.010210
C28   C     C_R   0.329189 0.495463 0.500559 0.524674
C29   C     C_R   0.670820 0.504717 0.499474 0.524742
C30   C     C_R   0.824188 0.642477 0.604210 0.009197
Cu1   Cu    Cu3+1 0.510010 0.517380 0.684380 1.049686
Cu2   Cu    Cu3+1 0.489990 0.482620 0.315620 1.050593
H1    H     H_    0.757962 0.281092 0.318456 0.156534
H2    H     H_    0.610843 0.012157 0.826195 0.173086
H3    H     H_    0.370120 0.328251 0.828834 0.111064
H4    H     H_    0.630001 0.671611 0.170949 0.112270
H5    H     H_    0.242181 0.720389 0.679545 0.157695
H6    H     H_    0.882791 0.127660 0.264864 0.194222
H7    H     H_    0.117243 0.873477 0.734783 0.190109
H8    H     H_    0.719653 0.801296 0.709588 0.109029
H9    H     H_    0.280673 0.198410 0.294180 0.107150
H10   H     H_    0.025621 0.825145 0.164750 0.349492
H11   H     H_    0.865051 0.100201 0.630156 0.353162
H12   H     H_    0.389409 0.987637 0.173562 0.172640
N1    N     N_2   0.474890 0.456420 0.038520 -0.172910
N2    N     N_2   0.525110 0.543580 0.961480 -0.172863
O1    O     O_R   0.506510 0.286130 0.619770 -0.491832
O2    O     O_2   0.176887 0.184822 0.107295 -0.459880
O3    O     O_2   0.111546 0.020109 0.405526 -0.520113
O4    O     O_R   0.001284 0.931975 0.171705 -0.621107
O5    O     O_2   0.990122 0.050880 0.823875 -0.440412
O6    O     O_R   0.878420 0.985669 0.589941 -0.703549
O7    O     O_2   0.344726 0.862702 0.343388 -0.478594
O8    O     O_2   0.655337 0.137409 0.656503 -0.495953
O9    O     O_2   0.440226 0.188816 0.948537 -0.517454
O10   O     O_2   0.559783 0.811173 0.051573 -0.517806
O11   O     O_R   0.493490 0.713870 0.380230 -0.492889
O12   O     O_R   0.489600 0.256770 0.308360 -0.481605
O13   O     O_R   0.510400 0.743230 0.691640 -0.481394
O14   O     O_R   0.378710 0.514640 0.655720 -0.540411
O15   O     O_R   0.621290 0.485360 0.344280 -0.539049
O16   O     O_R   0.361800 0.485290 0.344300 -0.487063
O17   O     O_R   0.638200 0.514710 0.655700 -0.488344
O18   O     O_2   0.822577 0.810169 0.897050 -0.462498

loop_
_geom_bond_atom_site_label_1
_geom_bond_atom_site_label_2
_ccdc_geom_bond_type
Cu1   O14   S    
C14   C23   A    
C3    C30   A    
C2    C4    A    
C29   O17   A    
C22   O9    D    
Cu1   O17   S    
C14   H6    S    
C9    C10   A    
C18   O3    D    
Cu1   Cu2   S    
C17   O2    D    
Cu2   O12   S    
C24   O10   D    
C24   N2    S    
C7    C9    A    
C21   C27   S    
C6    H5    S    
Cu2   O16   S    
Cu1   O1    S    
C1    O12   A    
C2    C17   S    
C22   H3    S    
C9    C11   A    
C15   H7    S    
C26   C27   D    
C24   H4    S    
C20   C26   S    
Cu2   O11   S    
H10   O4    S    
C12   O11   A    
C4    C6    A    
C4    C28   S    
C13   C23   A    
C16   H8    S    
Cu2   O15   S    
C8    C15   A    
C17   H9    S    
C28   O14   A    
C21   O8    D    
C19   C25   S    
C29   O15   A    
H11   O6    S    
C1    C26   S    
C15   C25   A    
C11   C25   A    
C12   C27   S    
C16   C30   S    
C18   C23   S    
C19   O5    D    
C22   N1    S    
C18   O4    S    
C8    C10   A    
Cu2   N1    S    
Cu1   O13   S    
C5    C7    A    
C2    C13   A    
C1    O1    A    
C3    C29   S    
C6    C8    A    
C21   H2    S    
C16   O18   D    
C20   H12   S    
N1    N2    D    
C12   O13   A    
C19   O6    S    
C10   C13   A    
C7    C14   A    
C11   C30   A    
C5    H1    S    
C20   O7    D    
C3    C5    A    
Cu1   N2    S    
C28   O16   A    
