data_mof_unit_52769.cif
_audit_creation_date              2012-12-11T16:20:03-0500
_audit_creation_method            fapswitch 2.2
_symmetry_space_group_name_H-M    P1
_symmetry_Int_Tables_number       1
_space_group_crystal_system       triclinic
_cell_length_a                    13.525967
_cell_length_b                    14.055973
_cell_length_c                    30.032625
_cell_angle_alpha                 97.303972
_cell_angle_beta                  90.37602
_cell_angle_gamma                 118.721428
_cell_volume                      4951.64462309

loop_
_atom_site_label
_atom_site_type_symbol
_atom_type_description
_atom_site_fract_x
_atom_site_fract_y
_atom_site_fract_z
_atom_type_partial_charge
C1    C     C_R   0.720291 0.098219 0.568892 0.538454
C2    C     C_1   0.380306 0.706064 0.772844 0.056742
C3    C     C_3   0.108463 0.738604 0.291130 -0.122409
C4    C     C_3   0.293817 0.405026 0.292236 -0.125836
C5    C     C_3   0.648186 0.809235 0.301788 -0.134542
C6    C     C_3   0.580984 0.859273 0.174893 -0.132095
C7    C     C_3   0.077214 0.969233 0.396375 -0.129634
C8    C     C_3   0.899207 0.451349 0.203208 -0.108653
C9    C     C_3   0.749863 0.336806 0.317218 -0.094071
C10   C     C_3   0.884471 0.386440 0.447041 -0.090262
C11   C     C_3   0.863266 0.956169 0.092800 -0.103962
C12   C     C_3   0.621629 0.866003 0.865885 -0.097457
C13   C     C_1   0.383487 0.710586 0.733092 -0.005235
C14   C     C_3   0.553183 0.621402 0.912706 -0.105170
C15   C     C_3   0.279286 0.933992 0.814059 -0.093497
C16   C     C_R   0.385414 0.791229 0.552384 0.539597
C17   C     C_R   0.306981 0.616228 0.901871 -0.042768
C18   C     C_3   0.351855 0.073825 0.720197 0.182344
C19   C     C_3   0.216924 0.153672 0.710730 -0.252959
C20   C     C_3   0.202885 0.152583 0.761777 -0.197804
C21   C     C_1   0.294794 0.201247 0.876285 -0.014769
C22   C     C_3   0.333172 0.163163 0.699716 0.023877
C23   C     C_3   0.336883 0.078406 0.771707 0.147072
C24   C     C_R   0.378315 0.714614 0.685651 0.038834
C25   C     C_3   0.313727 0.174540 0.787441 0.007233
C26   C     C_3   0.413247 0.284402 0.775989 0.198054
C27   C     C_3   0.427322 0.280979 0.723274 0.516858
C28   C     C_R   0.397137 0.118609 0.568935 0.538274
C29   C     C_1   0.302907 0.184704 0.836482 -0.014229
C30   C     C_1   0.343773 0.148648 0.651086 -0.014909
C31   C     C_1   0.362900 0.136298 0.612461 -0.013497
C32   C     C_3   0.705023 0.153561 0.725971 -0.209603
C33   C     C_3   0.915364 0.263927 0.720975 -0.165158
C34   C     C_3   0.936328 0.276141 0.772699 0.152038
C35   C     C_R   0.280676 0.704919 0.664467 -0.079968
C36   C     C_1   0.894157 0.202628 0.879297 -0.031295
C37   C     C_3   0.808357 0.154370 0.703245 -0.007644
C38   C     C_3   0.722387 0.168741 0.779276 0.497298
C39   C     C_3   0.839751 0.176015 0.791317 0.101392
C40   C     C_R   0.721377 0.096248 0.443153 0.551357
C41   C     C_3   0.841594 0.071222 0.768248 -0.191123
C42   C     C_3   0.820529 0.056685 0.716207 0.171930
C43   C     C_1   0.863933 0.188737 0.840180 -0.005086
C44   C     C_1   0.789726 0.142996 0.654261 -0.031902
C45   C     C_1   0.765297 0.127572 0.614548 -0.002516
C46   C     C_R   0.278732 0.721099 0.619538 -0.115652
C47   C     C_3   0.266822 0.724564 0.270041 0.087844
C48   C     C_3   0.295841 0.559846 0.271581 0.194482
C49   C     C_3   0.295573 0.543306 0.219313 -0.240705
C50   C     C_1   0.307332 0.604888 0.111198 -0.015785
C51   C     C_3   0.345643 0.684531 0.289364 0.096225
C52   C     C_R   0.382039 0.784472 0.424939 0.537358
C53   C     C_3   0.255884 0.700245 0.217705 -0.195785
C54   C     C_3   0.333858 0.653073 0.200747 -0.009950
C55   C     C_3   0.457968 0.734159 0.219397 0.181975
C56   C     C_3   0.465360 0.751644 0.272040 0.182446
C57   C     C_R   0.250831 0.656700 0.832006 0.202121
C58   C     C_1   0.323642 0.631688 0.151325 -0.047100
C59   C     C_1   0.354012 0.706439 0.338910 0.044657
C60   C     C_1   0.364667 0.735200 0.378920 0.009367
C61   C     C_R   0.358665 0.134509 0.400466 0.028681
C62   C     C_R   0.435386 0.226361 0.381360 -0.173118
C63   C     C_R   0.419628 0.232213 0.336359 -0.152671
C64   C     C_R   0.396107 0.114869 0.442940 0.552198
C65   C     C_R   0.326412 0.147521 0.310044 -0.012958
C66   C     C_R   0.243482 0.061109 0.329323 -0.105750
C67   C     C_R   0.257239 0.055103 0.375104 0.263278
C68   C     C_R   0.225073 0.618594 0.873773 -0.211473
C69   C     C_R   0.238052 0.084868 0.146000 -0.117170
C70   C     C_R   0.231982 0.106786 0.102470 -0.128628
C71   C     C_R   0.410073 0.276352 0.119449 -0.130273
C72   C     C_R   0.415991 0.254076 0.162943 -0.117267
C73   C     C_R   0.327839 0.160630 0.176573 0.041682
C74   C     C_1   0.323493 0.149936 0.223078 -0.034671
C75   C     C_1   0.321848 0.146482 0.262647 -0.042613
C76   C     C_R   0.374458 0.746159 0.595195 0.021587
C77   C     C_R   0.315193 0.205425 0.089573 0.022474
C78   C     C_R   0.789521 0.138664 0.404929 -0.021286
C79   C     C_R   0.421160 0.668718 0.891939 0.252975
C80   C     C_R   0.822761 0.071723 0.377646 -0.211193
C81   C     C_R   0.862674 0.097638 0.335864 -0.205922
C82   C     C_R   0.869458 0.190367 0.320818 0.000718
C83   C     C_R   0.844892 0.262759 0.348848 0.301749
C84   C     C_R   0.810266 0.239873 0.392017 0.266083
C85   C     C_R   0.934225 0.315634 0.172556 0.261170
C86   C     C_R   0.944571 0.319365 0.126457 -0.174169
C87   C     C_R   0.862353 0.120313 0.111475 0.267356
C88   C     C_R   0.469261 0.747724 0.616018 -0.131585
C89   C     C_R   0.851856 0.117516 0.157889 -0.166231
C90   C     C_R   0.449231 0.711633 0.850672 0.221637
C91   C     C_R   0.892487 0.214604 0.188103 -0.001427
C92   C     C_1   0.890495 0.209213 0.235227 0.020387
C93   C     C_1   0.885104 0.202287 0.274533 0.014968
C94   C     C_R   0.912218 0.222854 0.095820 -0.006634
C95   C     C_R   0.283176 0.233435 0.922263 0.538217
C96   C     C_R   0.267846 0.550973 0.939285 0.577492
C97   C     C_R   0.945213 0.222084 0.923574 0.541838
C98   C     C_R   0.292593 0.242674 0.049107 0.538363
C99   C     C_R   0.274835 0.557868 0.064995 0.549999
C100  C     C_R   0.471414 0.732954 0.661049 -0.135061
C101  C     C_R   0.361592 0.693655 0.819402 0.011237
C102  C     C_R   0.955610 0.233459 0.050784 0.571004
C103  C     C_3   0.184337 0.916737 0.683928 -0.067527
C104  C     C_3   0.628429 0.397320 0.729297 -0.117314
C105  C     C_3   0.432395 0.385108 0.664364 -0.115696
C106  C     C_3   0.067835 0.633308 0.817550 -0.143322
C107  C     C_3   0.487550 0.468212 0.808554 -0.101366
C108  C     C_3   0.683979 0.280678 0.836161 -0.085697
C109  C     C_3   0.122415 0.386215 0.802851 -0.136101
C110  C     C_3   0.889451 0.941739 0.685641 -0.148375
C111  C     C_3   0.561618 0.984404 0.775400 -0.152299
Cr1   Cr    Cr6+3 0.583400 0.162540 0.509180 1.040180
Cr2   Cr    Cr6+3 0.584070 0.916690 0.495550 1.015242
Cr3   Cr    Cr6+3 0.332550 0.920810 0.495240 1.055592
Cr4   Cr    Cr6+3 0.086700 0.177000 0.983690 1.028347
Cr5   Cr    Cr6+3 0.336880 0.419130 0.994740 1.022988
Cr6   Cr    Cr6+3 0.084850 0.422220 0.995960 1.007215
H1    H     H_    0.138875 0.581821 0.883063 0.138262
H2    H     H_    0.277893 0.776966 0.203658 0.139707
H3    H     H_    0.329032 0.996082 0.843735 0.094808
H4    H     H_    0.327333 0.894658 0.798627 0.151201
H5    H     H_    0.202427 0.869845 0.826529 0.156871
H6    H     H_    0.510707 0.695144 0.208167 0.136669
H7    H     H_    0.169727 0.012245 0.156503 0.098027
H8    H     H_    0.171201 0.995903 0.308436 0.093438
H9    H     H_    0.512553 0.289963 0.400108 0.160021
H10   H     H_    0.544797 0.767150 0.598441 0.130277
H11   H     H_    0.475460 0.352730 0.110421 0.127011
H12   H     H_    0.483567 0.299924 0.321485 0.115922
H13   H     H_    0.811436 0.995639 0.387286 0.139609
H14   H     H_    0.815053 0.040127 0.170748 0.093737
H15   H     H_    0.145196 0.081500 0.691031 0.120374
H16   H     H_    0.881375 0.041560 0.314114 0.110599
H17   H     H_    0.547092 0.739870 0.677061 0.097066
H18   H     H_    0.136109 0.929756 0.711427 0.158848
H19   H     H_    0.149741 0.826856 0.675917 0.119713
H20   H     H_    0.169173 0.944075 0.652783 0.101908
H21   H     H_    0.210626 0.224222 0.700791 0.186201
H22   H     H_    0.180671 0.216280 0.774937 0.216479
H23   H     H_    0.646186 0.408816 0.766196 0.124948
H24   H     H_    0.618835 0.465819 0.719287 0.130317
H25   H     H_    0.704885 0.402390 0.713992 0.131609
H26   H     H_    0.130896 0.072823 0.767498 0.158151
H27   H     H_    0.496107 0.363654 0.650364 0.156558
H28   H     H_    0.465330 0.473710 0.663034 0.123689
H29   H     H_    0.351940 0.340137 0.642731 0.115383
H30   H     H_    0.419236 0.098075 0.789103 0.074395
H31   H     H_    0.081628 0.691717 0.848671 0.108762
H32   H     H_    0.015963 0.546910 0.823318 0.109775
H33   H     H_    0.019043 0.648160 0.792087 0.141469
H34   H     H_    0.537806 0.505560 0.780551 0.153490
H35   H     H_    0.539307 0.457416 0.834326 0.065096
H36   H     H_    0.461004 0.526638 0.824339 0.153481
H37   H     H_    0.490388 0.293729 0.793831 0.070837
H38   H     H_    0.721776 0.259579 0.863529 0.142238
H39   H     H_    0.590769 0.228076 0.832916 0.143869
H40   H     H_    0.702098 0.366602 0.846029 0.091995
H41   H     H_    0.933885 0.351712 0.788037 0.132752
H42   H     H_    0.094892 0.408145 0.835490 0.121096
H43   H     H_    0.138065 0.446962 0.779748 0.171763
H44   H     H_    0.203257 0.387122 0.810130 0.184628
H45   H     H_    0.813609 0.891074 0.661602 0.115899
H46   H     H_    0.879241 0.905419 0.717241 0.103296
H47   H     H_    0.961982 0.939874 0.669477 0.118906
H48   H     H_    0.443375 0.101416 0.717848 0.144594
H49   H     H_    0.778090 0.997342 0.781551 0.077964
H50   H     H_    0.207605 0.689122 0.683277 0.128995
H51   H     H_    0.627305 0.079924 0.710336 0.090411
H52   H     H_    0.604746 0.948232 0.754077 0.105325
H53   H     H_    0.497676 0.991706 0.755152 0.141159
H54   H     H_    0.515016 0.925834 0.798688 0.149397
H55   H     H_    0.924453 0.076558 0.776879 0.183545
H56   H     H_    0.166689 0.640584 0.205273 0.172723
H57   H     H_    0.104938 0.768539 0.258899 0.087336
H58   H     H_    0.154739 0.808777 0.318521 0.164590
H59   H     H_    0.694906 0.222122 0.716008 0.172444
H60   H     H_    0.020441 0.690528 0.300385 0.149507
H61   H     H_    0.255591 0.358443 0.258204 0.113057
H62   H     H_    0.226952 0.389322 0.316097 0.122582
H63   H     H_    0.348856 0.374288 0.304589 0.157238
H64   H     H_    0.206414 0.517547 0.280913 0.174452
H65   H     H_    0.208942 0.481518 0.204654 0.142622
H66   H     H_    0.352556 0.509459 0.208626 0.143613
H67   H     H_    0.493560 0.840191 0.284378 0.109983
H68   H     H_    0.204812 0.719776 0.604707 0.118160
H69   H     H_    0.644078 0.862417 0.331627 0.128714
H70   H     H_    0.989864 0.268113 0.703878 0.195613
H71   H     H_    0.683392 0.857188 0.273648 0.107866
H72   H     H_    0.706558 0.779370 0.311440 0.138019
H73   H     H_    0.552843 0.794664 0.144893 0.127282
H74   H     H_    0.657787 0.867927 0.192730 0.092879
H75   H     H_    0.603465 0.938037 0.162816 0.166202
H76   H     H_    0.308541 0.815563 0.280412 0.102443
H77   H     H_    0.158342 0.050201 0.080012 0.118048
H78   H     H_    0.091245 0.049331 0.414683 0.115746
H79   H     H_    0.019984 0.904352 0.415716 0.143247
H80   H     H_    0.033547 0.952317 0.362501 0.095720
H81   H     H_    0.905124 0.333756 0.712545 0.070231
H82   H     H_    0.485830 0.312887 0.186686 0.107091
H83   H     H_    0.985825 0.398967 0.115281 0.148860
H84   H     H_    0.815004 0.389826 0.212469 0.114782
H85   H     H_    0.890951 0.476129 0.170239 0.095487
H86   H     H_    0.930990 0.525294 0.229085 0.160027
H87   H     H_    0.689516 0.319740 0.343934 0.150656
H88   H     H_    0.714018 0.268099 0.288610 0.104032
H89   H     H_    0.760188 0.411302 0.304282 0.128984
H90   H     H_    0.954888 0.435775 0.426744 0.146263
H91   H     H_    0.911083 0.343541 0.469125 0.096768
H92   H     H_    0.738191 0.980980 0.705188 0.091687
H93   H     H_    0.865593 0.444178 0.469187 0.132629
H94   H     H_    0.954081 0.003109 0.105638 0.106215
H95   H     H_    0.856749 0.899148 0.062365 0.140986
H96   H     H_    0.810890 0.905358 0.117810 0.092149
H97   H     H_    0.653917 0.857690 0.898396 0.176801
H98   H     H_    0.572172 0.910339 0.872080 0.121619
H99   H     H_    0.696313 0.917933 0.848311 0.139294
H100  H     H_    0.488389 0.533404 0.904443 0.138092
H101  H     H_    0.607972 0.628509 0.941977 0.127428
H102  H     H_    0.608084 0.649135 0.884566 0.135229
O1    O     O_R   0.494060 0.188820 0.559230 -0.514108
O2    O     O_R   0.170530 0.527770 0.952070 -0.529043
O3    O     O_R   0.987720 0.318450 0.945940 -0.500504
O4    O     O_R   0.678470 0.153390 0.554100 -0.498959
O5    O     O_R   0.976400 0.159230 0.032040 -0.465218
O6    O     O_R   0.193740 0.188470 0.029020 -0.507767
O7    O     O_R   0.364860 0.335530 0.039220 -0.520016
O8    O     O_R   0.330170 0.515340 0.044800 -0.492321
O9    O     O_R   0.177230 0.536000 0.050040 -0.514363
O10   O     O_R   0.993930 0.326080 0.036750 -0.519153
O11   O     O_3   0.169480 0.339450 0.991460 -0.250433
O12   O     O_R   0.480140 0.824500 0.445020 -0.496704
O13   O     O_R   0.697870 0.003940 0.549410 -0.512621
O14   O     O_R   0.480980 0.827230 0.535590 -0.504615
O15   O     O_R   0.309390 0.811640 0.537920 -0.516020
O16   O     O_R   0.341810 0.023400 0.546180 -0.496269
O17   O     O_R   0.493150 0.185870 0.461540 -0.518344
O18   O     O_R   0.677630 0.150660 0.463530 -0.448274
O19   O     O_R   0.696960 0.000990 0.451710 -0.528015
O20   O     O_3   0.301305 0.965118 0.695824 -0.546548
O21   O     O_3   0.535839 0.292786 0.713186 -0.622667
O22   O     O_3   0.411078 0.367089 0.709446 -0.536119
O23   O     O_R   0.308480 0.808690 0.440220 -0.486860
O24   O     O_3   0.170760 0.650183 0.800164 -0.580036
O25   O     O_3   0.388847 0.369572 0.792717 -0.557700
O26   O     O_3   0.730656 0.273393 0.794677 -0.606375
O27   O     O_3   0.041453 0.280552 0.782533 -0.601163
O28   O     O_3   0.911307 0.051508 0.694587 -0.555588
O29   O     O_3   0.636445 0.085286 0.801696 -0.595470
O30   O     O_3   0.158405 0.670243 0.286853 -0.560576
O31   O     O_3   0.360649 0.518462 0.290937 -0.522631
O32   O     O_3   0.540437 0.718116 0.288824 -0.531442
O33   O     O_3   0.493987 0.836886 0.204230 -0.596677
O34   O     O_R   0.340970 0.020670 0.455610 -0.443837
O35   O     O_3   0.179226 0.965202 0.393423 -0.555353
O36   O     O_3   0.977079 0.411626 0.202823 -0.560073
O37   O     O_3   0.856668 0.357077 0.334373 -0.537016
O38   O     O_3   0.786168 0.311847 0.419277 -0.545664
O39   O     O_3   0.821315 0.024699 0.080624 -0.539608
O40   O     O_3   0.559762 0.762612 0.838763 -0.600602
O41   O     O_3   0.503907 0.688462 0.924823 -0.558510
O42   O     O_3   0.245566 0.978589 0.781418 -0.559416
O43   O     O_3   0.500010 0.000010 0.499990 -0.255851
O44   O     O_R   0.969690 0.151000 0.934080 -0.505892
O45   O     O_R   0.187530 0.180840 0.938210 -0.492671
O46   O     O_R   0.358160 0.327300 0.941250 -0.524842
O47   O     O_R   0.323950 0.507710 0.953980 -0.467661

loop_
_geom_bond_atom_site_label_1
_geom_bond_atom_site_label_2
_ccdc_geom_bond_type
C110  O28   S    
C55   C56   S    
C63   C65   A    
Cr6   O9    S    
C106  H33   S    
C15   H5    S    
C41   C42   S    
C5    O32   S    
Cr6   O2    S    
C19   C20   S    
C12   H97   S    
C106  O24   S    
C10   H90   S    
C105  H27   S    
C46   C76   A    
C81   C82   A    
C110  H45   S    
C102  O5    A    
C39   C41   S    
C53   C54   S    
C97   O3    A    
Cr2   O14   S    
C32   H59   S    
C26   C27   S    
C40   O18   A    
C9    H88   S    
C79   O41   S    
C16   O14   A    
C20   H22   S    
C11   H94   S    
C8    H84   S    
C64   O17   A    
C88   H10   S    
Cr5   O47   S    
C9    H89   S    
C103  H20   S    
C48   H64   S    
C78   C80   A    
C95   O46   A    
C20   C25   S    
C23   O42   S    
C49   C54   S    
C56   O32   S    
Cr6   O11   S    
C17   C79   A    
C106  H31   S    
C15   H3    S    
C51   C56   S    
C73   C74   S    
Cr6   O10   S    
C37   C42   S    
C2    C13   T    
C10   H91   S    
C79   C90   A    
C103  H18   S    
C86   C94   A    
C68   H1    S    
C49   H66   S    
C10   H93   S    
C48   C51   S    
C111  O29   S    
Cr4   O11   S    
C6    H74   S    
C34   O27   S    
C102  O10   A    
C35   H50   S    
C14   H100  S    
C69   C73   A    
C36   C97   S    
C12   O40   S    
C32   C38   S    
C89   C91   A    
C52   C60   S    
C76   C88   A    
C56   H67   S    
C99   O9    A    
C47   C53   S    
C98   O6    A    
C107  H34   S    
C87   C94   A    
C63   H12   S    
C66   C67   A    
C105  H28   S    
C59   C60   T    
C28   O1    A    
C106  H32   S    
C16   C76   S    
C70   C77   A    
C96   O47   A    
C20   H26   S    
C86   H83   S    
Cr6   O3    S    
C61   C62   A    
C5    H69   S    
C4    H63   S    
C90   O40   S    
C27   O22   S    
C87   O39   S    
C105  O22   S    
Cr1   O1    S    
C18   H48   S    
C100  H17   S    
C27   O21   S    
Cr2   O12   S    
C28   C31   S    
C25   C29   S    
C38   C39   S    
C41   H55   S    
C55   H6    S    
C42   O28   S    
C85   O36   S    
C24   C35   A    
C80   H13   S    
C74   C75   T    
Cr5   O8    S    
C53   H56   S    
C34   C39   S    
C50   C58   T    
C11   O39   S    
C84   O38   S    
C5    H71   S    
C19   C22   S    
C61   C67   A    
Cr3   O15   S    
Cr5   O46   S    
C91   C92   S    
C62   H9    S    
C110  H47   S    
C80   C81   A    
C39   C43   S    
C108  H40   S    
C21   C95   S    
C2    C101  S    
C25   C26   S    
C85   C86   A    
C38   O26   S    
C21   C29   T    
C108  O26   S    
C78   C84   A    
C33   C37   S    
C18   C23   S    
C13   C24   S    
Cr5   O7    S    
C111  H52   S    
C7    H80   S    
C61   C64   S    
C103  H19   S    
C90   C101  A    
C62   C63   A    
C15   O42   S    
C9    H87   S    
C52   O23   A    
C11   H95   S    
Cr4   O5    S    
C3    H57   S    
C83   C84   A    
C108  H39   S    
C16   O15   A    
C70   H77   S    
C104  H24   S    
C38   O29   S    
C41   H49   S    
C6    H73   S    
C33   C34   S    
C50   C99   S    
C10   O38   S    
C40   O19   A    
C77   C98   S    
C33   H70   S    
C17   C96   S    
C107  H36   S    
C32   C37   S    
C81   H16   S    
C88   C100  A    
C42   H92   S    
Cr4   O44   S    
C11   H96   S    
C107  H35   S    
C34   H41   S    
C3    H58   S    
C95   O45   A    
Cr3   O23   S    
C109  O27   S    
Cr1   O18   S    
C22   C27   S    
C32   H51   S    
C7    O35   S    
Cr1   O4    S    
C104  H25   S    
C107  O25   S    
C26   H37   S    
C9    O37   S    
C51   C59   S    
C65   C66   A    
C12   H99   S    
C57   C68   A    
C7    H78   S    
C96   O2    A    
C48   O31   S    
C71   C77   A    
C18   O20   S    
Cr2   O13   S    
C64   O34   A    
C54   C58   S    
C67   O35   S    
C19   H15   S    
C104  O21   S    
Cr3   O34   S    
C54   C55   S    
C48   C49   S    
C17   C68   A    
Cr1   O17   S    
C15   H4    S    
Cr5   O11   S    
C24   C100  A    
C47   H76   S    
C8    H86   S    
C44   C45   T    
C3    O30   S    
C4    H61   S    
C72   C73   A    
C89   H14   S    
C47   C51   S    
C110  H46   S    
C53   H2    S    
C52   O12   A    
Cr4   O6    S    
Cr3   O16   S    
C57   C101  A    
C8    O36   S    
C69   H7    S    
C66   H8    S    
C6    O33   S    
C83   O37   S    
C1    O4    A    
C111  H53   S    
C37   C44   S    
C18   C22   S    
C3    H60   S    
C5    H72   S    
C71   C72   A    
C57   O24   S    
C109  H44   S    
C71   H11   S    
Cr2   O19   S    
C72   H82   S    
C109  H43   S    
C1    O13   A    
C1    C45   S    
C30   C31   T    
C108  H38   S    
C23   H30   S    
C33   H81   S    
C19   H21   S    
C105  H29   S    
C8    H85   S    
C92   C93   T    
C26   O25   S    
C40   C78   S    
Cr2   O43   S    
C23   C25   S    
C46   H68   S    
Cr3   O43   S    
C69   C70   A    
C22   C30   S    
C47   O30   S    
Cr4   O45   S    
C97   O44   A    
C28   O16   A    
C4    O31   S    
C49   H65   S    
C104  H23   S    
C14   H102  S    
C94   C102  S    
C103  O20   S    
C82   C83   A    
C6    H75   S    
C82   C93   S    
C87   C89   A    
C55   O33   S    
C14   H101  S    
C36   C43   T    
C14   O41   S    
C4    H62   S    
C12   H98   S    
C7    H79   S    
C35   C46   A    
C85   C91   A    
C99   O8    A    
C65   C75   S    
Cr1   O43   S    
C98   O7    A    
C111  H54   S    
C109  H42   S    
