data_mof_unit_10598.cif
_audit_creation_date              2013-03-05T16:00:09-0500
_audit_creation_method            fapswitch 2.2
_symmetry_space_group_name_H-M    P1
_symmetry_Int_Tables_number       1
_space_group_crystal_system       triclinic
_cell_length_a                    7.191396
_cell_length_b                    22.694206
_cell_length_c                    26.495786
_cell_angle_alpha                 89.999647
_cell_angle_beta                  89.997536
_cell_angle_gamma                 89.99936
_cell_volume                      4324.19234778

loop_
_atom_site_label
_atom_site_type_symbol
_atom_site_description
_atom_site_fract_x
_atom_site_fract_y
_atom_site_fract_z
_atom_type_partial_charge
O1    O     O_R   0.694650 0.802620 0.195790 -0.594898
O2    O     O_R   0.305350 0.197380 0.804210 -0.589680
O3    O     O_R   0.305350 0.197380 0.695790 -0.593922
O4    O     O_R   0.694650 0.802620 0.304210 -0.589661
O5    O     O_R   0.194650 0.697380 0.304210 -0.594796
O6    O     O_R   0.805350 0.302620 0.695790 -0.589798
O7    O     O_R   0.805350 0.302620 0.804210 -0.594641
O8    O     O_R   0.194650 0.697380 0.195790 -0.589638
O9    O     O_R   0.364900 0.809540 0.303840 -0.595036
O10   O     O_R   0.635100 0.190460 0.696160 -0.563567
O11   O     O_R   0.635100 0.190460 0.803840 -0.595163
O12   O     O_R   0.364900 0.809540 0.196160 -0.563358
O13   O     O_R   0.864900 0.690460 0.196160 -0.595048
O14   O     O_R   0.135100 0.309540 0.803840 -0.563488
O15   O     O_R   0.135100 0.309540 0.696160 -0.595037
O16   O     O_R   0.864900 0.690460 0.303840 -0.563350
C1    C     C_R   0.533471 0.823111 0.321060 1.108924
C2    C     C_R   0.467068 0.176503 0.679043 1.117586
C3    C     C_R   0.466520 0.176888 0.821055 1.108960
C4    C     C_R   0.532955 0.823487 0.179032 1.117803
C5    C     C_R   0.033481 0.676888 0.178942 1.108977
C6    C     C_R   0.967051 0.323491 0.820963 1.117715
C7    C     C_R   0.966538 0.323099 0.678936 1.108990
C8    C     C_R   0.032946 0.676508 0.320964 1.117811
H1    H     H_    0.805297 0.494792 0.494231 0.203913
H2    H     H_    0.226508 0.509531 0.508112 0.204984
H3    H     H_    0.194886 0.505065 0.994304 0.203958
H4    H     H_    0.773594 0.490471 0.008118 0.205028
H5    H     H_    0.305250 0.005090 0.005705 0.203919
H6    H     H_    0.726454 0.990364 0.991801 0.204983
H7    H     H_    0.695000 0.994948 0.505663 0.204029
H8    H     H_    0.273587 0.009378 0.491998 0.205089
O17   O     O_3   0.528130 0.713200 0.250000 -0.289265
O18   O     O_3   0.471870 0.286800 0.750000 -0.289230
O19   O     O_3   0.028130 0.786800 0.250000 -0.289333
O20   O     O_3   0.971870 0.213200 0.750000 -0.289016
V1    V     V_3+5 0.253280 0.756820 0.250000 1.250664
V2    V     V_3+5 0.746720 0.243180 0.750000 1.250934
V3    V     V_3+5 0.753280 0.743180 0.250000 1.250643
V4    V     V_3+5 0.246720 0.256820 0.750000 1.251153
C9    C     C_R   0.042103 0.634657 0.364500 -0.542988
C10   C     C_R   0.957551 0.366830 0.637025 -0.536724
C11   C     C_R   0.957901 0.365337 0.864502 -0.542908
C12   C     C_R   0.042552 0.633112 0.137058 -0.537066
C13   C     C_R   0.542139 0.865320 0.135482 -0.543123
C14   C     C_R   0.457456 0.133111 0.862933 -0.536949
C15   C     C_R   0.457984 0.134643 0.635517 -0.542461
C16   C     C_R   0.542516 0.866872 0.362955 -0.537002
C17   C     C_R   0.936633 0.581524 0.365769 0.158859
C18   C     C_R   0.074961 0.416961 0.636811 0.123135
C19   C     C_R   0.063469 0.418450 0.865785 0.158823
C20   C     C_R   0.925007 0.583008 0.136831 0.123035
C21   C     C_R   0.436754 0.918469 0.134209 0.158829
C22   C     C_R   0.574861 0.082979 0.863119 0.123197
C23   C     C_R   0.563934 0.081606 0.634193 0.158658
C24   C     C_R   0.424915 0.916965 0.363207 0.122947
C25   C     C_R   0.965876 0.540353 0.404863 0.445189
C26   C     C_R   0.066540 0.457680 0.596657 0.457425
C27   C     C_R   0.034305 0.459608 0.904893 0.445207
C28   C     C_R   0.933462 0.542273 0.096687 0.457443
C29   C     C_R   0.465950 0.959610 0.095088 0.445278
C30   C     C_R   0.566478 0.042243 0.903265 0.457360
C31   C     C_R   0.534787 0.040415 0.595110 0.444997
C32   C     C_R   0.433389 0.957688 0.403360 0.457550
C33   C     C_R   0.075032 0.555521 0.447093 -0.291764
C34   C     C_R   0.951924 0.446442 0.554543 -0.284996
C35   C     C_R   0.925061 0.444449 0.947113 -0.291742
C36   C     C_R   0.048280 0.553460 0.054600 -0.284880
C37   C     C_R   0.575013 0.944403 0.052847 -0.291859
C38   C     C_R   0.451812 0.053449 0.945381 -0.284876
C39   C     C_R   0.425129 0.055481 0.552945 -0.291344
C40   C     C_R   0.548278 0.946500 0.445428 -0.284945
C41   C     C_R   0.170759 0.609473 0.447459 0.452131
C42   C     C_R   0.835906 0.396464 0.554631 0.460355
C43   C     C_R   0.829199 0.390521 0.947457 0.452107
C44   C     C_R   0.164543 0.603378 0.054722 0.460633
C45   C     C_R   0.670690 0.890442 0.052493 0.452197
C46   C     C_R   0.335662 0.103396 0.945292 0.460440
C47   C     C_R   0.328859 0.109339 0.552641 0.451773
C48   C     C_R   0.664552 0.896585 0.445289 0.460741
C49   C     C_R   0.164627 0.647152 0.404992 0.427816
C50   C     C_R   0.830557 0.358745 0.596963 0.390423
C51   C     C_R   0.835316 0.352852 0.904984 0.427754
C52   C     C_R   0.169865 0.641101 0.097048 0.389690
C53   C     C_R   0.664598 0.852791 0.094979 0.427865
C54   C     C_R   0.330298 0.141129 0.902972 0.389873
C55   C     C_R   0.335059 0.147035 0.595096 0.427474
C56   C     C_R   0.669842 0.858869 0.402958 0.389722
C57   C     C_2   0.090021 0.515603 0.491450 -0.034946
C58   C     C_2   0.940975 0.488076 0.511269 -0.032991
C59   C     C_2   0.910102 0.484355 0.991478 -0.034918
C60   C     C_2   0.059195 0.511825 0.011325 -0.033161
C61   C     C_2   0.589974 0.984294 0.008471 -0.034976
C62   C     C_2   0.440909 0.011809 0.988653 -0.033109
C63   C     C_2   0.410136 0.015551 0.508596 -0.034963
C64   C     C_2   0.559247 0.988136 0.488698 -0.033136
O21   O     O_3   0.274384 0.625174 0.489356 -0.598800
C65   C     C_3   0.164341 0.661754 0.520334 -0.164918
H9    H     H_    0.244153 0.672222 0.555011 0.151086
H10   H     H_    0.033762 0.639269 0.532126 0.118128
H11   H     H_    0.131371 0.704168 0.501276 0.157657
O22   O     O_3   0.721138 0.385693 0.513749 -0.598202
C66   C     C_3   0.805871 0.342675 0.482983 -0.153158
H12   H     H_    0.809117 0.299052 0.502078 0.149380
H13   H     H_    0.948987 0.355887 0.471584 0.109654
H14   H     H_    0.722302 0.337766 0.448052 0.156440
O23   O     O_3   0.725443 0.374835 0.989338 -0.598786
C67   C     C_3   0.835332 0.338225 0.020326 -0.165073
H15   H     H_    0.755416 0.327767 0.054989 0.151098
H16   H     H_    0.965931 0.360679 0.032142 0.118180
H17   H     H_    0.868255 0.295808 0.001267 0.157615
O24   O     O_3   0.279598 0.614080 0.013883 -0.598216
C68   C     C_3   0.195311 0.657158 0.983090 -0.152795
H18   H     H_    0.192247 0.700781 0.002187 0.149654
H19   H     H_    0.052169 0.644042 0.971638 0.109659
H20   H     H_    0.279094 0.662016 0.948190 0.156383
O25   O     O_3   0.774224 0.874703 0.010587 -0.598793
C69   C     C_3   0.664075 0.838127 0.979639 -0.164890
H21   H     H_    0.743827 0.827620 0.944958 0.151054
H22   H     H_    0.533530 0.860632 0.967849 0.118106
H23   H     H_    0.631038 0.795732 0.998720 0.157691
O26   O     O_3   0.220760 0.114118 0.986159 -0.598240
C70   C     C_3   0.305225 0.157180 0.016932 -0.152789
H24   H     H_    0.308268 0.200805 0.997839 0.149575
H25   H     H_    0.448396 0.144043 0.028341 0.109635
H26   H     H_    0.221586 0.162043 0.051857 0.156420
O27   O     O_3   0.224544 0.124913 0.510835 -0.598830
C71   C     C_3   0.333789 0.161610 0.479753 -0.165732
H27   H     H_    0.253461 0.171961 0.445138 0.151255
H28   H     H_    0.464511 0.139280 0.467861 0.118387
H29   H     H_    0.366448 0.204074 0.498768 0.157425
O28   O     O_3   0.779643 0.885878 0.486118 -0.598132
C72   C     C_3   0.695394 0.842793 0.516912 -0.153023
H30   H     H_    0.692302 0.799175 0.497808 0.149674
H31   H     H_    0.552268 0.855908 0.528384 0.109621
H32   H     H_    0.779225 0.837924 0.551801 0.156328
O29   O     O_3   0.167599 0.509446 0.599541 -0.581159
C73   C     C_3   0.056570 0.552651 0.623149 -0.074058
H33   H     H_    0.018119 0.539482 0.662244 0.157842
H34   H     H_    0.929213 0.562228 0.600741 0.101936
H35   H     H_    0.137971 0.594039 0.625777 0.143432
O30   O     O_3   0.877351 0.486244 0.402689 -0.580426
C74   C     C_3   0.006444 0.443592 0.385974 -0.063603
H36   H     H_    0.114384 0.434858 0.415036 0.104720
H37   H     H_    0.073899 0.456611 0.349807 0.148459
H38   H     H_    0.931087 0.401717 0.379111 0.140519
O31   O     O_3   0.832252 0.490535 0.099556 -0.581135
C75   C     C_3   0.943101 0.447298 0.123180 -0.073833
H39   H     H_    0.981507 0.460459 0.162280 0.157817
H40   H     H_    0.070479 0.437681 0.100791 0.101849
H41   H     H_    0.861573 0.405934 0.125800 0.143415
O32   O     O_3   0.122986 0.513693 0.902744 -0.580443
C76   C     C_3   0.994026 0.556394 0.886047 -0.063677
H42   H     H_    0.886144 0.565158 0.915120 0.104735
H43   H     H_    0.926490 0.543409 0.849884 0.148476
H44   H     H_    0.069523 0.598245 0.879185 0.140536
O33   O     O_3   0.667610 0.990491 0.900369 -0.581183
C77   C     C_3   0.556610 0.947266 0.876781 -0.074005
H45   H     H_    0.518096 0.960425 0.837688 0.157787
H46   H     H_    0.429291 0.937677 0.899204 0.101904
H47   H     H_    0.638064 0.905889 0.874150 0.143454
O34   O     O_3   0.377468 0.013727 0.097250 -0.580423
C78   C     C_3   0.506630 0.056384 0.113912 -0.063681
H48   H     H_    0.614447 0.065107 0.084812 0.104773
H49   H     H_    0.574239 0.043379 0.150060 0.148453
H50   H     H_    0.431300 0.098262 0.120790 0.140525
O35   O     O_3   0.332113 0.009417 0.400521 -0.581077
C79   C     C_3   0.442854 0.052671 0.376880 -0.073984
H51   H     H_    0.481224 0.039516 0.337775 0.157866
H52   H     H_    0.570247 0.062308 0.399253 0.101870
H53   H     H_    0.361251 0.094021 0.374270 0.143345
O36   O     O_3   0.623818 0.986387 0.597236 -0.580470
C80   C     C_3   0.495235 0.943616 0.614017 -0.063439
H54   H     H_    0.387181 0.934780 0.585009 0.104636
H55   H     H_    0.427896 0.956574 0.650216 0.148441
H56   H     H_    0.571027 0.901811 0.620845 0.140532
O37   O     O_3   0.710505 0.311077 0.597287 -0.644470
C81   C     C_3   0.530909 0.331216 0.610101 -0.029736
H57   H     H_    0.531144 0.356028 0.646315 0.165779
H58   H     H_    0.439297 0.292544 0.615429 0.165667
H59   H     H_    0.469912 0.358620 0.579531 0.144931
O38   O     O_3   0.255151 0.701018 0.406826 -0.653261
C82   C     C_3   0.449084 0.693035 0.401701 -0.043255
H60   H     H_    0.520158 0.730408 0.420509 0.142723
H61   H     H_    0.487833 0.694203 0.361219 0.182474
H62   H     H_    0.503510 0.651811 0.419106 0.146036
O39   O     O_3   0.290274 0.688679 0.097412 -0.644420
C83   C     C_3   0.469591 0.668416 0.110360 -0.027883
H63   H     H_    0.468836 0.643722 0.146632 0.165785
H64   H     H_    0.561525 0.707017 0.115650 0.165772
H65   H     H_    0.530562 0.640857 0.079886 0.144658
O40   O     O_3   0.744673 0.299005 0.906795 -0.653397
C84   C     C_3   0.550734 0.307024 0.901715 -0.042259
H66   H     H_    0.479631 0.269804 0.920726 0.142592
H67   H     H_    0.511798 0.305605 0.861260 0.182201
H68   H     H_    0.496492 0.348374 0.918926 0.145826
O41   O     O_3   0.209986 0.188732 0.902631 -0.644383
C85   C     C_3   0.030575 0.168503 0.889738 -0.028595
H69   H     H_    0.031148 0.143737 0.853501 0.165665
H70   H     H_    0.938754 0.207126 0.884411 0.165774
H71   H     H_    0.969592 0.141024 0.920262 0.144712
O42   O     O_3   0.755115 0.798925 0.093159 -0.653085
C86   C     C_3   0.949023 0.806921 0.098320 -0.044346
H72   H     H_    0.020149 0.769413 0.079731 0.142958
H73   H     H_    0.987584 0.806037 0.138816 0.182693
H74   H     H_    0.003544 0.848007 0.080711 0.146139
O43   O     O_3   0.790202 0.811277 0.402587 -0.644464
C87   C     C_3   0.969546 0.831521 0.389642 -0.027874
H75   H     H_    0.968836 0.856206 0.353366 0.165858
H76   H     H_    0.061451 0.792911 0.384362 0.165703
H77   H     H_    0.030521 0.859081 0.420112 0.144711
O44   O     O_3   0.244014 0.200822 0.593344 -0.654210
C88   C     C_3   0.049997 0.192718 0.598192 -0.036486
H78   H     H_    0.978961 0.229140 0.578064 0.141609
H79   H     H_    0.009992 0.195548 0.638516 0.180797
H80   H     H_    0.996567 0.150679 0.582044 0.144955
N1    N     N_R   0.798897 0.568279 0.328131 0.292516
O45   O     O_R   0.651239 0.601078 0.324866 -0.380356
O46   O     O_R   0.793342 0.515955 0.308086 -0.306825
N2    N     N_R   0.188740 0.430173 0.679779 0.266138
O47   O     O_R   0.352993 0.453350 0.674243 -0.353181
O48   O     O_R   0.117425 0.426470 0.724659 -0.366412
N3    N     N_R   0.201197 0.431691 0.828141 0.292502
O49   O     O_R   0.348847 0.398890 0.824867 -0.380337
O50   O     O_R   0.206756 0.484016 0.808096 -0.306813
N4    N     N_R   0.811124 0.569824 0.179790 0.265981
O51   O     O_R   0.647018 0.546545 0.174250 -0.353469
O52   O     O_R   0.882307 0.573602 0.224679 -0.366324
N5    N     N_R   0.299180 0.931765 0.171877 0.292492
O53   O     O_R   0.151426 0.899016 0.175183 -0.380169
O54   O     O_R   0.293873 0.984093 0.191921 -0.306988
N6    N     N_R   0.688489 0.069768 0.820118 0.266087
O55   O     O_R   0.852691 0.046539 0.825602 -0.353158
O56   O     O_R   0.617022 0.073500 0.775257 -0.366768
N7    N     N_R   0.701993 0.068468 0.671777 0.292499
O57   O     O_R   0.849435 0.101372 0.674982 -0.380686
O58   O     O_R   0.708036 0.016155 0.691833 -0.306607
N8    N     N_R   0.310899 0.930146 0.320275 0.265943
O59   O     O_R   0.146801 0.953419 0.325855 -0.353595
O60   O     O_R   0.381942 0.926371 0.275368 -0.366061

loop_
_geom_bond_atom_site_label_1
_geom_bond_atom_site_label_2
_geom_bond_distance
_ccdc_geom_bond_type
C74   H38   1.109005 S    
C86   H72   1.108482 S    
C43   O23   1.383733 S    
C61   C62   1.347154 D    
C48   O28   1.383621 S    
O5    V1    2.015049 S    
C38   C46   1.408015 A    
C11   C51   1.416988 A    
C55   O44   1.385947 S    
C37   C45   1.404680 A    
C63   C64   1.347161 D    
C10   C50   1.412285 A    
C75   H41   1.108943 S    
C16   C24   1.416906 A    
C81   H59   1.111427 S    
C11   C19   1.424931 A    
C71   H27   1.109094 S    
C44   C52   1.411411 A    
N2    O48   1.297725 A    
C81   H57   1.112553 S    
C3    C14   1.490772 S    
C33   C41   1.404693 A    
C70   H24   1.112016 S    
C34   C58   1.487801 S    
C88   H78   1.108443 S    
H2    C57   1.085049 S    
C33   C57   1.487793 S    
C86   H73   1.108422 S    
O11   C3    1.331400 A    
H1    C58   1.085854 S    
O17   V3    1.756290 S    
C7    C10   1.490717 S    
C25   O30   1.384370 S    
C83   H65   1.111449 S    
O18   V4    1.756290 S    
C24   N8    1.433801 S    
C78   H49   1.113945 S    
C75   H40   1.112926 S    
O34   C78   1.412406 S    
H6    C61   1.085043 S    
C45   O25   1.383734 S    
C82   H61   1.108522 S    
H5    C62   1.085860 S    
C65   H9    1.109099 S    
C88   H80   1.113965 S    
C39   C63   1.487811 S    
C54   O41   1.384108 S    
C71   H28   1.113460 S    
H7    C64   1.085848 S    
C34   C42   1.408030 A    
C17   C25   1.410722 A    
C67   H15   1.109096 S    
C30   C38   1.410600 A    
O3    C2    1.331852 A    
C83   H64   1.106419 S    
C41   C49   1.413920 A    
O12   V1    2.027486 S    
C69   H21   1.109098 S    
N2    O47   1.301305 A    
C20   C28   1.410574 A    
C77   H47   1.108943 S    
C27   C35   1.409542 A    
O38   C82   1.412904 S    
C21   C29   1.410730 A    
C26   C34   1.410552 A    
C79   H53   1.108943 S    
O31   C75   1.410717 S    
C19   N3    1.437378 S    
O28   C72   1.410262 S    
C84   H67   1.108340 S    
O9    V1    2.027543 S    
C23   C31   1.410727 A    
C72   H32   1.109157 S    
N7    O57   1.299657 A    
C16   C56   1.412398 A    
C85   H69   1.112546 S    
C28   O31   1.383543 S    
C76   H43   1.113944 S    
C4    C13   1.495699 S    
C44   O24   1.383618 S    
C42   O22   1.383610 S    
C68   H20   1.109155 S    
O15   C7    1.331323 A    
C46   C54   1.411412 A    
C79   H52   1.112925 S    
C13   C21   1.424900 A    
O16   C8    1.329127 A    
C47   C55   1.413933 A    
C2    C15   1.495570 S    
C77   H46   1.112924 S    
C8    C9    1.495670 S    
N7    O58   1.301424 A    
O12   C4    1.329165 A    
O22   C66   1.410255 S    
C49   O38   1.385828 S    
C42   C50   1.411455 A    
C9    C17   1.424938 A    
O24   C68   1.410262 S    
O21   C65   1.410310 S    
C88   H79   1.108317 S    
C86   H74   1.113912 S    
N8    O60   1.297704 A    
O42   C86   1.412867 S    
O43   C87   1.411418 S    
C18   C26   1.410495 A    
C51   O40   1.385845 S    
C78   H50   1.109004 S    
C75   H39   1.113007 S    
N3    O49   1.299648 A    
C24   C32   1.410573 A    
C82   H62   1.114039 S    
C23   N7    1.437478 S    
O35   C79   1.410719 S    
O1    V3    2.015070 S    
C87   H75   1.112495 S    
C70   H26   1.109155 S    
C22   C30   1.410569 A    
N1    O45   1.299647 A    
C80   H54   1.111210 S    
O14   V4    2.027484 S    
C39   C47   1.404726 A    
C29   O34   1.384374 S    
O33   C77   1.410715 S    
C17   N1    1.437371 S    
C83   H63   1.112509 S    
C69   H23   1.112532 S    
C15   C55   1.416901 A    
C66   H14   1.109156 S    
O11   V2    2.027484 S    
C41   O21   1.383736 S    
C82   H60   1.108610 S    
C22   N6    1.433756 S    
N5    O53   1.299648 A    
C5    C12   1.490895 S    
C6    C11   1.495641 S    
O4    V3    2.015054 S    
O23   C67   1.410302 S    
C84   H68   1.113881 S    
C9    C49   1.417014 A    
C14   C22   1.416771 A    
C85   H71   1.111439 S    
C35   C59   1.487785 S    
O8    C5    1.326261 A    
C35   C43   1.404696 A    
C30   O33   1.383538 S    
O13   C5    1.331427 A    
H3    C60   1.085857 S    
C66   H13   1.113715 S    
O9    C1    1.331409 A    
C76   H44   1.109004 S    
C80   H55   1.113940 S    
C73   H34   1.112927 S    
C53   O42   1.385800 S    
C10   C18   1.416783 A    
O4    C1    1.326279 A    
C26   O29   1.383543 S    
C20   N4    1.433776 S    
C79   H51   1.113009 S    
C31   C39   1.409601 A    
O3    V4    2.015056 S    
N4    O51   1.301309 A    
N4    O52   1.297711 A    
C77   H45   1.113002 S    
C36   C44   1.407989 A    
O8    V1    2.015088 S    
C56   O43   1.384117 S    
C1    C16   1.490892 S    
O27   C71   1.410294 S    
O7    C6    1.331796 A    
C71   H29   1.112520 S    
C59   C60   1.347163 D    
O36   C80   1.412405 S    
C15   C23   1.424959 A    
C68   H18   1.112022 S    
C80   H56   1.109001 S    
C29   C37   1.409535 A    
C74   H37   1.113944 S    
C47   O27   1.383733 S    
N8    O59   1.301310 A    
O1    C4    1.331758 A    
O19   V1    1.756276 S    
O2    C3    1.326225 A    
C25   C33   1.409528 A    
C12   C52   1.412378 A    
C73   H35   1.108941 S    
N6    O56   1.297762 A    
C12   C20   1.416862 A    
C81   H58   1.106422 S    
N3    O50   1.301432 A    
C48   C56   1.411410 A    
N1    O46   1.301440 A    
C65   H11   1.112526 S    
O29   C73   1.410712 S    
C37   C61   1.487806 S    
C67   H17   1.112526 S    
C27   O32   1.384375 S    
C13   C53   1.417034 A    
O10   V2    2.027545 S    
O40   C84   1.412946 S    
O14   C6    1.329101 A    
O20   V2    1.756276 S    
C76   H42   1.111210 S    
O39   C83   1.411421 S    
N5    O54   1.301440 A    
C87   H76   1.106415 S    
O25   C69   1.410306 S    
C43   C51   1.413918 A    
C31   O36   1.384370 S    
C72   H30   1.112019 S    
O5    C8    1.331789 A    
O10   C2    1.329008 A    
C87   H77   1.111451 S    
O6    C7    1.326291 A    
C50   O37   1.384106 S    
C18   N2    1.433727 S    
N6    O55   1.301303 A    
C36   C60   1.487825 S    
O7    V2    2.015086 S    
C67   H16   1.113458 S    
H4    C59   1.085045 S    
C32   C40   1.410520 A    
O41   C85   1.411445 S    
C46   O26   1.383619 S    
C65   H10   1.113461 S    
C69   H22   1.113460 S    
O15   V4    2.027524 S    
O13   V3    2.027486 S    
C78   H48   1.111213 S    
C70   H25   1.113714 S    
C73   H33   1.113004 S    
O37   C81   1.411453 S    
O16   V3    2.027522 S    
C45   C53   1.413921 A    
C32   O35   1.383549 S    
C40   C64   1.487776 S    
O2    V4    2.015068 S    
H8    C63   1.085061 S    
C19   C27   1.410727 A    
O32   C76   1.412404 S    
C28   C36   1.410554 A    
C40   C48   1.407963 A    
C84   H66   1.108427 S    
C21   N5    1.437325 S    
C66   H12   1.112009 S    
C38   C62   1.487841 S    
C72   H31   1.113712 S    
O30   C74   1.412401 S    
C52   O39   1.384111 S    
C85   H70   1.106431 S    
C14   C54   1.412314 A    
O26   C70   1.410261 S    
C57   C58   1.347167 D    
O6    V2    2.015051 S    
C74   H36   1.111217 S    
O44   C88   1.413167 S    
C68   H19   1.113712 S    
