data_mof_unit_11103.cif
_audit_creation_date              2012-10-26T18:52:44-0400
_audit_creation_method            fapswitch 2.2
_symmetry_space_group_name_H-M    P1
_symmetry_Int_Tables_number       1
_space_group_crystal_system       triclinic
_cell_length_a                    10.730722
_cell_length_b                    14.733864
_cell_length_c                    14.745176
_cell_angle_alpha                 64.719335
_cell_angle_beta                  104.056533
_cell_angle_gamma                 103.297316
_cell_volume                      2023.58693994

loop_
_atom_site_label
_atom_site_type_symbol
_atom_type_description
_atom_site_fract_x
_atom_site_fract_y
_atom_site_fract_z
_atom_type_partial_charge
C1    C     C_R   0.480042 0.119864 0.312156 0.533423
C2    C     C_R   0.530359 0.361538 0.082706 0.030788
C3    C     C_R   0.522639 0.322787 0.008166 0.040741
C4    C     C_R   0.259823 0.000026 0.499804 0.540480
C5    C     C_R   0.562078 0.468065 0.057781 0.021179
C6    C     C_R   0.557938 0.534568 0.953462 -0.010140
C7    C     C_R   0.550372 0.493163 0.881189 -0.138003
C8    C     C_R   0.536407 0.389191 0.908921 -0.136707
C9    C     C_R   0.602268 0.511055 0.132534 0.240908
C10   C     C_R   0.614518 0.615579 0.103271 -0.112464
C11   C     C_R   0.593017 0.680217 0.001136 0.000831
C12   C     C_3   0.877829 0.999559 0.499698 0.049246
C13   C     C_R   0.564304 0.640550 0.925054 0.016303
C14   C     C_R   0.601549 0.784757 0.974268 -0.137105
C15   C     C_R   0.579234 0.850489 0.872431 -0.137663
C16   C     C_R   0.523733 0.880088 0.687972 0.542521
C17   C     C_R   0.538000 0.708022 0.822952 -0.129349
C18   C     C_R   0.724050 0.286106 0.665975 -0.168138
C19   C     C_R   0.687318 0.204348 0.636373 0.028975
C20   C     C_R   0.516609 0.283760 0.512315 0.044407
C21   C     C_R   0.547745 0.368814 0.540098 0.008993
C22   C     C_R   0.654593 0.368761 0.618050 0.031778
C23   C     C_3   0.958903 0.985718 0.606071 -0.236734
C24   C     C_R   0.477615 0.453429 0.492836 0.033641
C25   C     C_R   0.517732 0.539145 0.521147 0.024591
C26   C     C_R   0.625021 0.534829 0.599668 -0.146413
C27   C     C_R   0.691268 0.451006 0.647348 -0.136895
C28   C     C_R   0.740011 0.999890 0.499922 0.545198
C29   C     C_R   0.367515 0.454102 0.418643 -0.131265
C30   C     C_R   0.304001 0.537391 0.367987 -0.126477
C31   C     C_R   0.345347 0.625060 0.388813 0.040927
C32   C     C_R   0.449499 0.626036 0.468984 -0.018142
C33   C     C_R   0.283226 0.711374 0.329686 -0.005981
C34   C     C_3   0.933103 0.101164 0.419763 -0.233246
C35   C     C_R   0.316685 0.795521 0.357920 0.171481
C36   C     C_R   0.481115 0.714265 0.492165 0.013362
C37   C     C_3   0.034201 0.911653 0.472780 -0.230363
C38   C     C_3   0.891596 0.911380 0.473128 -0.229627
C39   C     C_3   0.102747 0.985656 0.606052 -0.231355
C40   C     C_3   0.077054 0.101288 0.419797 -0.236917
C41   C     C_3   0.121568 0.999697 0.499611 0.048916
C42   C     C_3   0.766532 0.439818 0.255230 -0.019570
C43   C     C_3   0.801656 0.372548 0.366978 -0.363362
C44   C     C_3   0.239917 0.883216 0.295131 -0.327277
C45   C     C_R   0.483699 0.187734 0.205130 -0.023730
C46   C     C_3   0.182812 0.712529 0.235691 -0.424545
C47   C     C_R   0.546283 0.812317 0.796180 -0.006961
C48   C     C_R   0.499820 0.217718 0.033566 -0.138973
C49   C     C_R   0.483169 0.150436 0.132177 -0.145827
C50   C     C_R   0.500193 0.292446 0.178208 -0.116660
Cu1   Cu    Cu3+1 0.465900 0.918260 0.475680 0.906113
Cu2   Cu    Cu3+1 0.534100 0.081740 0.524320 0.905048
H1    H     H_    0.063846 0.837401 0.528705 0.134241
H2    H     H_    0.470657 0.069628 0.151358 0.127605
H3    H     H_    0.485364 0.318471 0.232309 0.187219
H4    H     H_    0.044871 0.920167 0.396229 0.114437
H5    H     H_    0.560034 0.539568 0.802895 0.104379
H6    H     H_    0.625264 0.815671 0.032184 0.101941
H7    H     H_    0.773011 0.450991 0.707351 0.107805
H8    H     H_    0.558245 0.719958 0.552500 0.118191
H9    H     H_    0.220511 0.530861 0.311694 0.107110
H10   H     H_    0.806004 0.284550 0.726159 0.090427
H11   H     H_    0.740284 0.140199 0.673982 0.121887
H12   H     H_    0.924951 0.165892 0.437026 0.122775
H13   H     H_    0.439015 0.277942 0.452493 0.123003
H14   H     H_    0.834278 0.919213 0.396922 0.129342
H15   H     H_    0.660699 0.595460 0.625917 0.086211
H16   H     H_    0.326387 0.390912 0.397153 0.086954
H17   H     H_    0.853174 0.837190 0.529634 0.121609
H18   H     H_    0.134025 0.912907 0.664375 0.111969
H19   H     H_    0.920604 0.913083 0.664538 0.107627
H20   H     H_    0.137504 0.166041 0.437134 0.120915
H21   H     H_    0.089830 0.112637 0.342785 0.101972
H22   H     H_    0.876120 0.112431 0.342757 0.110310
H23   H     H_    0.163873 0.047888 0.627360 0.129584
H24   H     H_    0.831005 0.514063 0.239327 0.126354
H25   H     H_    0.784200 0.402204 0.208969 0.131469
H26   H     H_    0.741751 0.296696 0.384375 0.190202
H27   H     H_    0.905726 0.363194 0.384473 0.078825
H28   H     H_    0.784222 0.407381 0.415533 0.169880
H29   H     H_    0.251658 0.943103 0.321590 0.191463
H30   H     H_    0.264548 0.920667 0.217214 0.094072
H31   H     H_    0.134417 0.854383 0.291637 0.078839
H32   H     H_    0.150111 0.786362 0.185027 0.122861
H33   H     H_    0.224951 0.691628 0.186700 0.131375
H34   H     H_    0.951405 0.048101 0.627201 0.122244
H35   H     H_    0.094951 0.657695 0.259572 0.120087
H36   H     H_    0.532517 0.360608 0.851476 0.115077
H37   H     H_    0.507323 0.680631 0.762843 0.120234
H38   H     H_    0.586815 0.930913 0.853516 0.124300
H39   H     H_    0.641812 0.646171 0.161591 0.125481
H40   H     H_    0.496301 0.187642 0.977384 0.104573
N1    N     N_R   0.585360 0.204570 0.560800 -0.239407
N2    N     N_R   0.414550 0.795430 0.439160 -0.230649
O1    O     O_R   0.455060 0.022100 0.338110 -0.514456
O2    O     O_R   0.512640 0.160150 0.379180 -0.508820
O3    O     O_R   0.288900 0.930980 0.479450 -0.520309
O4    O     O_R   0.346480 0.069030 0.520520 -0.506988
O5    O     O_R   0.487360 0.839850 0.620820 -0.507599
O6    O     O_R   0.544940 0.977900 0.661890 -0.502349
O7    O     O_R   0.653520 0.930970 0.479480 -0.508094
O8    O     O_R   0.711100 0.069020 0.520550 -0.514848
O9    O     O_3   0.635049 0.453305 0.234953 -0.581285

loop_
_geom_bond_atom_site_label_1
_geom_bond_atom_site_label_2
_ccdc_geom_bond_type
Cu1   O3    S    
C20   N1    A    
C4    O4    A    
C15   C47   A    
C44   H31   S    
C42   O9    S    
C7    C8    A    
C39   C41   S    
C43   H26   S    
C12   C23   S    
Cu2   O8    S    
C26   C27   A    
C37   C38   S    
C12   C28   S    
C34   C40   S    
C26   H15   S    
C32   C36   A    
C44   H30   S    
C30   C31   A    
C11   C14   A    
C4    C41   S    
C43   H27   S    
C49   H2    S    
C3    C48   A    
C40   H21   S    
C18   C19   A    
C24   C29   A    
C2    C50   A    
C37   H4    S    
C28   O7    A    
C38   H14   S    
C19   H11   S    
C23   H34   S    
C31   C33   A    
C39   H23   S    
C9    C10   A    
C19   N1    A    
C9    O9    S    
C46   H33   S    
C37   H1    S    
C25   C32   A    
C38   H17   S    
C21   C22   A    
C12   C38   S    
C33   C46   S    
C16   C47   S    
Cu1   O5    S    
C14   H6    S    
Cu1   Cu2   S    
C23   H19   S    
C20   H13   S    
C17   H37   S    
C24   C25   A    
C44   H29   S    
C16   O6    A    
C43   H28   S    
Cu2   O6    S    
C8    H36   S    
C5    C9    A    
C29   C30   A    
C28   O8    A    
C29   H16   S    
C31   C32   A    
C45   C49   A    
C1    O1    A    
C34   H12   S    
Cu2   N1    S    
C35   C44   S    
C34   H22   S    
C46   H32   S    
C48   C49   A    
C10   H39   S    
C3    C8    A    
C22   C27   A    
C21   C24   A    
C2    C5    A    
C42   C43   S    
C12   C34   S    
C46   H35   S    
C35   N2    A    
C40   C41   S    
C40   H20   S    
C18   C22   A    
C18   H10   S    
C17   C47   A    
C36   H8    S    
C16   O5    A    
C6    C7    A    
Cu1   O7    S    
C42   H24   S    
C50   H3    S    
C13   C17   A    
C2    C3    A    
C25   C26   A    
C27   H7    S    
C15   H38   S    
C11   C13   A    
C1    C45   S    
C5    C6    A    
C45   C50   A    
C1    O2    A    
C23   C39   S    
Cu2   O4    S    
C33   C35   A    
C39   H18   S    
Cu2   O2    S    
C37   C41   S    
C10   C11   A    
Cu1   N2    S    
C36   N2    A    
C20   C21   A    
C42   H25   S    
C48   H40   S    
C30   H9    S    
C14   C15   A    
C4    O3    A    
C7    H5    S    
Cu1   O1    S    
C6    C13   A    
