data_mof_unit_30734.cif
_audit_creation_date              2012-10-26T20:01:50-0400
_audit_creation_method            fapswitch 2.2
_symmetry_space_group_name_H-M    P1
_symmetry_Int_Tables_number       1
_space_group_crystal_system       triclinic
_cell_length_a                    11.658976
_cell_length_b                    10.707903
_cell_length_c                    9.782059
_cell_angle_alpha                 92.193476
_cell_angle_beta                  89.083993
_cell_angle_gamma                 93.573337
_cell_volume                      1217.84279857

loop_
_atom_site_label
_atom_site_type_symbol
_atom_type_description
_atom_site_fract_x
_atom_site_fract_y
_atom_site_fract_z
_atom_type_partial_charge
C1    C     C_R   0.514229 0.263563 0.498037 0.582484
C2    C     C_R   0.483702 0.874098 0.511341 -0.024508
C3    C     C_R   0.665740 0.653122 0.143179 -0.077369
C4    C     C_R   0.284663 0.499603 0.500787 0.553519
C5    C     C_R   0.754295 0.719943 0.072500 0.248128
C6    C     C_R   0.748679 0.724956 0.930553 0.218835
C7    C     C_R   0.660536 0.657202 0.860948 -0.095394
C8    C     C_R   0.580318 0.575573 0.927110 0.061339
C9    C     C_R   0.581175 0.574839 0.074996 0.081916
C10   C     C_R   0.420220 0.433336 0.074783 0.076787
C11   C     C_R   0.416582 0.434339 0.928843 0.357359
C12   C     C_R   0.531304 0.107753 0.867442 0.269118
C13   C     C_R   0.492040 0.737411 0.503380 0.561382
C14   C     C_R   0.715327 0.500205 0.499245 0.543489
C15   C     C_1   0.162690 0.499714 0.502090 0.038388
C16   C     C_1   0.059953 0.499688 0.501354 0.009671
C17   C     C_1   0.939939 0.499524 0.499472 -0.007618
C18   C     C_1   0.837222 0.499628 0.498318 0.010640
C19   C     C_R   0.590437 0.132748 0.742637 0.248969
C20   C     C_3   0.775994 0.189356 0.681104 -0.083579
C21   C     C_3   0.640120 0.255615 0.004636 0.000910
C22   C     C_3   0.262829 0.831652 0.700536 -0.033988
C23   C     C_R   0.450770 0.002997 0.868437 0.274883
C24   C     C_3   0.292894 0.859111 0.332682 -0.034854
C25   C     C_3   0.894405 0.720150 0.236736 -0.040856
C26   C     C_R   0.443856 0.915911 0.756710 0.232791
C27   C     C_R   0.499927 0.946916 0.632810 -0.115265
C28   C     C_R   0.548557 0.069231 0.623113 -0.103149
C29   C     C_R   0.540753 0.129319 0.497596 -0.043222
C30   C     C_R   0.529509 0.054328 0.377882 0.300949
C31   C     C_R   0.472988 0.936655 0.390257 0.282192
Cu1   Cu    Cu3+1 0.499990 0.499990 0.640660 1.101997
Cu2   Cu    Cu3+1 0.500010 0.500010 0.359340 0.999648
H1    H     H_    0.657013 0.671949 0.754394 0.212320
H2    H     H_    0.639387 0.294961 0.110657 0.194287
H3    H     H_    0.652451 0.338570 0.941086 0.148373
H4    H     H_    0.713024 0.193784 0.991821 0.150000
H5    H     H_    0.259076 0.799649 0.013675 0.358992
H6    H     H_    0.253541 0.769321 0.608041 0.090167
H7    H     H_    0.252611 0.930303 0.672209 0.108865
H8    H     H_    0.190940 0.804430 0.771042 0.216994
H9    H     H_    0.281592 0.762231 0.369001 0.100574
H10   H     H_    0.231724 0.866352 0.248587 0.192615
H11   H     H_    0.265705 0.927677 0.413779 0.068936
H12   H     H_    0.355237 0.380338 0.131974 0.188306
H13   H     H_    0.906780 0.622512 0.198168 0.107013
H14   H     H_    0.845389 0.720263 0.334931 0.140801
H15   H     H_    0.980899 0.765181 0.257920 0.158391
H16   H     H_    0.664764 0.667372 0.251192 0.200748
H17   H     H_    0.700863 0.980845 0.076549 0.355240
H18   H     H_    0.866531 0.994800 0.933065 0.333050
H19   H     H_    0.317192 0.189394 0.750363 0.342680
H20   H     H_    0.769301 0.158051 0.571811 0.192353
H21   H     H_    0.805805 0.113249 0.743254 0.157623
H22   H     H_    0.842461 0.268012 0.687532 0.160204
N1    N     N_R   0.501070 0.501210 0.147910 -0.283750
N2    N     N_R   0.501110 0.501290 0.852040 -0.243750
O1    O     O_R   0.499990 0.319640 0.618810 -0.427443
O2    O     O_2   0.731229 0.956507 0.346144 -0.272352
O3    O     O_3   0.625558 0.991941 0.121719 -0.459106
O4    O     O_2   0.943453 0.721712 0.785810 -0.253649
O5    O     O_2   0.801701 0.862245 0.711702 -0.335702
O6    O     O_3   0.921044 0.927497 0.928444 -0.418658
O7    O     O_2   0.226558 0.281498 0.967148 -0.251261
O8    O     O_2   0.206814 0.464313 0.834307 -0.245218
O9    O     O_3   0.300949 0.273139 0.718872 -0.494243
O10   O     O_3   0.671359 0.232622 0.732489 -0.575759
O11   O     O_3   0.532615 0.191357 0.980428 -0.519936
O12   O     O_R   0.500000 0.319660 0.381240 -0.476241
O13   O     O_2   0.372959 0.067574 0.122270 -0.170134
O14   O     O_2   0.231701 0.017195 0.944233 -0.268990
O15   O     O_3   0.338127 0.832284 0.036345 -0.452054
O16   O     O_3   0.367844 0.811276 0.764326 -0.509539
O17   O     O_3   0.407583 0.883671 0.284527 -0.436935
O18   O     O_3   0.840526 0.791413 0.140716 -0.482253
O19   O     O_R   0.337190 0.500000 0.618790 -0.396107
O20   O     O_R   0.337200 0.500030 0.381210 -0.522488
O21   O     O_R   0.500000 0.680340 0.618760 -0.483329
O22   O     O_R   0.500010 0.680360 0.381190 -0.479095
O23   O     O_R   0.662800 0.499970 0.618790 -0.499595
O24   O     O_R   0.662810 0.500000 0.381210 -0.540474
O25   O     O_2   0.721286 0.172416 0.278916 -0.332270
S1    S     S_3+6 0.656943 0.046570 0.280652 0.047721
S2    S     S_3+6 0.855010 0.810062 0.834562 0.019219
S3    S     S_3+6 0.285675 0.362646 0.861894 0.077349
S4    S     S_3+6 0.345650 0.984728 0.998286 0.111916

loop_
_geom_bond_atom_site_label_1
_geom_bond_atom_site_label_2
_ccdc_geom_bond_type
C8    C9    A    
C13   O22   A    
C24   H9    S    
C14   C18   S    
C20   O10   S    
Cu1   O1    S    
C24   O17   S    
O9    S3    S    
C3    H16   S    
C7    C8    A    
C21   H3    S    
C12   O11   S    
C12   C23   A    
C26   C27   A    
C28   C29   A    
O2    S1    D    
C30   C31   A    
O3    S1    S    
C22   H8    S    
C15   C16   T    
C26   O16   S    
C23   C26   A    
C30   S1    S    
C2    C13   S    
C16   C17   S    
C23   S4    S    
C19   O10   S    
C2    C27   A    
C14   O23   A    
C10   N1    A    
C25   H14   S    
Cu2   O12   S    
Cu2   N1    S    
Cu1   N2    S    
C20   H22   S    
H5    O15   S    
C6    S2    S    
H18   O6    S    
C20   H21   S    
Cu2   O22   S    
C31   O17   S    
C1    O12   A    
C2    C31   A    
C25   O18   S    
C5    O18   S    
C29   C30   A    
C3    C9    A    
C8    N2    A    
Cu1   O23   S    
O14   S4    D    
C22   H7    S    
C10   H12   S    
C1    C29   S    
C17   C18   T    
C9    N1    A    
C19   C28   A    
C25   H15   S    
C21   O11   S    
C24   H11   S    
C7    H1    S    
O13   S4    D    
O7    S3    D    
H19   O9    S    
O5    S2    D    
C13   O21   A    
C20   H20   S    
C3    C5    A    
O4    S2    D    
Cu1   O19   S    
O15   S4    S    
O8    S3    D    
C6    C7    A    
C21   H2    S    
C22   O16   S    
O6    S2    S    
H17   O3    S    
Cu1   Cu2   S    
C4    C15   S    
C4    O20   A    
C1    O1    A    
Cu2   O20   S    
C5    C6    A    
C11   S3    S    
C22   H6    S    
C12   C19   A    
C4    O19   A    
C10   C11   A    
Cu1   O21   S    
C21   H4    S    
O25   S1    D    
C27   C28   A    
C24   H10   S    
C14   O24   A    
C11   N2    A    
Cu2   O24   S    
C25   H13   S    
