data_mof_unit_55586.cif
_audit_creation_date              2012-12-10T17:16:39-0500
_audit_creation_method            fapswitch 2.2
_symmetry_space_group_name_H-M    P1
_symmetry_Int_Tables_number       1
_space_group_crystal_system       triclinic
_cell_length_a                    10.233323
_cell_length_b                    10.756571
_cell_length_c                    10.857215
_cell_angle_alpha                 92.525415
_cell_angle_beta                  94.556228
_cell_angle_gamma                 80.283935
_cell_volume                      1173.67625874

loop_
_atom_site_label
_atom_site_type_symbol
_atom_type_description
_atom_site_fract_x
_atom_site_fract_y
_atom_site_fract_z
_atom_type_partial_charge
C1    C     C_R   0.445975 0.509010 0.267485 0.880299
C2    C     C_R   0.554418 0.489924 0.732170 0.827115
C3    C     C_2   0.420910 0.509848 0.133687 0.242831
C4    C     C_2   0.582205 0.478421 0.864565 0.242594
C5    C     C_2   0.512318 0.440058 0.064024 0.321208
C6    C     C_2   0.489883 0.441418 0.930492 0.239339
C7    C     C_2   0.069469 0.507171 0.474315 0.549396
C8    C     C_2   0.923234 0.521177 0.500263 0.635292
C9    C     C_R   0.500846 0.260195 0.499176 0.918828
C10   C     C_R   0.495736 0.740178 0.493965 0.837290
C11   C     C_R   0.584646 0.104440 0.283457 0.478338
C12   C     C_R   0.283299 0.931389 0.610176 0.540728
C13   C     C_R   0.667230 0.029064 0.202879 -0.225627
C14   C     C_R   0.241794 0.998006 0.717303 -0.370207
C15   C     C_R   0.693880 0.899135 0.215247 0.412980
C16   C     C_R   0.300638 0.101017 0.761890 0.451893
C17   C     C_R   0.629126 0.845121 0.303295 -0.350079
C18   C     C_R   0.391550 0.143114 0.690994 -0.152723
C19   C     C_R   0.557335 0.921723 0.393519 -0.032518
C20   C     C_R   0.432400 0.076442 0.581617 -0.115673
C21   C     C_R   0.550002 0.052597 0.391277 -0.039576
C22   C     C_R   0.398215 0.958069 0.555815 -0.063491
C23   C     C_R   0.481801 0.874170 0.478629 -0.131530
C24   C     C_R   0.499391 0.127198 0.492907 -0.130350
H1    H     H_    0.700651 0.070491 0.124381 0.175561
H2    H     H_    0.159036 0.973316 0.761825 0.168855
H3    H     H_    0.633017 0.744411 0.295951 0.183152
H4    H     H_    0.429575 0.228017 0.721252 0.200425
N1    N     N_2   0.157300 0.551390 0.551120 0.011378
N2    N     N_2   0.842700 0.448610 0.448880 0.000432
O1    O     O_R   0.568940 0.489660 0.307530 -0.567520
O2    O     O_R   0.431060 0.510340 0.692470 -0.583736
O3    O     O_R   0.348880 0.522640 0.340350 -0.587183
O4    O     O_R   0.651120 0.477360 0.659650 -0.577557
O5    O     O_R   0.610030 0.300280 0.483580 -0.604666
O6    O     O_R   0.389970 0.699720 0.516420 -0.571667
O7    O     O_R   0.389970 0.333270 0.516400 -0.637836
O8    O     O_R   0.610030 0.666730 0.483600 -0.611736
Zn1   Zn    Zn3+2 0.646940 0.477980 0.478080 1.040979
Zn2   Zn    Zn3+2 0.353060 0.522020 0.521920 1.037979
O9    O     O_3   0.263394 0.167983 0.868095 -0.773714
H5    H     H_    0.198839 0.125750 0.907005 0.330272
O10   O     O_3   0.773577 0.826885 0.133477 -0.784044
H6    H     H_    0.788065 0.737866 0.158862 0.341397
O11   O     O_3   0.514341 0.218098 0.243795 -0.599511
C25   C     C_3   0.411697 0.191725 0.156092 -0.351724
H7    H     H_    0.352247 0.124662 0.191088 0.144257
H8    H     H_    0.452822 0.154889 0.067371 0.211464
H9    H     H_    0.341696 0.279826 0.136209 0.189684
O12   O     O_3   0.197547 0.856489 0.552432 -0.587069
C26   C     C_3   0.144134 0.908838 0.438508 -0.305933
H10   H     H_    0.221533 0.903366 0.371327 0.155330
H11   H     H_    0.093645 0.008192 0.451416 0.161917
H12   H     H_    0.068682 0.853298 0.397447 0.181924
O13   O     O_3   0.372488 0.410778 0.874494 -0.719163
H13   H     H_    0.321581 0.381153 0.937953 0.392707
O14   O     O_3   0.628574 0.370735 0.116352 -0.696524
H14   H     H_    0.672255 0.314053 0.051725 0.351041
O15   O     O_3   0.703947 0.498497 0.921098 -0.608834
C27   C     C_3   0.719988 0.624402 0.905498 -0.185640
H15   H     H_    0.638325 0.691962 0.945505 0.142764
H16   H     H_    0.726906 0.644684 0.807019 0.191485
H17   H     H_    0.815223 0.639444 0.955093 0.234501
O16   O     O_3   0.304144 0.576241 0.078069 -0.596941
C28   C     C_3   0.287512 0.703945 0.119059 -0.278256
H18   H     H_    0.380626 0.744446 0.116757 0.120997
H19   H     H_    0.250878 0.715440 0.213117 0.183304
H20   H     H_    0.210970 0.759277 0.055959 0.206661
O17   O     O_3   0.870591 0.613735 0.584048 -0.588569
C29   C     C_3   0.878203 0.734580 0.541716 -0.263372
H21   H     H_    0.863558 0.740796 0.439224 0.131067
H22   H     H_    0.798647 0.804050 0.581586 0.194411
H23   H     H_    0.973937 0.763567 0.575028 0.226021
O18   O     O_3   0.104613 0.466660 0.356611 -0.606266
C30   C     C_3   0.154311 0.335565 0.353064 -0.100139
H24   H     H_    0.100568 0.289745 0.275837 0.189612
H25   H     H_    0.147203 0.285681 0.439761 0.127849
H26   H     H_    0.258276 0.320122 0.329167 0.186693
O19   O     O_3   0.887158 0.360762 0.364425 -0.731020
H27   H     H_    0.808807 0.321654 0.335675 0.398599
O20   O     O_3   0.122492 0.576306 0.667419 -0.662110
H28   H     H_    0.200268 0.604800 0.712693 0.401658

loop_
_geom_bond_atom_site_label_1
_geom_bond_atom_site_label_2
_ccdc_geom_bond_type
O13   H13   S    
C7    N1    D    
O9    H5    S    
C19   C23   A    
C6    O13   S    
O10   H6    S    
O20   H28   S    
C1    O3    A    
C7    C8    S    
O11   C25   S    
C25   H9    S    
C8    O17   S    
C27   H17   S    
C27   H16   S    
C19   C21   A    
O7    Zn2   S    
C5    C6    S    
C12   C22   A    
C1    O1    A    
C4    O15   S    
C2    O2    A    
C20   C24   A    
C28   H19   S    
C29   H21   S    
C2    O4    A    
O15   C27   S    
C13   H1    S    
C7    O18   S    
C25   H8    S    
O3    Zn2   S    
C29   H22   S    
O18   C30   S    
C26   H10   S    
C17   H3    S    
O6    Zn2   S    
C18   H4    S    
C4    C6    D    
C3    O16   S    
C11   C21   A    
O4    Zn1   S    
C27   H15   S    
C1    C3    S    
O5    Zn1   S    
C30   H24   S    
N1    O20   S    
C28   H20   S    
C29   H23   S    
C9    O7    A    
O12   C26   S    
C14   H2    S    
C30   H25   S    
N2    O19   S    
C20   C22   A    
C13   C15   A    
C14   C16   A    
C11   O11   S    
C15   C17   A    
C25   H7    S    
C12   C14   A    
C3    C5    D    
C12   O12   S    
C9    C24   S    
C10   C23   S    
C5    O14   S    
C10   O8    A    
C26   H12   S    
C8    N2    D    
O16   C28   S    
C15   O10   S    
C11   C13   A    
O14   H14   S    
O8    Zn1   S    
C2    C4    S    
N1    Zn2   S    
C17   C19   A    
O1    Zn1   S    
N2    Zn1   S    
C18   C20   A    
O2    Zn2   S    
O17   C29   S    
C30   H26   S    
O19   H27   S    
C16   C18   A    
C28   H18   S    
C21   C24   A    
C9    O5    A    
C22   C23   A    
C10   O6    A    
C26   H11   S    
C16   O9    S    
