data_mof_unit_15149.cif
_audit_creation_date              2012-12-10T16:44:44-0500
_audit_creation_method            fapswitch 2.2
_symmetry_space_group_name_H-M    P1
_symmetry_Int_Tables_number       1
_space_group_crystal_system       triclinic
_cell_length_a                    15.041137
_cell_length_b                    8.758935
_cell_length_c                    7.437588
_cell_angle_alpha                 102.953421
_cell_angle_beta                  93.928265
_cell_angle_gamma                 92.43846
_cell_volume                      950.990789554

loop_
_atom_site_label
_atom_site_type_symbol
_atom_type_description
_atom_site_fract_x
_atom_site_fract_y
_atom_site_fract_z
_atom_type_partial_charge
C1    C     C_R   0.496619 0.200370 0.453889 0.900920
C2    C     C_R   0.503383 0.799630 0.546111 0.900916
C3    C     C_R   0.046912 0.267505 0.624573 -0.111265
C4    C     C_R   0.953088 0.732498 0.375431 -0.111266
C5    C     C_2   0.488109 0.033317 0.429076 0.027674
C6    C     C_2   0.511897 0.966683 0.570922 0.027657
C7    C     C_R   0.329384 0.500985 0.503060 0.952024
C8    C     C_R   0.670616 0.499015 0.496940 0.952020
C9    C     C_R   0.813104 0.615176 0.436131 0.255256
C10   C     C_R   0.186895 0.384827 0.563871 0.255258
C11   C     C_R   0.766512 0.494131 0.490275 -0.184483
C12   C     C_R   0.233488 0.505870 0.509725 -0.184484
C13   C     C_R   0.810171 0.370606 0.543007 0.265025
C14   C     C_R   0.189829 0.629395 0.456992 0.265024
C15   C     C_R   0.904911 0.373233 0.554838 0.012650
C16   C     C_R   0.095089 0.626769 0.445163 0.012651
C17   C     C_R   0.952694 0.496958 0.497811 -0.028415
C18   C     C_R   0.047306 0.503044 0.502190 -0.028415
C19   C     C_R   0.906116 0.615240 0.436160 0.001432
C20   C     C_R   0.093884 0.384763 0.563842 0.001432
C21   C     C_R   0.954803 0.260194 0.622769 0.147188
C22   C     C_R   0.045197 0.739809 0.377234 0.147186
Cu1   Cu    Cu3+1 0.510010 0.517380 0.684380 1.048393
Cu2   Cu    Cu3+1 0.489990 0.482620 0.315620 1.048394
H1    H     H_    0.081415 0.178822 0.677451 0.216685
H2    H     H_    0.918585 0.821182 0.322554 0.216686
H3    H     H_    0.430490 0.378222 0.948272 0.255452
H4    H     H_    0.569510 0.621778 0.051728 0.255452
N1    N     N_2   0.474890 0.456420 0.038520 -0.201445
N2    N     N_2   0.525110 0.543580 0.961480 -0.201445
O1    O     O_R   0.506510 0.286130 0.619770 -0.542922
O2    O     O_R   0.493490 0.713870 0.380230 -0.542918
O3    O     O_R   0.489600 0.256770 0.308360 -0.614543
O4    O     O_R   0.510400 0.743230 0.691640 -0.614542
O5    O     O_R   0.378710 0.514640 0.655720 -0.568986
O6    O     O_R   0.621290 0.485360 0.344280 -0.568987
O7    O     O_R   0.361800 0.485290 0.344300 -0.558620
O8    O     O_R   0.638200 0.514710 0.655700 -0.558622
Cl1   Cl    Cl    0.753205 0.769271 0.374228 -0.633837
Cl2   Cl    Cl    0.246794 0.230732 0.625775 -0.633835
Cl3   Cl    Cl    0.740731 0.211890 0.577249 -0.626775
Cl4   Cl    Cl    0.259269 0.788108 0.422744 -0.626775
N3    N     N_3   0.916751 0.138770 0.699581 -0.562177
H5    H     H_    0.878205 0.187217 0.807451 0.281830
H6    H     H_    0.880970 0.054250 0.595437 0.302755
N4    N     N_3   0.083249 0.861235 0.300425 -0.562176
H7    H     H_    0.121794 0.812789 0.192552 0.281831
H8    H     H_    0.119031 0.945752 0.404570 0.302756
N5    N     N_3   0.450147 0.942504 0.252273 -0.523796
H9    H     H_    0.387866 0.984190 0.223367 0.265149
H10   H     H_    0.491816 0.959484 0.150712 0.224837
N6    N     N_3   0.549868 0.057494 0.747716 -0.523793
H11   H     H_    0.612148 0.015799 0.776609 0.265153
H12   H     H_    0.508205 0.040522 0.849285 0.224836

loop_
_geom_bond_atom_site_label_1
_geom_bond_atom_site_label_2
_ccdc_geom_bond_type
C4    H2    S    
N3    H5    S    
Cu2   O2    S    
N1    N2    D    
H3    N1    S    
Cu1   O8    S    
C4    C22   A    
C9    C11   A    
C18   C20   A    
Cu2   O3    S    
C1    O1    A    
C14   Cl4   S    
Cu1   O4    S    
C2    O4    A    
H4    N2    S    
Cu2   O7    S    
C7    O7    A    
C1    O3    A    
C3    C20   A    
C16   C18   A    
C2    C6    S    
N6    H11   S    
N3    H6    S    
C5    N5    S    
Cu2   O6    S    
C15   C21   A    
C8    O8    A    
C8    C11   S    
C1    C5    S    
C10   C12   A    
C13   Cl3   S    
C22   N4    S    
N6    H12   S    
C17   C18   A    
Cu1   O5    S    
C13   C15   A    
C5    C6    D    
C14   C16   A    
C7    C12   S    
C3    C21   A    
C11   C13   A    
Cu1   Cu2   S    
N4    H8    S    
C9    Cl1   S    
C3    H1    S    
Cu1   N2    S    
C2    O2    A    
N5    H9    S    
C8    O6    A    
C10   C20   A    
C15   C17   A    
N4    H7    S    
C17   C19   A    
C10   Cl2   S    
C16   C22   A    
C6    N6    S    
Cu2   N1    S    
C4    C19   A    
C7    O5    A    
C9    C19   A    
C21   N3    S    
C12   C14   A    
N5    H10   S    
Cu1   O1    S    
