data_mof_unit_24161.cif
_audit_creation_date              2012-12-10T17:21:07-0500
_audit_creation_method            fapswitch 2.2
_symmetry_space_group_name_H-M    P1
_symmetry_Int_Tables_number       1
_space_group_crystal_system       triclinic
_cell_length_a                    10.125729
_cell_length_b                    10.659729
_cell_length_c                    10.785683
_cell_angle_alpha                 90.640103
_cell_angle_beta                  95.103205
_cell_angle_gamma                 81.243885
_cell_volume                      1146.04750818

loop_
_atom_site_label
_atom_site_type_symbol
_atom_type_description
_atom_site_fract_x
_atom_site_fract_y
_atom_site_fract_z
_atom_type_partial_charge
C1    C     C_R   0.444327 0.511592 0.267250 0.928364
C2    C     C_2   0.926945 0.510574 0.510121 -0.134126
C3    C     C_R   0.500942 0.257892 0.503913 0.850571
C4    C     C_R   0.555193 0.499656 0.732815 0.914680
C5    C     C_R   0.502633 0.741505 0.508204 0.823419
C6    C     C_3   0.473368 0.073454 0.371949 -0.094874
C7    C     C_3   0.463393 0.930287 0.376179 -0.127344
C8    C     C_3   0.643651 0.054092 0.568187 -0.041159
C9    C     C_3   0.390345 0.089749 0.585680 -0.440627
C10   C     C_3   0.503604 0.121411 0.507871 -0.004177
C11   C     C_1   0.361268 0.644817 0.887023 0.228964
C12   C     C_3   0.505643 0.877674 0.512141 0.038261
C13   C     C_3   0.649126 0.908069 0.560537 -0.029450
C14   C     C_3   0.399346 0.945187 0.598860 -0.082473
C15   C     C_2   0.413615 0.535659 0.136076 -0.377896
C16   C     C_2   0.512563 0.557848 0.068866 -0.208362
C17   C     C_2   0.583822 0.514937 0.865678 -0.438012
C18   C     C_2   0.489387 0.573863 0.936083 0.057201
C19   C     C_2   0.073125 0.489259 0.490062 -0.136248
H1    H     H_    0.615160 0.554150 0.110074 0.184891
H2    H     H_    0.725147 0.077754 0.514305 0.136825
H3    H     H_    0.721922 0.871804 0.492384 0.105126
H4    H     H_    0.393735 0.137267 0.678008 0.189907
H5    H     H_    0.290394 0.127951 0.537930 0.162906
H6    H     H_    0.298226 0.920467 0.568591 0.148198
H7    H     H_    0.667538 0.066497 0.316713 0.187274
H8    H     H_    0.559952 0.199265 0.270656 0.193003
H9    H     H_    0.350916 0.943481 0.779553 0.192333
H10   H     H_    0.444089 0.809621 0.736565 0.201290
H11   H     H_    0.677064 0.194768 0.698130 0.190249
H12   H     H_    0.680336 0.469558 0.908476 0.149345
H13   H     H_    0.604297 0.077735 0.755268 0.235466
H14   H     H_    0.709760 0.748590 0.673444 0.184992
H15   H     H_    0.797996 0.865574 0.702982 0.194268
H16   H     H_    0.638320 0.839113 0.304352 0.198563
H17   H     H_    0.499550 0.773360 0.262148 0.192317
H18   H     H_    0.311371 0.537178 0.095094 0.161569
H19   H     H_    0.890207 0.580343 0.577873 0.155969
H20   H     H_    0.109941 0.419347 0.422444 0.160122
H21   H     H_    0.880863 0.382356 0.385397 0.157889
H22   H     H_    0.372816 0.123439 0.335151 0.137375
H23   H     H_    0.119028 0.617851 0.614373 0.172838
H24   H     H_    0.355221 0.921696 0.354635 0.138615
N1    N     N_2   0.157300 0.551950 0.551120 -0.191758
N2    N     N_2   0.842730 0.448000 0.448950 -0.195926
N3    N     N_3   0.568789 0.101358 0.284395 -0.424860
N4    N     N_3   0.432655 0.908210 0.729775 -0.418595
N5    N     N_3   0.675119 0.097084 0.696474 -0.450589
N6    N     N_3   0.700057 0.847103 0.681032 -0.422539
N7    N     N_1   0.258930 0.700839 0.848982 -0.255786
N8    N     N_3   0.535660 0.859352 0.278324 -0.416195
O1    O     O_R   0.568940 0.489540 0.307530 -0.610812
O2    O     O_R   0.348880 0.522880 0.340350 -0.606820
O3    O     O_R   0.610030 0.298130 0.483570 -0.629281
O4    O     O_R   0.389960 0.331470 0.516390 -0.618533
O5    O     O_R   0.651120 0.477120 0.659650 -0.615422
O6    O     O_R   0.431060 0.510460 0.692470 -0.592535
O7    O     O_R   0.610040 0.668530 0.483610 -0.634120
O8    O     O_R   0.389970 0.701870 0.516430 -0.627320
Zn1   Zn    Zn3+2 0.646940 0.477740 0.478080 0.915055
Zn2   Zn    Zn3+2 0.353060 0.522260 0.521920 0.937993

loop_
_geom_bond_atom_site_label_1
_geom_bond_atom_site_label_2
_ccdc_geom_bond_type
C4    O6    A    
C6    C10   S    
C9    C14   S    
C8    N5    S    
C9    H5    S    
O6    Zn2   S    
C6    C7    S    
C1    C15   S    
C7    H24   S    
N1    Zn2   S    
O1    Zn1   S    
C9    C10   S    
C2    H19   S    
C16   H1    S    
C17   C18   D    
C7    N8    S    
C11   C18   S    
C3    C10   S    
O3    Zn1   S    
C4    O5    A    
C12   C13   S    
H13   N5    S    
H21   N2    S    
H17   N8    S    
H23   N1    S    
C5    O7    A    
H10   N4    S    
C13   N6    S    
C4    C17   S    
C19   H20   S    
H9    N4    S    
H11   N5    S    
C3    O3    A    
C12   C14   S    
C13   H3    S    
C8    H2    S    
C14   H6    S    
H16   N8    S    
C7    C12   S    
C17   H12   S    
C1    O1    A    
O8    Zn2   S    
C2    N2    D    
C5    O8    A    
O7    Zn1   S    
C15   C16   D    
C8    C13   S    
O4    Zn2   S    
C19   N1    D    
H8    N3    S    
O2    Zn2   S    
C16   C18   S    
H14   N6    S    
C11   N7    T    
C1    O2    A    
C9    H4    S    
N2    Zn1   S    
C6    N3    S    
C2    C19   S    
C14   N4    S    
C3    O4    A    
C8    C10   S    
C15   H18   S    
H7    N3    S    
O5    Zn1   S    
H15   N6    S    
C6    H22   S    
C5    C12   S    
