data_mof_unit_28538.cif
_audit_creation_date              2012-12-10T18:44:21-0500
_audit_creation_method            fapswitch 2.2
_symmetry_space_group_name_H-M    P1
_symmetry_Int_Tables_number       1
_space_group_crystal_system       triclinic
_cell_length_a                    12.946159
_cell_length_b                    10.640014
_cell_length_c                    9.957855
_cell_angle_alpha                 89.981395
_cell_angle_beta                  97.813289
_cell_angle_gamma                 93.842538
_cell_volume                      1355.8252155

loop_
_atom_site_label
_atom_site_type_symbol
_atom_type_description
_atom_site_fract_x
_atom_site_fract_y
_atom_site_fract_z
_atom_type_partial_charge
C1    C     C_R   0.511859 0.261109 0.502727 0.951647
C2    C     C_R   0.488142 0.738891 0.497273 0.951643
C3    C     C_R   0.473371 0.872870 0.492014 -0.236762
C4    C     C_R   0.526634 0.127131 0.507987 -0.236767
C5    C     C_R   0.560735 0.587766 0.083058 0.337963
C6    C     C_R   0.439265 0.412234 0.916942 0.337961
C7    C     C_R   0.557511 0.591518 0.939344 -0.099828
C8    C     C_R   0.442489 0.408481 0.060656 -0.099823
C9    C     C_R   0.298192 0.504060 0.471863 0.958153
C10   C     C_R   0.701808 0.495939 0.528137 0.958150
C11   C     C_R   0.814764 0.490606 0.547816 -0.209111
C12   C     C_R   0.185236 0.509393 0.452184 -0.209109
C13   C     C_R   0.015667 0.465125 0.320316 0.263716
C14   C     C_R   0.984333 0.534874 0.679684 0.263716
C15   C     C_R   0.123243 0.489440 0.325023 0.274914
C16   C     C_R   0.876757 0.510558 0.674977 0.274915
C17   C     C_R   0.138277 0.527585 0.567748 -0.164590
C18   C     C_R   0.861723 0.472415 0.432252 -0.164593
C19   C     C_R   0.030843 0.517311 0.562072 -0.017370
C20   C     C_R   0.969157 0.482688 0.437928 -0.017371
C21   C     C_R   0.534379 0.062616 0.386813 -0.175778
C22   C     C_R   0.465627 0.937385 0.613188 -0.175772
C23   C     C_R   0.492899 0.938624 0.374298 0.287974
C24   C     C_R   0.507107 0.061377 0.625703 0.287966
H1    H     H_    0.813308 0.452873 0.336447 0.243816
H2    H     H_    0.186692 0.547127 0.663552 0.243814
N1    N     N_R   0.499970 0.499970 0.857200 -0.161056
N2    N     N_R   0.500030 0.500030 0.142800 -0.161055
O1    O     O_R   0.499990 0.316750 0.614620 -0.561435
O2    O     O_R   0.500010 0.683250 0.385380 -0.561434
O3    O     O_R   0.499990 0.316780 0.385290 -0.612140
O4    O     O_R   0.500010 0.683220 0.614710 -0.612151
O5    O     O_R   0.346360 0.499970 0.595710 -0.594743
O6    O     O_R   0.653640 0.500030 0.404290 -0.594739
O7    O     O_R   0.346360 0.499990 0.366380 -0.553183
O8    O     O_R   0.653640 0.500010 0.633620 -0.553183
Zn1   Zn    Zn3+2 0.500000 0.499980 0.653120 1.087606
Zn2   Zn    Zn3+2 0.500000 0.500020 0.346880 1.087611
Br1   Br    Br    0.821355 0.492516 0.844467 -0.281311
Br2   Br    Br    0.178645 0.507479 0.155533 -0.281313
Br3   Br    Br    0.935671 0.396845 0.155904 -0.304729
Br4   Br    Br    0.064328 0.603152 0.844096 -0.304729
C25   C     C_2   0.601257 0.117185 0.286491 1.019723
O9    O     O_2   0.663657 0.207027 0.319240 -0.626305
O10   O     O_R   0.599780 0.061494 0.159161 -0.658523
H3    H     H_    0.651758 0.105399 0.104263 0.384764
C26   C     C_2   0.398747 0.882815 0.713507 1.019718
O11   O     O_2   0.336335 0.792986 0.680748 -0.626304
O12   O     O_R   0.400236 0.938491 0.840847 -0.658521
H4    H     H_    0.348254 0.894589 0.895742 0.384763
Br5   Br    Br    0.436685 0.870540 0.196987 -0.339616
Br6   Br    Br    0.563317 0.129462 0.803014 -0.339614
Br7   Br    Br    0.662429 0.696590 0.195217 -0.332835
Br8   Br    Br    0.337571 0.303409 0.804784 -0.332841
C27   C     C_2   0.610431 0.702302 0.881220 1.015196
O13   O     O_2   0.667613 0.689901 0.795408 -0.561651
O14   O     O_R   0.597516 0.822834 0.929075 -0.710733
H5    H     H_    0.642467 0.889986 0.887957 0.376243
C28   C     C_2   0.389570 0.297697 0.118780 1.015198
O15   O     O_2   0.332389 0.310097 0.204593 -0.561651
O16   O     O_R   0.402487 0.177165 0.070925 -0.710743
H6    H     H_    0.357536 0.110013 0.112042 0.376242

loop_
_geom_bond_atom_site_label_1
_geom_bond_atom_site_label_2
_ccdc_geom_bond_type
C12   C17   A    
C24   Br6   S    
C6    C8    A    
C25   O9    D    
O3    Zn2   S    
C11   C18   A    
C6    N1    A    
C14   C16   A    
C7    C27   S    
C8    C28   S    
C26   O12   S    
C5    N2    A    
C5    C7    A    
C11   C16   A    
C23   Br5   S    
C19   C20   A    
C12   C15   A    
N2    Zn2   S    
C27   O13   D    
C1    C4    S    
C13   Br3   S    
C2    C3    S    
C28   O15   D    
C10   O6    A    
C21   C25   S    
C14   Br4   S    
C9    O5    A    
C4    C21   A    
C25   O10   S    
O14   H5    S    
C18   H1    S    
N1    Zn1   S    
C4    C24   A    
C17   H2    S    
C14   C19   A    
C5    Br7   S    
O8    Zn1   S    
C17   C19   A    
C6    Br8   S    
C22   C26   S    
C18   C20   A    
C27   O14   S    
C13   C15   A    
O16   H6    S    
C8    N2    A    
C9    C12   S    
C22   C24   A    
C15   Br2   S    
C28   O16   S    
O4    Zn1   S    
C10   C11   S    
C1    O1    A    
C16   Br1   S    
O10   H3    S    
C1    O3    A    
O7    Zn2   S    
C7    N1    A    
O2    Zn2   S    
C2    O4    A    
O12   H4    S    
O1    Zn1   S    
C9    O7    A    
C3    C22   A    
C10   O8    A    
C13   C20   A    
O6    Zn2   S    
C3    C23   A    
C21   C23   A    
O5    Zn1   S    
C2    O2    A    
C26   O11   D    
