data_mof_unit_50974.cif
_audit_creation_date              2012-12-10T17:04:33-0500
_audit_creation_method            fapswitch 2.2
_symmetry_space_group_name_H-M    P1
_symmetry_Int_Tables_number       1
_space_group_crystal_system       triclinic
_cell_length_a                    14.911537
_cell_length_b                    10.692066
_cell_length_c                    10.038478
_cell_angle_alpha                 93.367386
_cell_angle_beta                  89.046678
_cell_angle_gamma                 90.294441
_cell_volume                      1597.48772301

loop_
_atom_site_label
_atom_site_type_symbol
_atom_type_description
_atom_site_fract_x
_atom_site_fract_y
_atom_site_fract_z
_atom_type_partial_charge
C1    C     C_R   0.500630 0.262566 0.495610 0.972558
C2    C     C_R   0.908299 0.626918 0.474217 -0.090974
C3    C     C_R   0.948023 0.321781 0.627678 -0.261480
C4    C     C_R   0.040823 0.322490 0.640159 -0.058998
C5    C     C_R   0.091212 0.417279 0.579110 -0.030402
C6    C     C_R   0.046862 0.524221 0.535409 -0.025704
C7    C     C_R   0.096019 0.630267 0.498206 -0.085248
C8    C     C_R   0.049495 0.742005 0.477305 -0.167515
C9    C     C_R   0.959404 0.733620 0.440688 0.445684
C10   C     C_R   0.183138 0.404762 0.551473 0.470396
C11   C     C_R   0.231336 0.507495 0.506872 -0.258943
C12   C     C_R   0.327072 0.500084 0.501262 0.942539
C13   C     C_R   0.189463 0.620124 0.479668 -0.080139
C14   C     C_2   0.546139 0.927458 0.401020 -0.290626
C15   C     C_2   0.531262 0.868866 0.514400 -0.226615
C16   C     C_2   0.556042 0.062582 0.402473 0.014187
C17   C     C_2   0.498636 0.130068 0.482465 -0.362121
C18   C     C_2   0.535454 0.589872 0.928701 0.556577
C19   C     C_2   0.546478 0.577655 0.076786 -0.267890
C20   C     C_R   0.506813 0.737871 0.503954 0.931559
C21   C     C_R   0.672983 0.503438 0.499228 0.911314
C22   C     C_R   0.813922 0.620329 0.461998 -0.085136
C23   C     C_R   0.768841 0.511201 0.498744 -0.151347
C24   C     C_R   0.813450 0.413030 0.552196 -0.218412
C25   C     C_R   0.904988 0.418843 0.567703 0.118332
C26   C     C_R   0.953212 0.524236 0.527301 0.038595
H1    H     H_    0.445712 0.085754 0.538948 0.152683
H2    H     H_    0.495422 0.414338 0.890149 0.123853
H3    H     H_    0.596332 0.636268 0.127167 0.196279
H4    H     H_    0.775905 0.332376 0.584022 0.183993
H5    H     H_    0.908522 0.247066 0.668353 0.202297
H6    H     H_    0.545763 0.876993 0.303817 0.228750
N1    N     N_2   0.500970 0.501330 0.852150 -0.201608
N2    N     N_2   0.500990 0.501360 0.147810 -0.182913
O1    O     O_R   0.499990 0.319060 0.613040 -0.603734
O2    O     O_R   0.500010 0.319100 0.386900 -0.594958
O3    O     O_R   0.367830 0.499950 0.613080 -0.558486
O4    O     O_R   0.367860 0.499990 0.386940 -0.631054
O5    O     O_R   0.499990 0.680900 0.613100 -0.547944
O6    O     O_R   0.500010 0.680940 0.386960 -0.608942
O7    O     O_R   0.632140 0.500010 0.613060 -0.653382
O8    O     O_R   0.632170 0.500050 0.386920 -0.573386
Zn1   Zn    Zn3+2 0.499980 0.499970 0.650990 1.049975
Zn2   Zn    Zn3+2 0.500020 0.500030 0.349010 1.032563
C27   C     C_2   0.760618 0.730347 0.427793 0.913036
O9    O     O_2   0.716484 0.726128 0.326106 -0.665395
O10   O     O_R   0.762334 0.839250 0.511817 -0.757572
H7    H     H_    0.729082 0.910914 0.473582 0.375639
C28   C     C_2   0.547317 0.930381 0.649781 0.945833
O11   O     O_2   0.495608 0.911715 0.742387 -0.536653
O12   O     O_R   0.620287 0.011748 0.669679 -0.798651
H8    H     H_    0.621413 0.052730 0.763239 0.343308
C29   C     C_2   0.630023 0.115158 0.321010 0.975222
O13   O     O_2   0.657445 0.056010 0.220654 -0.647998
O14   O     O_R   0.671504 0.228131 0.361695 -0.807781
H9    H     H_    0.721745 0.252056 0.298688 0.342475
O15   O     O_3   0.559613 0.700881 0.874013 -0.568642
C30   C     C_3   0.654081 0.712046 0.865137 0.080203
H10   H     H_    0.671987 0.725447 0.758971 0.191845
H11   H     H_    0.691885 0.627999 0.894074 0.097615
C31   C     C_3   0.684531 0.827295 0.950390 -0.300601
H12   H     H_    0.641209 0.908323 0.931848 0.268381
H13   H     H_    0.678088 0.808920 0.057814 0.245028
C32   C     C_3   0.781640 0.860973 0.918786 -0.908598
H14   H     H_    0.826119 0.781241 0.938041 0.254074
H15   H     H_    0.801828 0.944036 0.983107 0.277937
H16   H     H_    0.789325 0.884046 0.812705 0.307706
C33   C     C_2   0.415553 0.457077 0.103406 1.028607
O16   O     O_2   0.391503 0.351277 0.127599 -0.639316
O17   O     O_R   0.356978 0.536381 0.041088 -0.772806
H17   H     H_    0.297889 0.494022 0.017452 0.356535
C34   C     C_2   0.080420 0.231386 0.729001 0.978765
O18   O     O_2   0.147241 0.259457 0.793393 -0.567758
O19   O     O_R   0.037616 0.116590 0.746271 -0.802961
H18   H     H_    0.069719 0.064069 0.811380 0.360049
O20   O     O_3   0.223611 0.288607 0.559371 -0.624653
C35   C     C_3   0.246213 0.231546 0.431475 0.045310
H19   H     H_    0.259849 0.131336 0.446606 0.194955
H20   H     H_    0.310005 0.270298 0.393104 0.167817
C36   C     C_3   0.172807 0.238105 0.324996 -0.441148
H21   H     H_    0.105748 0.218939 0.368778 0.237582
H22   H     H_    0.171637 0.333713 0.287149 0.231397
C37   C     C_3   0.190419 0.144188 0.207114 -0.784955
H23   H     H_    0.256895 0.162405 0.160458 0.300459
H24   H     H_    0.137862 0.153146 0.131196 0.264918
H25   H     H_    0.188698 0.046983 0.240621 0.269947
C38   C     C_2   0.242231 0.718950 0.415205 0.948097
O21   O     O_2   0.226162 0.743745 0.300733 -0.641154
O22   O     O_R   0.309304 0.783991 0.486089 -0.761410
H26   H     H_    0.337885 0.852042 0.433159 0.331736
C39   C     C_2   0.088468 0.867398 0.516019 0.986224
O23   O     O_2   0.143542 0.877435 0.605056 -0.588250
O24   O     O_R   0.058503 0.974886 0.458474 -0.766429
H27   H     H_    0.088888 0.053192 0.497348 0.351683
O25   O     O_3   0.921792 0.832589 0.378410 -0.573257
C40   C     C_3   0.926168 0.808448 0.237849 0.105382
H28   H     H_    0.868168 0.855914 0.195033 0.198295
H29   H     H_    0.919411 0.706868 0.206594 0.114936
C41   C     C_3   0.012602 0.862769 0.178858 -0.349813
H30   H     H_    0.016723 0.964655 0.207020 0.267086
H31   H     H_    0.071394 0.815897 0.219478 0.261357
C42   C     C_3   0.016924 0.844399 0.027072 -0.903368
H32   H     H_    0.006291 0.744342 0.994762 0.271447
H33   H     H_    0.083939 0.874058 0.990336 0.293535
H34   H     H_    0.965675 0.902911 0.982119 0.270571

loop_
_geom_bond_atom_site_label_1
_geom_bond_atom_site_label_2
_ccdc_geom_bond_type
C8    C9    A    
C38   O21   D    
O24   H27   S    
O25   C40   S    
O14   H9    S    
C7    C8    A    
C29   O13   D    
C5    C6    A    
C20   O6    A    
C30   H11   S    
C40   C41   S    
C42   H34   S    
C18   C19   S    
C27   O10   S    
C12   O3    A    
C31   H13   S    
C16   C29   S    
C33   O16   D    
C10   O20   S    
C37   H23   S    
C16   C17   D    
C28   O12   S    
C40   H29   S    
C41   C42   S    
C2    C22   A    
C23   C24   A    
O17   H17   S    
O1    Zn1   S    
C9    O25   S    
C30   C31   S    
C35   H20   S    
O7    Zn1   S    
C31   H12   S    
O8    Zn2   S    
C36   C37   S    
C29   O14   S    
C15   C20   S    
O19   H18   S    
O12   H8    S    
C17   H1    S    
C32   H16   S    
C3    C25   A    
N2    Zn2   S    
C24   C25   A    
C34   O19   S    
C22   C27   S    
N2    C33   S    
C39   O23   D    
C20   O5    A    
C34   O18   D    
O5    Zn1   S    
C30   H10   S    
C35   H19   S    
N1    Zn1   S    
O3    Zn1   S    
C31   C32   S    
C42   H33   S    
O4    Zn2   S    
C39   O24   S    
C18   O15   S    
O10   H7    S    
C7    C13   A    
C40   H28   S    
C13   C38   S    
C2    C26   A    
C8    C39   S    
O20   C35   S    
C3    H5    S    
C21   O7    A    
C36   H22   S    
C37   H24   S    
H2    N1    S    
C21   C23   S    
C14   C16   S    
O2    Zn2   S    
C3    C4    A    
C19   H3    S    
C4    C34   S    
C1    O1    A    
C35   C36   S    
C41   H31   S    
C14   C15   D    
C14   H6    S    
C36   H21   S    
C19   N2    D    
C11   C12   S    
C6    C7    A    
C1    C17   S    
C41   H30   S    
C32   H14   S    
C38   O22   S    
C25   C26   A    
C5    C10   A    
C11   C13   A    
O15   C30   S    
C6    C26   A    
C4    C5    A    
C15   C28   S    
C12   O4    A    
C42   H32   S    
C18   N1    D    
C24   H4    S    
C10   C11   A    
C21   O8    A    
C27   O9    D    
O6    Zn2   S    
C37   H25   S    
C33   O17   S    
C28   O11   D    
C22   C23   A    
O22   H26   S    
C2    C9    A    
C1    O2    A    
C32   H15   S    
