data_mof_unit_50882.cif
_audit_creation_date              2012-12-11T14:30:42-0500
_audit_creation_method            fapswitch 2.2
_symmetry_space_group_name_H-M    P1
_symmetry_Int_Tables_number       1
_space_group_crystal_system       triclinic
_cell_length_a                    17.390563
_cell_length_b                    24.34547
_cell_length_c                    14.947229
_cell_angle_alpha                 89.934301
_cell_angle_beta                  125.201155
_cell_angle_gamma                 90.195616
_cell_volume                      5171.09647813

loop_
_atom_site_label
_atom_site_type_symbol
_atom_type_description
_atom_site_fract_x
_atom_site_fract_y
_atom_site_fract_z
_atom_type_partial_charge
C1    C     C_R   0.834130 0.646522 0.907390 -0.153319
C2    C     C_R   0.929425 0.500663 0.631861 0.138959
C3    C     C_R   0.497675 0.999692 0.321506 0.137376
C4    C     C_R   0.427904 0.001493 0.631346 0.144481
C5    C     C_R   0.675002 0.500748 0.709741 0.033970
C6    C     C_R   0.311522 0.499577 0.352153 0.039123
C7    C     C_R   0.176574 0.998947 0.684824 0.039456
C8    C     C_R   0.805307 0.001206 0.358499 0.045364
C9    C     C_3   0.497494 0.467223 0.616864 -0.150944
C10   C     C_3   0.465913 0.447613 0.501954 -0.170245
C11   C     C_3   0.016345 0.946645 0.553169 -0.169769
C12   C     C_R   0.192174 0.623566 0.092379 -0.142318
C13   C     C_3   0.973149 0.973520 0.440565 -0.140189
C14   C     C_3   0.432905 0.518341 0.565703 -0.143019
C15   C     C_3   0.545650 0.480794 0.511197 -0.137618
C16   C     C_3   0.941634 0.974028 0.563434 -0.148942
C17   C     C_3   0.035660 0.024659 0.493439 -0.150123
C18   C     C_3   0.403822 0.498679 0.453027 0.180961
C19   C     C_3   0.575821 0.500422 0.624450 0.182005
C20   C     C_3   0.900271 0.000917 0.452305 0.183795
C21   C     C_3   0.077638 0.997938 0.604749 0.180462
C22   C     C_3   0.482624 0.531715 0.461475 -0.147464
C23   C     C_R   0.311095 0.128033 0.907488 -0.139209
C24   C     C_3   0.513537 0.551466 0.575585 -0.165978
C25   C     C_3   0.961848 0.052133 0.504364 -0.169470
C26   C     C_3   0.005504 0.025316 0.617533 -0.139721
C27   C     C_2   0.247752 0.685965 0.910681 -0.144112
C28   C     C_2   0.865706 0.764556 0.067362 -0.178672
C29   C     C_2   0.748452 0.185332 0.910629 -0.133753
C30   C     C_2   0.254298 0.189569 0.088257 -0.127658
C31   C     C_2   0.268606 0.656981 0.998963 -0.076299
C32   C     C_2   0.809478 0.722721 0.002845 -0.066917
C33   C     C_2   0.769051 0.156269 0.998775 -0.078560
C34   C     C_R   0.692423 0.123194 0.092342 -0.142843
C35   C     C_2   0.234631 0.162407 0.998917 -0.077004
C36   C     C_2   0.802308 0.233887 0.919069 -0.007088
C37   C     C_2   0.202919 0.238845 0.079442 -0.012383
C38   C     C_2   0.300673 0.734968 0.919283 -0.019778
C39   C     C_2   0.829060 0.815712 0.079416 -0.068380
C40   C     C_R   0.936060 0.352998 0.092986 -0.135163
C41   C     C_R   0.069419 0.355917 0.906420 -0.119848
C42   C     C_R   0.434341 0.853743 0.093105 -0.123376
C43   C     C_R   0.595250 0.879190 0.905202 -0.109651
C44   C     C_2   0.835739 0.268755 0.003370 -0.159141
C45   C     C_R   0.867854 0.323698 0.001815 0.116336
C46   C     C_2   0.175968 0.274691 0.998180 -0.165705
C47   C     C_2   0.332360 0.770081 0.002892 -0.147832
C48   C     C_2   0.757022 0.840570 0.990816 -0.158593
C49   C     C_2   0.891580 0.459550 0.370664 -0.110340
C50   C     C_2   0.882673 0.456163 0.462082 -0.116760
C51   C     C_2   0.408551 0.960713 0.384007 -0.111491
C52   C     C_2   0.386746 0.957415 0.464459 -0.117785
C53   C     C_2   0.934533 0.502801 0.361641 -0.182317
C54   C     C_2   0.885748 0.501463 0.514794 -0.196384
C55   C     C_2   0.468208 0.999343 0.393755 -0.198821
C56   C     C_R   0.141024 0.328416 0.998297 0.116562
C57   C     C_2   0.388752 0.002896 0.515658 -0.196569
C58   C     C_R   0.994412 0.547112 0.262517 -0.143240
C59   C     C_R   0.947224 0.546392 0.695357 -0.166779
C60   C     C_R   0.515795 0.045960 0.283042 -0.147765
C61   C     C_R   0.447111 0.046850 0.695667 -0.165912
C62   C     C_R   0.731307 0.454893 0.742241 -0.143841
C63   C     C_R   0.260428 0.454352 0.293672 -0.128736
C64   C     C_R   0.232663 0.953733 0.728595 -0.128893
C65   C     C_R   0.756596 0.955519 0.299922 -0.166123
C66   C     C_R   0.993812 0.455137 0.261810 -0.123922
C67   C     C_R   0.365158 0.824847 0.001750 0.112215
C68   C     C_R   0.948136 0.455260 0.696228 -0.117058
C69   C     C_R   0.508875 0.954300 0.275410 -0.126713
C70   C     C_R   0.445733 0.955853 0.694841 -0.130926
C71   C     C_R   0.730235 0.546961 0.740101 -0.118741
C72   C     C_R   0.261199 0.546067 0.299039 -0.159973
C73   C     C_R   0.230515 0.045707 0.719880 -0.149635
C74   C     C_R   0.757513 0.046962 0.300953 -0.139900
C75   C     C_R   0.844803 0.353080 0.910463 -0.124989
C76   C     C_R   0.161325 0.356264 0.090025 -0.122218
C77   C     C_R   0.343038 0.853835 0.910347 -0.120086
C78   C     C_R   0.684851 0.867513 0.995517 0.160636
C79   C     C_R   0.687668 0.879034 0.088237 -0.074253
C80   C     C_R   0.927428 0.646562 0.090444 -0.096863
C81   C     C_R   0.099817 0.622923 0.909215 -0.091409
C82   C     C_R   0.402526 0.127536 0.089789 -0.083637
C83   C     C_R   0.599939 0.122791 0.909230 -0.092952
C84   C     C_R   0.853403 0.673040 0.999936 0.027694
C85   C     C_R   0.190252 0.634795 0.999968 0.016125
C86   C     C_R   0.313142 0.140286 0.999052 0.013087
C87   C     C_R   0.690502 0.134442 0.999915 0.015510
C88   C     C_2   0.367099 0.650685 0.098094 0.546888
C89   C     C_R   0.970226 0.501211 0.295306 0.131595
C90   C     C_2   0.705380 0.720632 0.943034 0.557651
C91   C     C_2   0.867555 0.149276 0.097467 0.546227
C92   C     C_2   0.136485 0.156970 0.898184 0.551414
H1    H     H_    0.789530 0.661389 0.824219 0.085376
H2    H     H_    0.534322 0.594010 0.607637 0.107732
H3    H     H_    0.937965 0.095390 0.483511 0.108451
H4    H     H_    0.022705 0.046337 0.692920 0.123311
H5    H     H_    0.178555 0.683296 0.834085 0.103896
H6    H     H_    0.941762 0.760137 0.116739 0.123346
H7    H     H_    0.679029 0.183085 0.834263 0.100471
H8    H     H_    0.322047 0.185703 0.166223 0.099364
H9    H     H_    0.799759 0.245487 0.847308 0.106795
H10   H     H_    0.199962 0.249220 0.147985 0.110297
H11   H     H_    0.299378 0.746375 0.848248 0.103934
H12   H     H_    0.251026 0.628740 0.176484 0.086841
H13   H     H_    0.851847 0.826911 0.161461 0.113310
H14   H     H_    0.835261 0.258080 0.073610 0.119667
H15   H     H_    0.181281 0.265056 0.930993 0.119617
H16   H     H_    0.330785 0.759499 0.072426 0.118437
H17   H     H_    0.738794 0.829564 0.910216 0.117252
H18   H     H_    0.877793 0.422590 0.322936 0.118521
H19   H     H_    0.892227 0.415736 0.497536 0.115518
H20   H     H_    0.384302 0.927716 0.324564 0.123610
H21   H     H_    0.388277 0.916807 0.495292 0.116548
H22   H     H_    0.951745 0.539642 0.410457 0.129379
H23   H     H_    0.255250 0.137595 0.824393 0.082702
H24   H     H_    0.869923 0.541533 0.476171 0.134761
H25   H     H_    0.495258 0.031887 0.454412 0.133921
H26   H     H_    0.381144 0.043077 0.479631 0.134976
H27   H     H_    0.978507 0.337879 0.176176 0.095902
H28   H     H_    0.029766 0.341619 0.822583 0.097964
H29   H     H_    0.476004 0.838726 0.176366 0.097958
H30   H     H_    0.569287 0.874421 0.820321 0.092498
H31   H     H_    0.989076 0.589345 0.279929 0.096132
H32   H     H_    0.926656 0.588023 0.665627 0.094440
H33   H     H_    0.524400 0.087274 0.313611 0.087584
H34   H     H_    0.751552 0.127933 0.176442 0.087542
H35   H     H_    0.428014 0.088737 0.667038 0.091983
H36   H     H_    0.708928 0.412546 0.722959 0.097930
H37   H     H_    0.275279 0.411816 0.318669 0.086527
H38   H     H_    0.212764 0.911033 0.710043 0.088141
H39   H     H_    0.771674 0.913317 0.327407 0.100257
H40   H     H_    0.988381 0.412682 0.278400 0.089264
H41   H     H_    0.928517 0.413226 0.668952 0.081898
H42   H     H_    0.506732 0.911610 0.293601 0.089654
H43   H     H_    0.425149 0.914018 0.666578 0.084770
H44   H     H_    0.707400 0.588969 0.718354 0.088894
H45   H     H_    0.506662 0.441126 0.683301 0.115233
H46   H     H_    0.277292 0.587662 0.330226 0.095843
H47   H     H_    0.207777 0.086595 0.687281 0.093200
H48   H     H_    0.772327 0.089112 0.328867 0.087774
H49   H     H_    0.802647 0.339084 0.826503 0.081135
H50   H     H_    0.206779 0.343278 0.174449 0.082998
H51   H     H_    0.300232 0.839914 0.826378 0.080390
H52   H     H_    0.746715 0.874336 0.172345 0.081629
H53   H     H_    0.967181 0.660950 0.174109 0.086102
H54   H     H_    0.074050 0.625333 0.824166 0.092990
H55   H     H_    0.429365 0.134899 0.173631 0.083984
H56   H     H_    0.445062 0.405046 0.470073 0.106760
H57   H     H_    0.574237 0.125213 0.824217 0.092895
H58   H     H_    0.383582 0.533567 0.584490 0.116116
H59   H     H_    0.593935 0.465509 0.490814 0.117617
H60   H     H_    0.899746 0.953764 0.588743 0.115809
H61   H     H_    0.076777 0.044980 0.467080 0.119412
H62   H     H_    0.380645 0.634208 0.173283 -0.031871
H63   H     H_    0.663713 0.697420 0.867342 -0.028317
H64   H     H_    0.881064 0.132852 0.172672 -0.029092
H65   H     H_    0.123650 0.141421 0.822778 -0.039088
H66   H     H_    0.040751 0.903498 0.574585 0.107008
H67   H     H_    0.957324 0.952401 0.365827 0.113677
H68   H     H_    0.474425 0.557919 0.395623 0.116207
N1    N     N_R   0.892320 0.603520 0.941090 -0.034345
N2    N     N_R   0.973240 0.529450 0.794410 -0.041545
N3    N     N_R   0.526760 0.029450 0.205590 -0.040192
N4    N     N_R   0.473240 0.029450 0.794410 -0.040613
N5    N     N_R   0.819350 0.473090 0.793940 -0.038854
N6    N     N_R   0.180650 0.473090 0.206060 -0.037069
N7    N     N_R   0.319350 0.973090 0.793940 -0.037138
N8    N     N_R   0.680650 0.973090 0.206060 -0.038952
N9    N     N_R   0.027860 0.473090 0.206590 -0.043765
N10   N     N_R   0.972140 0.473090 0.793410 -0.043660
N11   N     N_R   0.527860 0.973090 0.206590 -0.041623
N12   N     N_R   0.107680 0.603520 0.058910 -0.038177
N13   N     N_R   0.472140 0.973090 0.793410 -0.045355
N14   N     N_R   0.818250 0.529450 0.792940 -0.038122
N15   N     N_R   0.181750 0.529450 0.207060 -0.035120
N16   N     N_R   0.318250 0.029450 0.792940 -0.033704
N17   N     N_R   0.681750 0.029450 0.207060 -0.036174
N18   N     N_R   0.896320 0.399020 0.944720 -0.039863
N19   N     N_R   0.103680 0.399020 0.055280 -0.041908
N20   N     N_R   0.396320 0.899020 0.944720 -0.041945
N21   N     N_R   0.603680 0.899020 0.055280 -0.047296
N22   N     N_R   0.949790 0.603520 0.054810 -0.041015
N23   N     N_R   0.392320 0.103520 0.941090 -0.037623
N24   N     N_R   0.050210 0.603520 0.945190 -0.043477
N25   N     N_R   0.449790 0.103520 0.054810 -0.044530
N26   N     N_R   0.550210 0.103520 0.945190 -0.044811
N27   N     N_R   0.607680 0.103520 0.058910 -0.039219
N28   N     N_R   0.953790 0.399020 0.058440 -0.040932
N29   N     N_R   0.046210 0.399020 0.941560 -0.043916
N30   N     N_R   0.453790 0.899020 0.058440 -0.042865
N31   N     N_R   0.546210 0.899020 0.941560 -0.045883
N32   N     N_R   0.026760 0.529450 0.205590 -0.042422
Ni1   Ni    Ni4+2 0.934100 0.565890 0.869590 0.211085
Ni2   Ni    Ni4+2 0.065900 0.565890 0.130410 0.209701
Ni3   Ni    Ni4+2 0.434100 0.065890 0.869590 0.209349
Ni4   Ni    Ni4+2 0.565900 0.065890 0.130410 0.210158
Ni5   Ni    Ni4+2 0.068420 0.436630 0.132700 0.211852
Ni6   Ni    Ni4+2 0.931580 0.436630 0.867300 0.209987
Ni7   Ni    Ni4+2 0.568420 0.936630 0.132700 0.218868
Ni8   Ni    Ni4+2 0.431580 0.936630 0.867300 0.213467
O1    O     O_2   0.434396 0.661777 0.095604 -0.560432
O2    O     O_2   0.666069 0.741006 0.981151 -0.567457
O3    O     O_2   0.934836 0.159720 0.094560 -0.555123
O4    O     O_2   0.068585 0.167734 0.899498 -0.556897

loop_
_geom_bond_atom_site_label_1
_geom_bond_atom_site_label_2
_ccdc_geom_bond_type
N29   Ni6   S    
C83   C87   A    
C21   C26   S    
C69   H42   S    
C31   C85   S    
N8    Ni7   S    
C30   H8    S    
N27   Ni4   S    
C61   N4    A    
N21   N31   A    
C14   C18   S    
C66   N9    A    
N12   Ni2   S    
C67   C77   A    
C80   C84   A    
C76   N19   A    
C17   H61   S    
C15   H59   S    
C82   H55   S    
N4    Ni3   S    
C12   N12   A    
C52   H21   S    
C44   C45   S    
C1    C84   A    
C6    C72   A    
C65   N8    A    
C58   H31   S    
C8    C20   S    
C12   C85   A    
C56   C76   A    
N3    Ni4   S    
C58   N32   A    
C68   H41   S    
C3    C69   A    
C88   H62   S    
C12   H12   S    
C64   N7    A    
C2    C68   A    
C10   C15   S    
N23   N25   A    
C37   H10   S    
C35   C86   S    
C20   C25   S    
C27   C38   S    
C14   C24   S    
N8    N17   A    
C29   C33   D    
C60   N3    A    
C69   N11   A    
C72   N15   A    
C48   C78   S    
N1    N22   A    
C75   N18   A    
C42   N30   A    
N11   Ni7   S    
C75   H49   S    
C58   C89   A    
C3    C55   S    
C9    C19   S    
C15   C22   S    
C32   C90   S    
N5    N14   A    
C23   C86   A    
C54   H24   S    
C4    C57   S    
N23   Ni3   S    
N7    Ni8   S    
C83   N26   A    
N22   Ni2   S    
C80   N22   A    
C88   O1    D    
N3    N11   A    
C9    C10   S    
N15   Ni2   S    
C92   O4    D    
C36   H9    S    
C34   H34   S    
N18   N28   A    
C35   C92   S    
C72   H46   S    
C48   H17   S    
N18   Ni6   S    
C1    N1    A    
C8    C65   A    
C41   H28   S    
C18   C22   S    
N13   Ni8   S    
C16   C26   S    
C9    H45   S    
C32   C84   S    
C47   C67   S    
C65   H39   S    
N30   Ni7   S    
C66   C89   A    
C66   H40   S    
C63   N6    A    
C26   H4    S    
C40   C45   A    
C6    C18   S    
C4    C70   A    
C77   N20   A    
C29   H7    S    
C82   N25   A    
C27   C31   D    
C51   C52   S    
N26   Ni3   S    
C28   C32   D    
N31   Ni8   S    
C7    C73   A    
C2    C54   S    
N17   Ni4   S    
C68   N10   A    
C71   H44   S    
C78   C79   A    
C73   H47   S    
C28   C39   S    
C25   C26   S    
C82   C86   A    
C74   H48   S    
C4    C61   A    
C11   C21   S    
C17   C21   S    
C79   N21   A    
C30   C37   S    
C92   H65   S    
C43   C78   A    
N32   Ni2   S    
C6    C63   A    
C15   C19   S    
C9    C14   S    
C77   H51   S    
C41   C56   A    
C23   N23   A    
C38   H11   S    
N20   Ni8   S    
C24   H2    S    
C11   C16   S    
N12   N24   A    
C47   H16   S    
C79   H52   S    
C29   C36   S    
C51   H20   S    
C16   C20   S    
C46   H15   S    
C14   H58   S    
C8    C74   A    
N6    N15   A    
N1    Ni1   S    
N4    N13   A    
C61   H35   S    
C50   C54   D    
C43   H30   S    
C38   C47   D    
N26   N27   A    
C40   N28   A    
C30   C35   D    
C80   H53   S    
C64   H38   S    
C49   C50   S    
C53   C89   S    
C70   H43   S    
C22   C24   S    
C36   C44   D    
N25   Ni4   S    
C52   C57   D    
N21   Ni7   S    
N10   Ni6   S    
C53   H22   S    
N9    Ni5   S    
C55   H25   S    
C28   H6    S    
C59   H32   S    
C39   H13   S    
C60   H33   S    
C31   C88   S    
C13   C20   S    
C2    C59   A    
C39   C48   D    
C41   N29   A    
C16   H60   S    
C25   H3    S    
C5    C19   S    
C44   H14   S    
N19   Ni5   S    
C40   H27   S    
N19   N29   A    
C81   N24   A    
C71   N14   A    
C13   C17   S    
C45   C75   A    
C17   C25   S    
C73   N16   A    
C33   C91   S    
C19   C24   S    
C90   H63   S    
N6    Ni5   S    
N2    N10   A    
C5    C71   A    
C59   N2    A    
N20   N30   A    
N5    Ni6   S    
C3    C60   A    
C62   H36   S    
C11   C13   S    
C42   C67   A    
C74   N17   A    
C22   H68   S    
N28   Ni5   S    
C10   C18   S    
C49   C53   D    
C7    C21   S    
N2    Ni1   S    
C50   H19   S    
C5    C62   A    
C51   C55   D    
C34   C87   A    
C63   H37   S    
N16   Ni3   S    
C33   C87   S    
C34   N27   A    
C70   N13   A    
C91   O3    D    
C7    C64   A    
C27   H5    S    
C23   H23   S    
C91   H64   S    
C62   N5    A    
C43   N31   A    
C42   H29   S    
N14   Ni1   S    
C1    H1    S    
C81   H54   S    
C46   C56   S    
C57   H26   S    
C49   H18   S    
N9    N32   A    
C83   H57   S    
C37   C46   D    
C13   H67   S    
C81   C85   A    
N24   Ni1   S    
C11   H66   S    
C10   H56   S    
N7    N16   A    
C90   O2    D    
C76   H50   S    
