data_mof_unit_29867.cif
_audit_creation_date              2012-12-10T18:00:16-0500
_audit_creation_method            fapswitch 2.2
_symmetry_space_group_name_H-M    P1
_symmetry_Int_Tables_number       1
_space_group_crystal_system       triclinic
_cell_length_a                    10.818804
_cell_length_b                    9.541408
_cell_length_c                    10.651548
_cell_angle_alpha                 89.648257
_cell_angle_beta                  89.875676
_cell_angle_gamma                 89.922274
_cell_volume                      1099.4990303

loop_
_atom_site_label
_atom_site_type_symbol
_atom_type_description
_atom_site_fract_x
_atom_site_fract_y
_atom_site_fract_z
_atom_type_partial_charge
C1    C     C_R   0.871728 0.499934 0.500017 -0.011754
C2    C     C_R   0.128272 0.500066 0.499983 -0.011754
C3    C     C_R   0.262143 0.500051 0.499947 0.771642
C4    C     C_R   0.737857 0.499949 0.500053 0.771642
C5    C     C_R   0.497752 0.500629 0.259629 0.856135
C6    C     C_R   0.502248 0.499370 0.740371 0.856135
C7    C     C_3   0.468730 0.627860 0.037165 0.464425
C8    C     C_3   0.531270 0.372140 0.962835 0.464425
C9    C     C_3   0.583432 0.591733 0.959162 0.434140
C10   C     C_3   0.416568 0.408267 0.040838 0.434141
C11   C     C_3   0.385599 0.533933 0.953965 -0.519529
C12   C     C_3   0.614401 0.466067 0.046035 -0.519529
C13   C     C_3   0.502172 0.497949 0.876605 -0.221043
C14   C     C_3   0.497828 0.502051 0.123395 -0.221042
C15   C     C_R   0.437051 0.074920 0.410453 -0.039916
C16   C     C_R   0.562949 0.925080 0.589547 -0.039917
C17   C     C_R   0.563223 0.073701 0.589330 -0.005978
C18   C     C_R   0.436777 0.926299 0.410670 -0.005978
C19   C     C_R   0.064041 0.373324 0.512333 -0.192490
C20   C     C_R   0.935959 0.626676 0.487667 -0.192489
C21   C     C_R   0.936231 0.373244 0.512267 -0.201548
C22   C     C_R   0.063769 0.626756 0.487733 -0.201548
Cu1   Cu    Cu3+1 0.500000 0.640660 0.500000 0.957230
Cu2   Cu    Cu3+1 0.500000 0.359340 0.500000 0.957230
H1    H     H_    0.387041 0.131104 0.338317 0.146966
H2    H     H_    0.612959 0.868896 0.661683 0.146966
H3    H     H_    0.614243 0.129139 0.660572 0.153288
H4    H     H_    0.385757 0.870861 0.339428 0.153288
H5    H     H_    0.294657 0.558712 0.911135 0.149950
H6    H     H_    0.705343 0.441288 0.088865 0.149950
H7    H     H_    0.112266 0.274311 0.522168 0.154041
H8    H     H_    0.887734 0.725688 0.477832 0.154041
H9    H     H_    0.888230 0.274219 0.522196 0.151263
H10   H     H_    0.111770 0.725781 0.477804 0.151263
N1    N     N_R   0.500000 0.852070 0.500000 -0.163751
N2    N     N_R   0.500000 0.147930 0.500000 -0.163751
O1    O     O_R   0.319640 0.618740 0.499990 -0.595850
O2    O     O_R   0.680360 0.381260 0.500010 -0.595850
O3    O     O_R   0.680360 0.618740 0.500010 -0.587912
O4    O     O_R   0.319640 0.381260 0.499990 -0.587912
O5    O     O_R   0.499970 0.618770 0.316850 -0.551810
O6    O     O_R   0.500030 0.381230 0.683150 -0.551810
O7    O     O_R   0.500030 0.618770 0.683150 -0.578093
O8    O     O_R   0.499970 0.381230 0.316850 -0.578093
O9    O     O_3   0.442921 0.762096 0.086218 -0.564754
C23   C     C_3   0.353889 0.830221 0.010985 0.016966
H11   H     H_    0.264580 0.772530 0.013466 0.136831
H12   H     H_    0.386979 0.840109 0.912193 0.168513
C24   C     C_3   0.329411 0.975914 0.062205 -0.706189
H13   H     H_    0.417461 0.033148 0.074824 0.284202
H14   H     H_    0.269945 0.035360 0.995750 0.227929
H15   H     H_    0.281381 0.968370 0.154170 0.210922
O10   O     O_3   0.557079 0.237904 0.913782 -0.564754
C25   C     C_3   0.646113 0.169780 0.989013 0.016967
H16   H     H_    0.613024 0.159892 0.087806 0.168512
H17   H     H_    0.735422 0.227472 0.986532 0.136831
C26   C     C_3   0.670591 0.024087 0.937794 -0.706191
H18   H     H_    0.718620 0.031631 0.845828 0.210921
H19   H     H_    0.730058 0.964642 0.004248 0.227927
H20   H     H_    0.582541 0.966853 0.925176 0.284202
O11   O     O_3   0.666396 0.693646 0.912265 -0.577049
C27   C     C_3   0.775077 0.627213 0.869007 0.093616
H21   H     H_    0.753823 0.543341 0.800077 0.126746
H22   H     H_    0.827440 0.581463 0.949152 0.140795
C28   C     C_3   0.858131 0.734304 0.804650 -0.821311
H23   H     H_    0.883015 0.818671 0.871261 0.240481
H24   H     H_    0.944267 0.682411 0.772074 0.211417
H25   H     H_    0.810441 0.780821 0.722261 0.241479
O12   O     O_3   0.333605 0.306354 0.087734 -0.577049
C29   C     C_3   0.224924 0.372787 0.130994 0.093616
H26   H     H_    0.172560 0.418538 0.050849 0.140795
H27   H     H_    0.246177 0.456658 0.199924 0.126746
C30   C     C_3   0.141869 0.265695 0.195350 -0.821311
H28   H     H_    0.189559 0.219178 0.277738 0.241479
H29   H     H_    0.055733 0.317588 0.227926 0.211417
H30   H     H_    0.116985 0.181329 0.128738 0.240481

loop_
_geom_bond_atom_site_label_1
_geom_bond_atom_site_label_2
_ccdc_geom_bond_type
C15   C18   A    
C1    C21   A    
C8    C13   S    
Cu2   O6    S    
C30   H28   S    
C19   H7    S    
O9    C23   S    
C7    C11   S    
C23   C24   S    
Cu2   N2    S    
C9    O11   S    
C7    O9    S    
C19   C21   A    
C16   N1    A    
C26   H19   S    
C21   H9    S    
Cu1   O7    S    
C9    C13   S    
C27   H22   S    
C25   H16   S    
C7    C14   S    
C16   C17   A    
C28   H24   S    
C2    C22   A    
Cu2   O2    S    
Cu1   Cu2   S    
C29   H26   S    
C17   N2    A    
C18   N1    A    
C24   H15   S    
C30   H29   S    
O12   C29   S    
C25   H17   S    
C16   H2    S    
C22   H10   S    
C23   H12   S    
C17   H3    S    
C18   H4    S    
C10   C14   S    
C26   H20   S    
C24   H14   S    
Cu1   O1    S    
C27   H21   S    
C4    O3    A    
C8    C12   S    
C28   H25   S    
C29   C30   S    
C11   H5    S    
C5    C14   S    
C5    O8    A    
C12   C14   S    
C3    O4    A    
C24   H13   S    
Cu1   N1    S    
C6    O7    A    
Cu2   O8    S    
C30   H30   S    
C15   N2    A    
C20   H8    S    
C7    C9    S    
C5    O5    A    
C23   H11   S    
C1    C20   A    
C27   C28   S    
C12   H6    S    
C2    C19   A    
C20   C22   A    
C8    O10   S    
O10   C25   S    
Cu1   O5    S    
C1    C4    S    
C2    C3    S    
C6    C13   S    
C11   C13   S    
C26   H18   S    
Cu1   O3    S    
Cu2   O4    S    
O11   C27   S    
C9    C12   S    
C15   H1    S    
C10   C11   S    
C10   O12   S    
C3    O1    A    
C8    C10   S    
C28   H23   S    
C6    O6    A    
C29   H27   S    
C4    O2    A    
C25   C26   S    
