data_mof_unit_63546.cif
_audit_creation_date              2012-12-10T19:16:49-0500
_audit_creation_method            fapswitch 2.2
_symmetry_space_group_name_H-M    P1
_symmetry_Int_Tables_number       1
_space_group_crystal_system       triclinic
_cell_length_a                    16.005974
_cell_length_b                    14.754828
_cell_length_c                    10.842544
_cell_angle_alpha                 90.022115
_cell_angle_beta                  89.986155
_cell_angle_gamma                 90.003749
_cell_volume                      2560.63339763

loop_
_atom_site_label
_atom_site_type_symbol
_atom_type_description
_atom_site_fract_x
_atom_site_fract_y
_atom_site_fract_z
_atom_type_partial_charge
C1    C     C_R   0.340929 0.499998 0.500185 0.813464
C2    C     C_3   0.590019 0.521335 0.926990 0.123450
C3    C     C_R   0.956218 0.502663 0.613649 0.159265
C4    C     C_R   0.956282 0.497537 0.388086 0.157838
C5    C     C_R   0.912536 0.500085 0.500852 -0.063186
C6    C     C_R   0.043720 0.497541 0.388100 0.152759
C7    C     C_R   0.043677 0.502675 0.613661 0.155303
C8    C     C_R   0.087419 0.500092 0.500879 -0.065582
C9    C     C_1   0.822849 0.500052 0.500759 -0.050803
C10   C     C_1   0.177115 0.500047 0.500814 -0.049454
C11   C     C_1   0.252031 0.500010 0.500567 -0.131008
C12   C     C_1   0.747939 0.500024 0.500499 -0.145952
C13   C     C_R   0.502232 0.951646 0.612084 0.104993
C14   C     C_R   0.500834 0.047927 0.612541 0.037708
C15   C     C_R   0.497646 0.499855 0.259612 1.067180
C16   C     C_R   0.500357 0.902941 0.500119 -0.089512
C17   C     C_R   0.499419 0.097060 0.500420 -0.108458
C18   C     C_R   0.496803 0.951389 0.387995 0.278002
C19   C     C_R   0.499547 0.048691 0.388034 0.312044
C20   C     C_1   0.500105 0.802655 0.500089 0.348807
C21   C     C_1   0.499769 0.197355 0.500172 0.283352
C22   C     C_R   0.659051 0.500006 0.500114 0.813694
C23   C     C_R   0.497905 0.499844 0.740521 0.850037
C24   C     C_3   0.429969 0.572073 0.074412 0.522851
C25   C     C_3   0.471008 0.400296 0.074895 0.553840
C26   C     C_3   0.432746 0.575704 0.926844 0.327852
C27   C     C_3   0.467461 0.400560 0.928195 0.383498
C28   C     C_3   0.587845 0.522605 0.074416 0.609709
C29   C     C_3   0.496346 0.499192 0.121811 -0.186219
C30   C     C_3   0.496771 0.499347 0.878463 -0.187385
Cu1   Cu    Cu3+1 0.500000 0.589220 0.500040 1.054614
Cu2   Cu    Cu3+1 0.500000 0.410780 0.500040 1.045767
N1    N     N_1   0.499980 0.276710 0.500040 -0.143834
N2    N     N_1   0.499980 0.723290 0.500040 -0.145681
O1    O     O_R   0.380310 0.575320 0.500060 -0.574847
O2    O     O_R   0.380310 0.424680 0.500060 -0.583568
O3    O     O_R   0.499990 0.575340 0.317720 -0.519495
O4    O     O_R   0.499990 0.424660 0.317720 -0.517856
O5    O     O_R   0.619690 0.575360 0.500000 -0.580846
O6    O     O_R   0.619690 0.424640 0.500000 -0.571697
O7    O     O_R   0.500010 0.575340 0.682340 -0.548633
O8    O     O_R   0.500010 0.424660 0.682340 -0.560746
O9    O     O_3   0.449747 0.658014 0.123026 -0.694889
H1    H     H_    0.402478 0.699430 0.104131 0.372293
O10   O     O_3   0.530458 0.336829 0.118639 -0.648805
H2    H     H_    0.509711 0.274601 0.101877 0.351965
O11   O     O_3   0.489304 0.901903 0.280387 -0.712715
H3    H     H_    0.459632 0.939106 0.218336 0.336598
O12   O     O_3   0.503741 0.098254 0.280141 -0.723623
H4    H     H_    0.531478 0.061103 0.216057 0.336846
O13   O     O_3   0.350047 0.551530 0.123947 -0.714079
H5    H     H_    0.319917 0.506797 0.073670 0.352761
O14   O     O_3   0.393140 0.376735 0.127868 -0.747257
H6    H     H_    0.379365 0.313406 0.104513 0.345769
N3    N     N_3   0.348673 0.560858 0.875628 -0.641532
H7    H     H_    0.349807 0.567013 0.779624 0.234015
H8    H     H_    0.309333 0.612847 0.906378 0.263258
N4    N     N_3   0.382457 0.376225 0.885550 -0.550615
H9    H     H_    0.373965 0.387755 0.791494 0.240951
H10   H     H_    0.333642 0.406691 0.932987 0.227761
O15   O     O_3   0.456626 0.662529 0.882506 -0.675559
H11   H     H_    0.500421 0.690533 0.933557 0.367879
O16   O     O_3   0.518535 0.331191 0.877568 -0.683748
H12   H     H_    0.571619 0.323345 0.922211 0.381657
O17   O     O_3   0.615080 0.606117 0.125758 -0.723627
H13   H     H_    0.590579 0.658024 0.081688 0.364273
O18   O     O_3   0.642782 0.455835 0.120765 -0.663831
H14   H     H_    0.700487 0.480638 0.119601 0.343508
N5    N     N_3   0.620716 0.608900 0.878373 -0.600036
H15   H     H_    0.632254 0.604264 0.783766 0.239814
H16   H     H_    0.679196 0.623310 0.916827 0.232083
N6    N     N_3   0.649438 0.451456 0.883723 -0.558523
H17   H     H_    0.649674 0.448155 0.787447 0.214874
H18   H     H_    0.710441 0.469382 0.908289 0.224686
N7    N     N_3   0.087184 0.505334 0.729332 -0.529588
H19   H     H_    0.125391 0.562816 0.730493 0.223651
H20   H     H_    0.125362 0.448004 0.735330 0.223953
N8    N     N_3   0.087253 0.494922 0.272421 -0.523828
H21   H     H_    0.125445 0.552249 0.266448 0.239496
H22   H     H_    0.125424 0.437422 0.271199 0.235230
N9    N     N_3   0.912650 0.505288 0.729308 -0.534490
H23   H     H_    0.874458 0.447958 0.735273 0.221236
H24   H     H_    0.874444 0.562764 0.730484 0.217919
N10   N     N_3   0.912798 0.494912 0.272393 -0.530207
H25   H     H_    0.874614 0.552238 0.266403 0.230934
H26   H     H_    0.874615 0.437416 0.271162 0.231368
N11   N     N_3   0.501651 0.094762 0.728518 -0.571243
H27   H     H_    0.554306 0.136662 0.731158 0.245406
H28   H     H_    0.448465 0.135749 0.733450 0.246948
N12   N     N_3   0.504817 0.902612 0.726204 -0.553290
H29   H     H_    0.452553 0.920873 0.778467 0.254328
H30   H     H_    0.558315 0.922505 0.774452 0.248757

loop_
_geom_bond_atom_site_label_1
_geom_bond_atom_site_label_2
_ccdc_geom_bond_type
N11   H27   S    
C13   N12   S    
C1    C11   S    
N3    H7    S    
C26   N3    S    
N9    H23   S    
C7    C8    A    
O10   H2    S    
C23   O8    A    
Cu2   O2    S    
C28   C29   S    
C26   O15   S    
C25   O14   S    
C14   N11   S    
C3    C7    A    
N8    H22   S    
C6    N8    S    
C21   N1    T    
N4    H10   S    
C12   C22   S    
C18   C19   A    
N5    H16   S    
C24   C29   S    
C15   O3    A    
O11   H3    S    
C3    N9    S    
Cu2   O4    S    
C2    N5    S    
C20   N2    T    
C24   O13   S    
C13   C14   A    
C18   O11   S    
C27   C30   S    
C14   C17   A    
N5    H15   S    
C2    N6    S    
N9    H24   S    
C15   C29   S    
C25   C29   S    
O18   H14   S    
C23   C30   S    
C28   O18   S    
N10   H25   S    
N6    H18   S    
N8    H21   S    
C4    C5    A    
C7    N7    S    
N4    H9    S    
O14   H6    S    
C17   C21   S    
O13   H5    S    
N7    H19   S    
C15   O4    A    
C5    C9    S    
C19   O12   S    
N12   H30   S    
Cu1   Cu2   S    
C4    N10   S    
C16   C20   S    
C22   O6    A    
Cu1   N2    S    
C16   C18   A    
N7    H20   S    
C27   O16   S    
C4    C6    A    
C26   C30   S    
N11   H28   S    
O9    H1    S    
Cu1   O1    S    
C25   O10   S    
C1    O1    A    
Cu1   O7    S    
C24   C26   S    
N6    H17   S    
C3    C5    A    
C27   N4    S    
C6    C8    A    
C25   C27   S    
C23   O7    A    
C2    C30   S    
Cu2   N1    S    
N3    H8    S    
C28   O17   S    
O17   H13   S    
N12   H29   S    
C22   O5    A    
C17   C19   A    
Cu1   O5    S    
Cu2   O6    S    
O15   H11   S    
C9    C12   T    
C10   C11   T    
O16   H12   S    
Cu1   O3    S    
C8    C10   S    
O12   H4    S    
C13   C16   A    
C24   O9    S    
Cu2   O8    S    
N10   H26   S    
C2    C28   S    
C1    O2    A    
