data_mof_unit_23488.cif
_audit_creation_date              2012-12-10T19:35:24-0500
_audit_creation_method            fapswitch 2.2
_symmetry_space_group_name_H-M    P1
_symmetry_Int_Tables_number       1
_space_group_crystal_system       triclinic
_cell_length_a                    13.384014
_cell_length_b                    15.828942
_cell_length_c                    17.0442
_cell_angle_alpha                 84.039058
_cell_angle_beta                  90.603251
_cell_angle_gamma                 109.61827
_cell_volume                      3381.75151765

loop_
_atom_site_label
_atom_site_type_symbol
_atom_type_description
_atom_site_fract_x
_atom_site_fract_y
_atom_site_fract_z
_atom_type_partial_charge
C1    C     C_R   0.502406 0.510598 0.348417 0.794730
C2    C     C_R   0.964830 0.515527 0.521956 0.056740
C3    C     C_R   0.876585 0.523712 0.478822 -0.098006
C4    C     C_R   0.022785 0.464669 0.492828 -0.038862
C5    C     C_R   0.980178 0.406601 0.433696 -0.096110
C6    C     C_R   0.894781 0.417222 0.389458 0.474002
C7    C     C_R   0.849353 0.481678 0.407854 0.066450
C8    C     C_R   0.128267 0.478940 0.513607 -0.215074
C9    C     C_R   0.132679 0.355382 0.443855 -0.299966
C10   C     C_R   0.818802 0.575032 0.507533 -0.181644
C11   C     C_R   0.511465 0.516645 0.262211 -0.063336
C12   C     C_R   0.703266 0.547963 0.497931 0.869878
C13   C     C_R   0.537429 0.450051 0.227224 -0.225788
C14   C     C_R   0.549260 0.454951 0.145360 0.185962
C15   C     C_R   0.530201 0.526567 0.097528 0.371746
C16   C     C_R   0.507707 0.594284 0.132891 -0.233702
C17   C     C_R   0.498310 0.589568 0.214638 -0.196608
C18   C     C_R   0.583908 0.526813 0.858765 0.338683
C19   C     C_R   0.581064 0.538265 0.776168 0.287256
C20   C     C_R   0.493535 0.468953 0.902808 0.076884
C21   C     C_R   0.493906 0.483545 0.737257 -0.266932
C22   C     C_R   0.404783 0.422816 0.780911 -0.043855
C23   C     C_R   0.498230 0.489563 0.651222 0.933261
C24   C     C_R   0.406771 0.413972 0.863842 0.416100
C25   C     C_R   0.553090 0.261925 0.462092 -0.070362
C26   C     C_R   0.549487 0.171831 0.463051 -0.297292
C27   C     C_R   0.478045 0.103548 0.514797 0.333248
C28   C     C_R   0.411281 0.128950 0.563123 -0.405359
C29   C     C_R   0.414423 0.219764 0.558671 0.697130
C30   C     C_R   0.451719 0.829662 0.535679 -0.388302
C31   C     C_R   0.449095 0.738705 0.540142 0.590089
C32   C     C_R   0.522235 0.896766 0.482630 0.279691
C33   C     C_R   0.583580 0.778895 0.438959 0.613596
C34   C     C_R   0.297221 0.452316 0.500289 0.816918
C35   C     C_R   0.587306 0.870148 0.433954 -0.433100
C36   C     C_R   0.031284 0.345351 0.415431 0.558724
C37   C     C_R   0.183261 0.425682 0.488852 -0.128381
C38   C     C_R   0.864552 0.636307 0.562680 0.474971
C39   C     C_R   0.948063 0.624851 0.607175 -0.239871
C40   C     C_R   0.990890 0.558641 0.592798 0.147066
Cu1   Cu    Cu3+1 0.505120 0.585970 0.496130 1.045570
Cu2   Cu    Cu3+1 0.494880 0.414030 0.503870 0.976685
H1    H     H_    0.175264 0.313602 0.424446 0.164503
H2    H     H_    0.495833 0.650346 0.096640 0.155655
H3    H     H_    0.479764 0.642385 0.240506 0.178663
H4    H     H_    0.550470 0.394735 0.263890 0.152015
H5    H     H_    0.398059 0.847459 0.572374 0.178052
H6    H     H_    0.357146 0.078051 0.604466 0.151898
H7    H     H_    0.602271 0.156007 0.423987 0.155236
H8    H     H_    0.639706 0.920710 0.391454 0.163851
H9    H     H_    0.608619 0.313967 0.422995 0.145128
H10   H     H_    0.171227 0.535792 0.544710 0.206563
H11   H     H_    0.971845 0.661078 0.658601 0.161671
N1    N     N_2   0.536560 0.534608 0.014188 -0.176815
N2    N     N_2   0.487289 0.462859 0.986359 -0.187203
N3    N     N_R   0.487180 0.284900 0.509690 -0.201027
N4    N     N_2   0.470410 0.010050 0.521181 -0.224387
N5    N     N_2   0.530116 0.990452 0.475450 -0.213072
N6    N     N_R   0.512820 0.715120 0.490310 -0.243528
O1    O     O_R   0.504790 0.580580 0.382450 -0.544924
O2    O     O_R   0.496140 0.435390 0.388990 -0.610904
O3    O     O_R   0.657420 0.608020 0.495150 -0.505209
O4    O     O_R   0.648770 0.462830 0.501690 -0.598113
O5    O     O_R   0.503860 0.564610 0.611010 -0.544066
O6    O     O_R   0.495210 0.419420 0.617550 -0.549349
O7    O     O_R   0.351230 0.537170 0.498310 -0.546301
O8    O     O_R   0.342580 0.391980 0.504850 -0.563270
O9    O     O_3   0.674450 0.574220 0.896296 -0.539942
C41   C     C_3   0.745238 0.525180 0.898802 -0.249105
H12   H     H_    0.708065 0.455352 0.928121 0.136052
H13   H     H_    0.814532 0.559607 0.933837 0.180562
H14   H     H_    0.775214 0.523294 0.838601 0.183744
C42   C     C_3   0.304768 0.369936 0.741475 -0.684589
H15   H     H_    0.235292 0.381685 0.767208 0.229107
H16   H     H_    0.305458 0.389758 0.677178 0.215577
H17   H     H_    0.293283 0.296865 0.751054 0.246089
C43   C     C_3   0.586605 0.386205 0.111279 -0.839863
H18   H     H_    0.654981 0.420853 0.069939 0.240242
H19   H     H_    0.613174 0.344657 0.157969 0.215730
H20   H     H_    0.521272 0.339692 0.080078 0.236426
O10   O     O_3   0.318835 0.356904 0.907277 -0.544112
C44   C     C_3   0.335316 0.274307 0.929390 -0.282878
H21   H     H_    0.403779 0.283152 0.969024 0.156665
H22   H     H_    0.347101 0.241929 0.876961 0.149882
H23   H     H_    0.263706 0.227639 0.962389 0.188716
O11   O     O_3   0.377316 0.670369 0.589558 -0.545162
C45   C     C_3   0.368035 0.696719 0.665035 -0.377597
H24   H     H_    0.340097 0.635132 0.707634 0.195637
H25   H     H_    0.307430 0.730419 0.665089 0.165344
H26   H     H_    0.444996 0.740613 0.686393 0.144357
O12   O     O_3   0.873544 0.380662 0.318098 -0.532605
C46   C     C_3   0.777953 0.306867 0.324966 -0.241815
H27   H     H_    0.765807 0.266894 0.383974 0.130979
H28   H     H_    0.780565 0.260759 0.280879 0.197774
H29   H     H_    0.709916 0.330111 0.310415 0.131828
O13   O     O_3   0.349518 0.245157 0.607084 -0.559033
C47   C     C_3   0.241835 0.197449 0.593953 -0.369935
H30   H     H_    0.217024 0.128673 0.626106 0.155176
H31   H     H_    0.224739 0.194090 0.529969 0.154976
H32   H     H_    0.192622 0.233555 0.617692 0.191811
O14   O     O_3   0.644084 0.750091 0.388994 -0.539053
C48   C     C_3   0.748808 0.811193 0.377973 -0.327340
H33   H     H_    0.781295 0.841955 0.432683 0.147338
H34   H     H_    0.752718 0.864312 0.328959 0.157917
H35   H     H_    0.800500 0.773770 0.360775 0.188029
O15   O     O_3   0.987494 0.281580 0.363839 -0.531091
C49   C     C_3   0.950973 0.195559 0.407150 -0.356041
H36   H     H_    0.907682 0.145549 0.366858 0.191528
H37   H     H_    0.894453 0.192754 0.455685 0.147280
H38   H     H_    0.018174 0.175276 0.431067 0.153441
O16   O     O_3   0.813623 0.693826 0.584005 -0.540876
C50   C     C_3   0.883855 0.783633 0.572653 -0.364350
H39   H     H_    0.923752 0.800155 0.513223 0.153763
H40   H     H_    0.943663 0.797405 0.619597 0.159628
H41   H     H_    0.837439 0.829437 0.576792 0.175313
C51   C     C_3   0.049984 0.528505 0.660063 -0.878231
H42   H     H_    0.053992 0.460343 0.655475 0.240682
H43   H     H_    0.130796 0.578511 0.663145 0.238333
H44   H     H_    0.007324 0.523274 0.716919 0.233442
C52   C     C_3   0.783587 0.513027 0.346048 -0.794042
H45   H     H_    0.815665 0.515358 0.285748 0.259698
H46   H     H_    0.700696 0.466396 0.350535 0.219016
H47   H     H_    0.785108 0.582572 0.352089 0.208893
O17   O     O_3   0.667825 0.598132 0.733266 -0.545256
C53   C     C_3   0.665243 0.686403 0.734987 -0.168577
H48   H     H_    0.602394 0.697127 0.696319 0.153307
H49   H     H_    0.742380 0.735284 0.712115 0.195983
H50   H     H_    0.653903 0.702434 0.795627 0.153325

loop_
_geom_bond_atom_site_label_1
_geom_bond_atom_site_label_2
_ccdc_geom_bond_type
C45   H24   S    
O14   C48   S    
C34   C37   S    
C42   H16   S    
Cu1   Cu2   S    
O16   C50   S    
C1    C11   S    
C25   N3    A    
C32   N5    S    
C4    C8    A    
C34   O7    A    
C50   H40   S    
C47   H30   S    
C40   C51   S    
C43   H18   S    
C26   C27   A    
C33   O14   S    
C5    C6    A    
C28   C29   A    
C19   C21   A    
C17   H3    S    
C3    C7    A    
C30   C31   A    
O15   C49   S    
C18   O9    S    
C15   C16   A    
C5    C36   A    
C51   H42   S    
C48   H35   S    
C18   C19   A    
C42   H15   S    
C14   C43   S    
C31   N6    A    
C41   H13   S    
Cu2   N3    S    
C11   C17   A    
C20   C24   A    
O9    C41   S    
C9    C36   A    
C49   H36   S    
C16   H2    S    
C52   H47   S    
Cu2   O8    S    
C33   N6    A    
C31   O11   S    
C21   C22   A    
C49   H37   S    
C48   H33   S    
Cu1   O3    S    
C20   N2    S    
C46   H28   S    
C50   H39   S    
C47   H31   S    
C52   H46   S    
O10   C44   S    
C43   H19   S    
C38   C39   A    
C19   O17   S    
C9    H1    S    
C36   O15   S    
C15   N1    S    
C30   H5    S    
Cu1   N6    S    
C27   N4    S    
C1    O1    A    
C39   C40   A    
C12   O4    A    
O11   C45   S    
C16   C17   A    
C25   C26   A    
C46   H29   S    
C41   H14   S    
C2    C4    A    
C24   O10   S    
C32   C35   A    
Cu2   O6    S    
C12   O3    A    
O13   C47   S    
C35   H8    S    
C9    C37   A    
C48   H34   S    
Cu2   O2    S    
C6    C7    A    
C10   C12   S    
C23   O5    A    
C44   H22   S    
C45   H25   S    
C53   H48   S    
C49   H38   S    
C22   C24   A    
C26   H7    S    
C8    C37   A    
O12   C46   S    
C47   H32   S    
C52   H45   S    
C43   H20   S    
C8    H10   S    
N1    N2    D    
C28   H6    S    
C14   C15   A    
C7    C52   S    
Cu1   O1    S    
C4    C5    A    
C1    O2    A    
C34   O8    A    
C29   O13   S    
Cu1   O7    S    
C29   N3    A    
C44   H23   S    
C25   H9    S    
C22   C42   S    
C51   H44   S    
C10   C38   A    
C23   O6    A    
C21   C23   S    
C2    C3    A    
C3    C10   A    
C30   C32   A    
C11   C13   A    
N4    N5    D    
C39   H11   S    
C53   H50   S    
C46   H27   S    
C33   C35   A    
C51   H43   S    
C18   C20   A    
C41   H12   S    
C2    C40   A    
C42   H17   S    
C44   H21   S    
C45   H26   S    
C27   C28   A    
C53   H49   S    
C13   H4    S    
Cu1   O5    S    
C38   O16   S    
C13   C14   A    
Cu2   O4    S    
C50   H41   S    
C6    O12   S    
O17   C53   S    
