data_mof_unit_50387.cif
_audit_creation_date              2013-03-05T16:04:38-0500
_audit_creation_method            fapswitch 2.2
_symmetry_space_group_name_H-M    P1
_symmetry_Int_Tables_number       1
_space_group_crystal_system       triclinic
_cell_length_a                    9.604479
_cell_length_b                    10.796874
_cell_length_c                    15.450935
_cell_angle_alpha                 88.867346
_cell_angle_beta                  73.269902
_cell_angle_gamma                 91.205226
_cell_volume                      1533.51858445

loop_
_atom_site_label
_atom_site_type_symbol
_atom_site_description
_atom_site_fract_x
_atom_site_fract_y
_atom_site_fract_z
_atom_type_partial_charge
O1    O     O_R   0.118740 0.319660 0.500000 -0.509529
O2    O     O_R   0.881260 0.680340 0.500000 -0.507652
O3    O     O_R   0.881170 0.319630 0.500010 -0.560260
O4    O     O_R   0.118830 0.680370 0.499990 -0.563271
C1    C     C_R   0.999966 0.262659 0.497751 0.873084
C2    C     C_R   0.000094 0.737417 0.502044 0.855180
O5    O     O_R   0.055570 0.500030 0.629830 -0.535010
O6    O     O_R   0.944430 0.499970 0.370170 -0.548303
O7    O     O_R   0.818000 0.500000 0.629840 -0.503492
O8    O     O_R   0.182000 0.500000 0.370160 -0.489445
C3    C     C_R   0.917676 0.506506 0.672193 0.926594
C4    C     C_R   0.082728 0.496902 0.327154 0.928336
Cu1   Cu    Cu3+1 0.140660 0.500020 0.500000 1.172597
Cu2   Cu    Cu3+1 0.859340 0.499980 0.500000 1.166078
C5    C     C_R   0.872309 0.540443 0.768326 -0.323960
C6    C     C_R   0.127379 0.494060 0.226654 -0.349112
C7    C     C_R   0.889940 0.677664 0.888017 0.631686
C8    C     C_R   0.071608 0.464652 0.083940 0.617693
C9    C     C_R   0.951311 0.630306 0.802074 0.153001
C10   C     C_R   0.026622 0.462241 0.178582 0.166949
C11   C     C_R   0.732714 0.502869 0.821171 0.637093
C12   C     C_R   0.271625 0.527477 0.177494 0.646858
C13   C     C_R   0.660615 0.568311 0.898460 -0.072994
C14   C     C_R   0.312513 0.542552 0.082601 -0.087238
C15   C     C_R   0.744911 0.647827 0.936136 -0.150072
C16   C     C_R   0.214647 0.500427 0.036071 -0.172495
C17   C     C_R   0.508182 0.554901 0.940662 -0.021166
C18   C     C_R   0.452644 0.589534 0.032171 0.001198
C19   C     C_R   0.536298 0.674963 0.067434 0.378303
C20   C     C_R   0.406977 0.516946 0.893919 0.384966
C21   C     C_R   0.681400 0.701596 0.019114 -0.090761
C22   C     C_R   0.261580 0.492697 0.942138 -0.086354
H1    H     H_    0.743800 0.768050 0.045471 0.238432
H2    H     H_    0.185267 0.466245 0.905516 0.228951
C23   C     C_R   0.884008 0.062925 0.555310 -0.176635
C24   C     C_R   0.115934 0.937310 0.443878 -0.173086
H3    H     H_    0.797795 0.111988 0.601438 0.239445
H4    H     H_    0.202109 0.888193 0.397777 0.242660
C25   C     C_R   0.882780 0.934270 0.560875 0.358361
C26   C     C_R   0.116672 0.066047 0.437894 0.351195
C27   C     C_R   0.000521 0.871396 0.504350 -0.173393
C28   C     C_R   0.999483 0.128802 0.495016 -0.178922
C29   C     C_R   0.552399 0.402868 0.538091 0.255072
C30   C     C_R   0.447666 0.597107 0.461830 0.251209
C31   C     C_R   0.404402 0.404542 0.539070 0.677692
C32   C     C_R   0.595690 0.595383 0.460813 0.658699
N1    N     N_R   0.352080 0.500030 0.499980 -0.327002
N2    N     N_R   0.647920 0.499970 0.500020 -0.327651
F1    F     F_    0.375737 0.534601 0.220945 -0.565897
F2    F     F_    0.670377 0.399198 0.798729 -0.575687
N3    N     N_R   0.881749 0.417624 0.224303 0.192751
O9    O     O_R   0.862110 0.317636 0.275306 -0.276812
O10   O     O_R   0.771283 0.464270 0.203562 -0.224107
N4    N     N_R   0.087967 0.681891 0.747730 0.171685
O11   O     O_R   0.104178 0.801223 0.733364 -0.225687
O12   O     O_R   0.202115 0.613750 0.726586 -0.273214
F3    F     F_    0.969719 0.758632 0.922020 -0.582018
F4    F     F_    0.976528 0.427009 0.038717 -0.598738
N5    N     N_R   0.470481 0.751019 0.143110 0.183758
O13   O     O_R   0.339759 0.791202 0.154425 -0.301472
O14   O     O_R   0.549640 0.799183 0.190208 -0.215114
N6    N     N_R   0.443447 0.519220 0.797055 0.178396
O15   O     O_R   0.512286 0.615010 0.750384 -0.266912
O16   O     O_R   0.389730 0.434123 0.756441 -0.249090
N7    N     N_R   0.764642 0.869976 0.626152 0.161479
O17   O     O_R   0.790371 0.779377 0.675548 -0.362110
O18   O     O_R   0.634081 0.913211 0.645704 -0.206937
N8    N     N_R   0.233264 0.130532 0.371449 0.157726
O19   O     O_R   0.205913 0.222380 0.323618 -0.332753
O20   O     O_R   0.363585 0.086575 0.349432 -0.207613
N9    N     N_R   0.600124 0.295167 0.575038 0.181107
O21   O     O_R   0.576371 0.186705 0.545976 -0.249499
O22   O     O_R   0.634162 0.301733 0.650260 -0.224440
N10   N     N_R   0.400099 0.704541 0.424462 0.184839
O23   O     O_R   0.427269 0.813635 0.451144 -0.237056
O24   O     O_R   0.360024 0.696286 0.351421 -0.241014
F5    F     F_    0.312959 0.311090 0.582542 -0.550290
F6    F     F_    0.687354 0.688529 0.417039 -0.558812

loop_
_geom_bond_atom_site_label_1
_geom_bond_atom_site_label_2
_geom_bond_distance
_ccdc_geom_bond_type
C15   C21   1.395329 A    
C1    C28   1.446631 S    
C16   C22   1.395094 A    
C8    C16   1.401772 A    
C25   C27   1.410504 A    
C5    C9    1.416271 A    
N10   O24   1.297052 A    
O1    C1    1.294385 A    
C18   C19   1.426137 A    
C23   H3    1.080669 S    
C14   C16   1.411116 A    
C10   N3    1.435138 S    
C20   N6    1.435129 S    
O4    Cu1   1.962853 S    
C23   C28   1.396282 A    
N6    O16   1.301294 A    
C3    C5    1.478504 S    
C8    F4    1.360261 S    
C19   N5    1.440620 S    
N8    O19   1.300899 A    
N7    O18   1.301425 A    
C2    C27   1.447638 S    
C29   N9    1.426538 S    
C21   H1    1.083432 S    
C13   C17   1.423830 A    
C29   N2    1.382494 A    
C30   N1    1.382895 A    
C6    C10   1.419897 A    
C26   C28   1.410211 A    
N5    O13   1.301782 A    
Cu1   Cu2   2.701924 S    
C17   C20   1.425995 A    
C25   N7    1.437671 S    
C24   C27   1.397300 A    
O2    C2    1.294357 A    
C11   F2    1.355820 S    
C30   C32   1.417772 A    
O5    C3    1.301525 A    
C32   N2    1.360831 A    
C31   N1    1.360939 A    
N4    O12   1.298909 A    
N5    O14   1.301861 A    
N10   O23   1.301411 A    
N3    O9    1.301636 A    
C4    C6    1.488328 S    
C24   C26   1.390942 A    
O4    C2    1.300142 A    
C32   F6    1.355362 S    
Cu2   N2    2.030487 S    
C6    C12   1.410239 A    
N3    O10   1.301484 A    
C22   H2    1.084129 S    
C23   C25   1.389619 A    
O7    Cu2   1.929693 S    
N6    O15   1.301551 A    
O7    C3    1.307417 A    
O5    Cu1   1.935995 S    
O6    C4    1.304466 A    
C30   N10   1.426611 S    
C29   C31   1.417652 A    
O3    Cu2   1.962853 S    
O8    C4    1.309972 A    
C12   F1    1.357126 S    
C9    N4    1.433246 S    
C11   C13   1.408076 A    
C12   C14   1.409544 A    
O1    Cu1   1.954264 S    
Cu1   N1    2.030486 S    
N4    O11   1.301487 A    
O6    Cu2   1.935995 S    
C14   C18   1.423985 A    
O3    C1    1.299561 A    
O8    Cu1   1.929694 S    
C7    C15   1.404358 A    
C24   H4    1.080565 S    
N9    O21   1.301365 A    
C19   C21   1.399252 A    
C20   C22   1.397014 A    
C7    C9    1.400385 A    
C8    C10   1.399997 A    
C13   C15   1.411840 A    
O2    Cu2   1.954264 S    
C5    C11   1.400927 A    
N8    O20   1.301489 A    
N7    O17   1.299860 A    
C26   N8    1.438667 S    
N9    O22   1.297597 A    
C17   C18   1.420754 A    
C31   F5    1.355310 S    
C7    F3    1.359819 S    
