data_mof_unit_65229.cif
_audit_creation_date              2012-12-10T20:46:34-0500
_audit_creation_method            fapswitch 2.2
_symmetry_space_group_name_H-M    P1
_symmetry_Int_Tables_number       1
_space_group_crystal_system       triclinic
_cell_length_a                    15.465529
_cell_length_b                    19.246736
_cell_length_c                    19.244968
_cell_angle_alpha                 94.560149
_cell_angle_beta                  102.515536
_cell_angle_gamma                 97.048014
_cell_volume                      5516.71661486

loop_
_atom_site_label
_atom_site_type_symbol
_atom_type_description
_atom_site_fract_x
_atom_site_fract_y
_atom_site_fract_z
_atom_type_partial_charge
C1    C     C_R   0.509212 0.311820 0.493680 0.514477
C2    C     C_R   0.888679 0.531164 0.503558 0.206739
C3    C     C_R   0.881025 0.554886 0.627640 -0.149989
C4    C     C_R   0.491096 0.687943 0.506469 0.494372
C5    C     C_R   0.159973 0.449447 0.452201 0.043782
C6    C     C_R   0.490730 0.764553 0.511528 0.071337
C7    C     C_R   0.480532 0.799536 0.448850 -0.041966
C8    C     C_R   0.483787 0.872754 0.454800 -0.068464
C9    C     C_R   0.497236 0.911852 0.522194 0.199533
C10   C     C_R   0.505205 0.876953 0.583461 -0.091372
C11   C     C_R   0.502626 0.803805 0.579313 -0.035396
C12   C     C_R   0.021408 0.416892 0.362372 -0.130894
C13   C     C_R   0.499969 0.126845 0.546418 -0.074213
C14   C     C_R   0.497826 0.199401 0.550123 -0.043904
C15   C     C_R   0.513572 0.089501 0.484647 0.199922
C16   C     C_R   0.509803 0.508426 0.690867 0.524605
C17   C     C_R   0.511509 0.235801 0.491385 0.072404
C18   C     C_R   0.526666 0.198551 0.429688 -0.040107
C19   C     C_R   0.527219 0.125783 0.427216 -0.090017
C20   C     C_R   0.485704 0.487846 0.231805 0.034643
C21   C     C_R   0.561492 0.510083 0.205271 0.203540
C22   C     C_R   0.553117 0.511521 0.131938 -0.056191
C23   C     C_R   0.974435 0.443662 0.409788 -0.062351
C24   C     C_R   0.469549 0.490598 0.083471 0.183196
C25   C     C_R   0.394871 0.467810 0.110047 -0.124392
C26   C     C_R   0.402873 0.465832 0.183526 -0.190560
C27   C     C_R   0.446137 0.520864 0.869411 -0.100482
C28   C     C_R   0.491040 0.490557 0.309165 0.535590
C29   C     C_R   0.442319 0.524266 0.796695 -0.141234
C30   C     C_R   0.523078 0.502991 0.914635 0.238580
C31   C     C_R   0.514666 0.509273 0.767974 0.018456
C32   C     C_R   0.591701 0.492511 0.813059 -0.129250
C33   C     C_R   0.596748 0.489961 0.886194 0.005618
C34   C     C_R   0.019347 0.476008 0.478789 0.012039
C35   C     C_R   0.741727 0.534525 0.535519 0.529963
C36   C     C_R   0.258242 0.464650 0.467052 0.553653
C37   C     C_R   0.969563 0.545045 0.650167 -0.136192
C38   C     C_R   0.839543 0.546397 0.554685 0.056533
C39   C     C_R   0.113917 0.422602 0.382234 -0.134018
C40   C     C_3   0.515710 0.769341 0.647887 -0.377359
C41   C     C_3   0.543761 0.235532 0.366659 -0.379260
C42   C     C_3   0.463934 0.759802 0.375236 -0.376151
C43   C     C_3   0.680371 0.472273 0.933633 -0.377601
C44   C     C_3   0.477434 0.234522 0.616603 -0.378157
C45   C     C_R   0.110941 0.468209 0.503521 0.032493
C46   C     C_R   0.974096 0.509299 0.526210 0.024918
C47   C     C_R   0.015536 0.520169 0.600503 -0.021323
C48   C     C_R   0.100519 0.502301 0.625507 -0.090728
C49   C     C_R   0.147842 0.475581 0.578441 0.235531
Cl1   Cl    Cl    0.669248 0.534272 0.261186 -0.501417
Cl2   Cl    Cl    0.847188 0.551406 0.415426 -0.518964
Cl3   Cl    Cl    0.241795 0.436892 0.618308 -0.617288
H1    H     H_    0.843506 0.566864 0.667473 0.118758
H2    H     H_    0.343764 0.448825 0.202825 0.136341
H3    H     H_    0.648186 0.481516 0.791237 0.134486
H4    H     H_    0.612314 0.529476 0.113195 0.168920
H5    H     H_    0.000068 0.552145 0.707025 0.119858
H6    H     H_    0.149579 0.406375 0.342499 0.136722
H7    H     H_    0.902443 0.434979 0.392918 0.182473
H8    H     H_    0.986051 0.393269 0.309297 0.134726
H9    H     H_    0.532043 0.808826 0.695864 0.119480
H10   H     H_    0.453461 0.734713 0.649536 0.169155
H11   H     H_    0.571759 0.737838 0.651569 0.131937
H12   H     H_    0.488842 0.099550 0.591520 0.143887
H13   H     H_    0.560356 0.199062 0.325370 0.125026
H14   H     H_    0.483266 0.257664 0.341041 0.166755
H15   H     H_    0.600943 0.278667 0.384800 0.142167
H16   H     H_    0.405997 0.717440 0.367449 0.132958
H17   H     H_    0.448635 0.794717 0.332267 0.122748
H18   H     H_    0.524223 0.736449 0.368790 0.181986
H19   H     H_    0.732045 0.463195 0.903170 0.118844
H20   H     H_    0.709070 0.516337 0.976438 0.152392
H21   H     H_    0.664044 0.423729 0.958569 0.156613
H22   H     H_    0.464656 0.289519 0.612113 0.168140
H23   H     H_    0.514702 0.907563 0.634995 0.123837
H24   H     H_    0.416288 0.205001 0.627472 0.136671
H25   H     H_    0.534228 0.234134 0.663026 0.140181
H26   H     H_    0.475351 0.899147 0.406631 0.142670
H27   H     H_    0.537914 0.096637 0.379997 0.125135
H28   H     H_    0.382261 0.537325 0.762741 0.167422
H29   H     H_    0.389260 0.532585 0.890213 0.141854
H30   H     H_    0.330211 0.451631 0.073644 0.135063
H31   H     H_    0.129262 0.506763 0.682617 0.143740
N1    N     N_2   0.501243 0.986188 0.530767 -0.248704
N2    N     N_2   0.511550 0.015282 0.476929 -0.246359
N3    N     N_2   0.458326 0.492499 0.008308 -0.240680
N4    N     N_2   0.530608 0.500013 0.989110 -0.251172
O1    O     O_3   0.500000 0.500000 0.500000 -0.453689
O2    O     O_R   0.703360 0.489010 0.567610 -0.560237
O3    O     O_R   0.300660 0.429640 0.429680 -0.550605
O4    O     O_R   0.695340 0.566530 0.487850 -0.465211
O5    O     O_R   0.300650 0.514820 0.514850 -0.490919
O6    O     O_R   0.453370 0.540700 0.651360 -0.514003
O7    O     O_R   0.442100 0.444740 0.334100 -0.563793
O8    O     O_R   0.561930 0.354050 0.543340 -0.538658
O9    O     O_R   0.542600 0.660510 0.471200 -0.547756
O10   O     O_R   0.453390 0.335660 0.446330 -0.538752
O11   O     O_R   0.442080 0.649780 0.539130 -0.553677
O12   O     O_R   0.561920 0.473910 0.663190 -0.554736
O13   O     O_R   0.542610 0.540650 0.351350 -0.475338
Zn1   Zn    Zn3+2 0.425320 0.550450 0.550460 0.966463
Zn2   Zn    Zn3+2 0.580410 0.455020 0.567370 0.943968
Zn3   Zn    Zn3+2 0.568940 0.565780 0.453410 1.002543
Zn4   Zn    Zn3+2 0.425330 0.428750 0.428760 0.947688

loop_
_geom_bond_atom_site_label_1
_geom_bond_atom_site_label_2
_ccdc_geom_bond_type
C43   H21   S    
C42   H16   S    
C43   H20   S    
C4    O11   A    
O2    Zn2   S    
C27   C29   A    
O1    Zn1   S    
C7    C8    A    
C41   H15   S    
C2    C46   A    
C16   C31   S    
C23   H7    S    
C29   H28   S    
C12   C23   A    
C16   O6    A    
C40   H11   S    
C44   H25   S    
C5    C36   S    
C42   H18   S    
C40   H10   S    
C28   O7    A    
C18   C19   A    
C7    C42   S    
C44   H24   S    
C4    O9    A    
C31   C32   A    
C3    C38   A    
C8    C9    A    
C34   C46   A    
C37   C47   A    
C9    C10   A    
C32   H3    S    
O8    Zn2   S    
C15   N2    S    
C28   O13   A    
O7    Zn4   S    
C13   C14   A    
C27   C30   A    
C8    H26   S    
C14   C17   A    
C26   H2    S    
C21   Cl1   S    
O1    Zn4   S    
C33   C43   S    
C27   H29   S    
C35   C38   S    
C24   C25   A    
C4    C6    S    
C10   C11   A    
C18   C41   S    
O6    Zn1   S    
C6    C11   A    
N3    N4    D    
C22   H4    S    
C20   C28   S    
C25   C26   A    
C39   H6    S    
C5    C45   A    
C42   H17   S    
C40   H9    S    
C15   C19   A    
C10   H23   S    
C2    C38   A    
C47   C48   A    
C45   C49   A    
C1    O8    A    
C23   C34   A    
C17   C18   A    
C34   C45   A    
N1    N2    D    
C44   H22   S    
O3    Zn4   S    
C6    C7    A    
O5    Zn1   S    
C35   O2    A    
C48   C49   A    
C13   C15   A    
C25   H30   S    
C22   C24   A    
C1    O10   A    
O1    Zn3   S    
C14   C44   S    
C36   O3    A    
C46   C47   A    
C43   H19   S    
C30   C33   A    
C49   Cl3   S    
O4    Zn3   S    
O1    Zn2   S    
C16   O12   A    
C41   H14   S    
O11   Zn1   S    
C1    C17   S    
C48   H31   S    
C32   C33   A    
C12   C39   A    
C5    C39   A    
C29   C31   A    
C3    H1    S    
C36   O5    A    
C13   H12   S    
C20   C26   A    
O13   Zn3   S    
C41   H13   S    
C11   C40   S    
O10   Zn4   S    
C2    Cl2   S    
C9    N1    S    
C12   H8    S    
O12   Zn2   S    
C20   C21   A    
C3    C37   A    
O9    Zn3   S    
C30   N4    S    
C21   C22   A    
C24   N3    S    
C37   H5    S    
C19   H27   S    
C35   O4    A    
