data_mof_unit_55630.cif
_audit_creation_date              2012-12-10T17:15:16-0500
_audit_creation_method            fapswitch 2.2
_symmetry_space_group_name_H-M    P1
_symmetry_Int_Tables_number       1
_space_group_crystal_system       triclinic
_cell_length_a                    15.860664
_cell_length_b                    13.003376
_cell_length_c                    11.64945
_cell_angle_alpha                 100.978305
_cell_angle_beta                  93.382889
_cell_angle_gamma                 90.354822
_cell_volume                      2354.1562894

loop_
_atom_site_label
_atom_site_type_symbol
_atom_type_description
_atom_site_fract_x
_atom_site_fract_y
_atom_site_fract_z
_atom_type_partial_charge
C1    C     C_R   0.500965 0.298469 0.476864 0.796821
C2    C     C_R   0.499035 0.701531 0.523136 0.796820
C3    C     C_R   0.528421 0.009377 0.350183 -0.206921
C4    C     C_R   0.471579 0.990623 0.649817 -0.206921
C5    C     C_R   0.525310 0.117921 0.353755 0.074998
C6    C     C_R   0.474690 0.882079 0.646245 0.074998
C7    C     C_R   0.485997 0.139905 0.557522 -0.280892
C8    C     C_R   0.514003 0.860095 0.442478 -0.280892
C9    C     C_R   0.489301 0.032679 0.551982 0.135045
C10   C     C_R   0.510699 0.967321 0.448018 0.135045
C11   C     C_R   0.424572 0.393776 0.019749 -0.013020
C12   C     C_R   0.575428 0.606224 0.980251 -0.013020
C13   C     C_R   0.432370 0.406248 0.143486 0.065720
C14   C     C_R   0.567630 0.593753 0.856514 0.065719
C15   C     C_R   0.531330 0.545622 0.158644 0.004387
C16   C     C_R   0.468670 0.454378 0.841356 0.004388
C17   C     C_R   0.527100 0.538559 0.035112 -0.005935
C18   C     C_R   0.472900 0.461441 0.964888 -0.005935
C19   C     C_R   0.339737 0.499846 0.500641 0.832185
C20   C     C_R   0.660263 0.500154 0.499359 0.832186
C21   C     C_3   0.973094 0.435857 0.569617 -0.244352
C22   C     C_3   0.026906 0.564143 0.430383 -0.244351
C23   C     C_3   0.025201 0.402119 0.460760 0.111406
C24   C     C_3   0.974799 0.597880 0.539240 0.111406
C25   C     C_1   0.250208 0.499596 0.502016 -0.192133
C26   C     C_1   0.749792 0.500404 0.497984 -0.192133
C27   C     C_3   0.031658 0.533374 0.610148 0.111248
C28   C     C_3   0.968342 0.466626 0.389852 0.111248
C29   C     C_3   0.083065 0.499115 0.501880 0.070226
C30   C     C_3   0.916935 0.500885 0.498120 0.070226
C31   C     C_1   0.174742 0.499345 0.502344 -0.081073
C32   C     C_1   0.825257 0.500655 0.497656 -0.081073
C33   C     C_R   0.496113 0.816244 0.539354 -0.097889
C34   C     C_R   0.503887 0.183756 0.460646 -0.097889
Cu1   Cu    Cu3+1 0.506200 0.507730 0.615930 0.924423
Cu2   Cu    Cu3+1 0.493800 0.492270 0.384070 0.924423
H1    H     H_    0.949475 0.383660 0.626239 0.136421
H2    H     H_    0.050525 0.616340 0.373761 0.136421
N1    N     N_R   0.515540 0.519350 0.790140 -0.190717
N2    N     N_R   0.484460 0.480650 0.209860 -0.190717
O1    O     O_R   0.504400 0.354460 0.582000 -0.581530
O2    O     O_R   0.495600 0.645540 0.418000 -0.581530
O3    O     O_R   0.493920 0.341410 0.386200 -0.606209
O4    O     O_R   0.506080 0.658590 0.613800 -0.606208
O5    O     O_R   0.384320 0.506520 0.597880 -0.582256
O6    O     O_R   0.615680 0.493480 0.402120 -0.582257
O7    O     O_R   0.373840 0.493460 0.402080 -0.576144
O8    O     O_R   0.626160 0.506540 0.597920 -0.576144
C35   C     C_3   0.059366 0.291614 0.424282 -0.404985
C36   C     C_3   0.988228 0.208892 0.393970 -0.345439
C37   C     C_3   0.023620 0.098548 0.369332 -0.852402
H3    H     H_    0.065175 0.089628 0.294687 0.253945
H4    H     H_    0.060265 0.082353 0.448009 0.253825
H5    H     H_    0.970830 0.040365 0.346614 0.240604
H6    H     H_    0.946192 0.215122 0.467928 0.218843
H7    H     H_    0.950074 0.221450 0.315095 0.219859
H8    H     H_    0.098843 0.289226 0.348293 0.188116
H9    H     H_    0.100598 0.274238 0.498496 0.198838
C38   C     C_3   0.940634 0.708386 0.575718 -0.404985
C39   C     C_3   0.011772 0.791108 0.606030 -0.345438
C40   C     C_3   0.976380 0.901452 0.630669 -0.852402
H10   H     H_    0.939734 0.917648 0.551992 0.253825
H11   H     H_    0.934826 0.910371 0.705315 0.253946
H12   H     H_    0.029170 0.959635 0.653385 0.240604
H13   H     H_    0.049927 0.778549 0.684903 0.219859
H14   H     H_    0.053807 0.784878 0.532071 0.218843
H15   H     H_    0.899401 0.725762 0.501504 0.198838
H16   H     H_    0.901157 0.710774 0.651707 0.188116
C41   C     C_3   0.927106 0.435652 0.265734 -0.401717
C42   C     C_3   0.992818 0.412453 0.173346 -0.347874
C43   C     C_3   0.950382 0.387049 0.050017 -0.857094
H17   H     H_    0.908280 0.316958 0.040456 0.254274
H18   H     H_    0.912751 0.454476 0.031590 0.256124
H19   H     H_    0.999307 0.370458 0.984907 0.243316
H20   H     H_    0.035704 0.481505 0.179768 0.219017
H21   H     H_    0.031182 0.344595 0.188014 0.220509
H22   H     H_    0.884978 0.366325 0.261046 0.190443
H23   H     H_    0.887378 0.501620 0.247826 0.198131
C44   C     C_3   0.072894 0.564348 0.734266 -0.401717
C45   C     C_3   0.007182 0.587547 0.826654 -0.347874
C46   C     C_3   0.049618 0.612951 0.949983 -0.857094
H24   H     H_    0.087249 0.545523 0.968410 0.256124
H25   H     H_    0.091720 0.683042 0.959545 0.254274
H26   H     H_    0.000693 0.629542 0.015093 0.243316
H27   H     H_    0.968818 0.655405 0.811987 0.220509
H28   H     H_    0.964296 0.518495 0.820232 0.219017
H29   H     H_    0.112622 0.498380 0.752174 0.198131
H30   H     H_    0.115022 0.633675 0.738954 0.190443
H31   H     H_    0.531045 0.810378 0.361657 0.150195
H32   H     H_    0.468955 0.189622 0.638343 0.150195
C47   C     C_3   0.455333 0.836489 0.753756 -0.362432
C48   C     C_3   0.425676 0.913544 0.860138 -0.399345
C49   C     C_3   0.408575 0.857368 0.960447 -0.850258
H33   H     H_    0.359023 0.795509 0.932133 0.258687
H34   H     H_    0.467245 0.821197 0.989948 0.253628
H35   H     H_    0.386381 0.914579 0.035479 0.242238
H36   H     H_    0.475135 0.974760 0.892217 0.228799
H37   H     H_    0.366521 0.950963 0.834703 0.224620
H38   H     H_    0.404902 0.775356 0.727131 0.213704
H39   H     H_    0.513651 0.799852 0.783490 0.206135
C50   C     C_3   0.544667 0.163511 0.246244 -0.362432
C51   C     C_3   0.574324 0.086456 0.139862 -0.399344
C52   C     C_3   0.591425 0.142632 0.039553 -0.850258
H40   H     H_    0.532755 0.178803 0.010051 0.253628
H41   H     H_    0.640976 0.204491 0.067866 0.258687
H42   H     H_    0.613619 0.085421 0.964521 0.242238
H43   H     H_    0.633479 0.049037 0.165298 0.224619
H44   H     H_    0.524865 0.025239 0.107783 0.228799
H45   H     H_    0.486349 0.200147 0.216510 0.206135
H46   H     H_    0.595098 0.224644 0.272869 0.213704
H47   H     H_    0.544598 0.956068 0.271808 0.125541
H48   H     H_    0.455402 0.043932 0.728192 0.125541
H49   H     H_    0.427754 0.397357 0.784517 0.126146
H50   H     H_    0.572246 0.602642 0.215483 0.126146
H51   H     H_    0.602904 0.643130 0.811235 0.119131
H52   H     H_    0.397096 0.356870 0.188765 0.119131
C53   C     C_3   0.365804 0.310298 0.945422 -0.441865
C54   C     C_3   0.317220 0.240077 0.012124 -0.359943
C55   C     C_3   0.258918 0.162671 0.928268 -0.846947
H53   H     H_    0.209366 0.205317 0.885780 0.250548
H54   H     H_    0.295447 0.114982 0.859524 0.244488
H55   H     H_    0.227784 0.109449 0.977554 0.242217
H56   H     H_    0.362602 0.195107 0.058829 0.213777
H57   H     H_    0.277808 0.288856 0.076591 0.215709
H58   H     H_    0.318806 0.350412 0.895376 0.204156
H59   H     H_    0.404175 0.258606 0.881965 0.190926
C56   C     C_3   0.634196 0.689702 0.054578 -0.441865
C57   C     C_3   0.682780 0.759923 0.987876 -0.359943
C58   C     C_3   0.741082 0.837329 0.071732 -0.846947
H60   H     H_    0.704552 0.885018 0.140477 0.244488
H61   H     H_    0.790634 0.794683 0.114219 0.250548
H62   H     H_    0.772216 0.890551 0.022445 0.242217
H63   H     H_    0.722192 0.711144 0.923409 0.215709
H64   H     H_    0.637397 0.804893 0.941171 0.213777
H65   H     H_    0.595825 0.741394 0.118035 0.190926
H66   H     H_    0.681194 0.649588 0.104623 0.204156

loop_
_geom_bond_atom_site_label_1
_geom_bond_atom_site_label_2
_ccdc_geom_bond_type
C25   C31   T    
C11   C18   A    
C26   C32   T    
C50   C51   S    
C22   C29   S    
C27   C29   S    
Cu2   O2    S    
Cu1   Cu2   S    
C24   C27   S    
C16   H49   S    
C44   H29   S    
C46   H24   S    
C48   H37   S    
C12   C56   S    
C49   H33   S    
C23   C29   S    
C56   H65   S    
C27   C44   S    
C41   C42   S    
C19   O7    A    
C23   C35   S    
C50   H45   S    
C6    C47   S    
C22   H2    S    
C35   H8    S    
Cu2   O7    S    
C15   C17   A    
C40   H11   S    
C54   C55   S    
C13   N2    A    
C45   H28   S    
C38   H15   S    
C14   N1    A    
C41   H22   S    
C1    O3    A    
C28   C41   S    
C2    O4    A    
C12   C17   A    
C48   H36   S    
C51   H44   S    
C42   C43   S    
C47   H39   S    
C53   H59   S    
C8    C33   A    
C58   H62   S    
C21   C27   S    
C39   H14   S    
C38   C39   S    
C49   H34   S    
C22   C28   S    
C57   C58   S    
C41   H23   S    
C51   C52   S    
Cu1   O1    S    
Cu1   O8    S    
C44   H30   S    
C46   H25   S    
C1    C34   S    
C17   C18   A    
C55   H54   S    
C5    C50   S    
C37   H3    S    
Cu2   N2    S    
C56   H66   S    
C4    C6    A    
C3    H47   S    
C47   C48   S    
C43   H18   S    
C50   H46   S    
C7    H32   S    
C36   H7    S    
C35   H9    S    
C39   C40   S    
C37   H4    S    
C40   H12   S    
Cu1   N1    S    
C45   H27   S    
C57   H64   S    
C38   H16   S    
C5    C34   A    
C36   C37   S    
C15   H50   S    
C51   H43   S    
C52   H41   S    
C16   C18   A    
C54   H57   S    
C23   C28   S    
Cu2   O6    S    
Cu1   O4    S    
C20   O8    A    
C2    C33   S    
C1    O1    A    
C12   C14   A    
C39   H13   S    
C49   H35   S    
C21   C23   S    
C42   H21   S    
C7    C34   A    
C22   C24   S    
C56   C57   S    
C11   C53   S    
C42   H20   S    
C46   H26   S    
C58   H60   S    
C9    C10   A    
C55   H55   S    
C7    C9    A    
C45   C46   S    
C3    C5    A    
C43   H19   S    
C55   H53   S    
C19   O5    A    
C21   C30   S    
C36   H6    S    
C6    C33   A    
C37   H5    S    
C28   C30   S    
C43   H17   S    
C29   C31   S    
C3    C10   A    
C57   H63   S    
C30   C32   S    
C11   C13   A    
C20   C26   S    
C2    O2    A    
C24   C38   S    
C48   C49   S    
C52   H42   S    
C54   H56   S    
C4    H48   S    
C40   H10   S    
C19   C25   S    
C24   C30   S    
C15   N2    A    
C13   H52   S    
C16   N1    A    
C44   C45   S    
C21   H1    S    
C8    C10   A    
C35   C36   S    
C52   H40   S    
Cu2   O3    S    
C8    H31   S    
C47   H38   S    
C4    C9    A    
C53   C54   S    
C53   H58   S    
C20   O6    A    
C14   H51   S    
C58   H61   S    
Cu1   O5    S    
