data_mof_unit_60215.cif
_audit_creation_date              2012-12-11T14:24:05-0500
_audit_creation_method            fapswitch 2.2
_symmetry_space_group_name_H-M    P1
_symmetry_Int_Tables_number       1
_space_group_crystal_system       triclinic
_cell_length_a                    6.948736
_cell_length_b                    17.453193
_cell_length_c                    18.857684
_cell_angle_alpha                 105.430712
_cell_angle_beta                  89.666695
_cell_angle_gamma                 90.423458
_cell_volume                      2204.49721236

loop_
_atom_site_label
_atom_site_type_symbol
_atom_type_description
_atom_site_fract_x
_atom_site_fract_y
_atom_site_fract_z
_atom_type_partial_charge
O1    O     O_R   0.494360 0.416740 0.414860 -0.543267
O2    O     O_R   0.818980 0.432970 0.557290 -0.527428
O3    O     O_R   0.994290 0.583260 0.585140 -0.537100
C1    C     C_R   0.649956 0.415835 0.580528 0.710562
O4    O     O_R   0.823740 0.407570 0.413690 -0.537508
O5    O     O_R   0.999090 0.557670 0.440510 -0.521404
C2    C     C_R   0.654898 0.382587 0.388058 0.753861
O6    O     O_R   0.489560 0.442330 0.559490 -0.522686
O7    O     O_3   0.662450 0.549280 0.508970 -0.358332
V1    V     V_3+5 0.935350 0.490860 0.498340 1.396392
O8    O     O_R   0.329100 0.567030 0.442710 -0.523355
C3    C     C_R   0.160959 0.584047 0.419365 0.719412
O9    O     O_R   0.324330 0.592430 0.586310 -0.536135
C4    C     C_R   0.154867 0.614989 0.613487 0.750794
V2    V     V_3+5 0.435960 0.509140 0.501660 1.399058
O10   O     O_3   0.158990 0.450720 0.491030 -0.366211
C5    C     C_2   0.278780 0.788452 0.784863 -0.127679
C6    C     C_2   0.113765 0.817128 0.819755 -0.307855
H1    H     H_    0.414685 0.815544 0.806724 0.135681
H2    H     H_    0.976136 0.791002 0.799720 0.127714
C7    C     C_2   0.291141 0.720538 0.717343 -0.133028
C8    C     C_2   0.138130 0.682469 0.680042 -0.310032
H3    H     H_    0.434956 0.701759 0.697661 0.135424
H4    H     H_    0.993177 0.700324 0.698078 0.129993
C9    C     C_1   0.110628 0.864060 0.132766 -0.175011
C10   C     C_1   0.118188 0.821522 0.176353 0.022089
C11   C     C_1   0.127724 0.771300 0.228232 0.010468
C12   C     C_1   0.135891 0.728982 0.272000 0.005804
C13   C     C_1   0.145448 0.678711 0.323838 0.004204
C14   C     C_1   0.153044 0.636090 0.367356 -0.211003
C15   C     C_1   0.641269 0.363794 0.632454 -0.213089
C16   C     C_1   0.636881 0.321163 0.675981 0.001464
C17   C     C_1   0.633201 0.270936 0.727878 0.000915
C18   C     C_1   0.630423 0.228661 0.771730 0.000464
C19   C     C_1   0.626755 0.178496 0.823685 -0.000256
C20   C     C_1   0.622387 0.135971 0.867312 -0.208381
C21   C     C_2   0.742646 0.183048 0.236583 0.375357
C22   C     C_2   0.621154 0.182253 0.180482 -0.382990
H5    H     H_    0.536225 0.234255 0.180761 0.087310
C23   C     C_2   0.782626 0.256525 0.297726 0.042727
C24   C     C_2   0.639561 0.309600 0.325345 -0.388374
H6    H     H_    0.495724 0.296320 0.303019 0.124099
O11   O     O_R   0.774180 0.057760 0.940580 -0.527412
O12   O     O_R   0.439830 0.092440 0.086330 -0.538538
O13   O     O_R   0.264640 0.942310 0.059470 -0.524218
C25   C     C_R   0.608579 0.113988 0.114318 0.835963
O14   O     O_R   0.444740 0.067040 0.942730 -0.530944
O15   O     O_R   0.269590 0.916730 0.914840 -0.539246
C26   C     C_R   0.613744 0.084086 0.919396 0.696419
O16   O     O_R   0.769230 0.083340 0.085210 -0.507106
O17   O     O_3   0.601340 0.950770 0.991070 -0.369524
V3    V     V_3+5 0.328370 0.009130 0.001660 1.449420
O18   O     O_R   0.939550 0.907490 0.913620 -0.547429
C27   C     C_R   0.108501 0.884937 0.886445 0.725624
O19   O     O_R   0.934640 0.932890 0.057220 -0.515166
C28   C     C_R   0.102759 0.915976 0.080653 0.765289
V4    V     V_3+5 0.827780 0.990750 0.998250 1.464045
O20   O     O_3   0.104690 0.049230 0.008930 -0.358858
Cl1   Cl    Cl    0.863505 0.094415 0.238896 -0.681058
C29   C     C_3   0.986614 0.265385 0.328241 -0.278515
C30   C     C_3   0.999008 0.240006 0.400169 -0.255024
C31   C     C_3   0.206991 0.239553 0.425586 -0.747193
H7    H     H_    0.293861 0.197187 0.383266 0.239667
H8    H     H_    0.271292 0.299761 0.435890 0.241983
H9    H     H_    0.211214 0.220928 0.477452 0.214564
H10   H     H_    0.914105 0.280566 0.444376 0.190476
H11   H     H_    0.938145 0.179217 0.391752 0.232681
H12   H     H_    0.085458 0.227399 0.287279 0.192872
H13   H     H_    0.044002 0.326274 0.334706 0.168561

loop_
_geom_bond_atom_site_label_1
_geom_bond_atom_site_label_2
_ccdc_geom_bond_type
O5    V1    S    
O2    C1    A    
O8    C3    A    
O14   V3    S    
O17   V4    S    
O6    V2    S    
C13   C14   T    
C24   H6    S    
C25   O16   A    
C31   H8    S    
C19   C20   T    
C31   H9    S    
C9    C28   S    
C1    O6    A    
C3    C14   S    
C16   C17   S    
O12   V3    S    
C31   H7    S    
O19   V4    S    
C5    C6    D    
V4    O20   S    
O4    V1    S    
O14   C26   A    
O3    V1    S    
V1    O10   S    
O9    C4    A    
O15   C27   A    
C2    C24   S    
C4    C8    S    
C10   C11   S    
C21   C22   D    
O3    C4    A    
V3    O20   S    
C29   H13   S    
O1    V2    S    
C7    C8    D    
C23   C24   D    
C5    H1    S    
O12   C25   A    
C17   C18   T    
C21   C23   S    
C6    H2    S    
C7    H3    S    
O9    V2    S    
O5    C3    A    
C30   C31   S    
C8    H4    S    
O19   C28   A    
C22   C25   S    
C1    C15   S    
O7    V2    S    
V2    O10   S    
O11   V4    S    
O17   V3    S    
O2    V1    S    
O15   V3    S    
C22   H5    S    
C30   H11   S    
C29   H12   S    
C18   C19   S    
O7    V1    S    
C23   C29   S    
O4    C2    A    
C6    C27   S    
O11   C26   A    
O1    C2    A    
O18   V4    S    
O13   V3    S    
C21   Cl1   S    
C9    C10   T    
O18   C27   A    
O16   V4    S    
O8    V2    S    
C30   H10   S    
C5    C7    S    
C20   C26   S    
C15   C16   T    
O13   C28   A    
C29   C30   S    
C11   C12   T    
C12   C13   S    
