data_mof_unit_46619.cif
_audit_creation_date              2013-03-05T15:55:20-0500
_audit_creation_method            fapswitch 2.2
_symmetry_space_group_name_H-M    P1
_symmetry_Int_Tables_number       1
_space_group_crystal_system       triclinic
_cell_length_a                    12.422002
_cell_length_b                    13.296667
_cell_length_c                    13.888991
_cell_angle_alpha                 106.260091
_cell_angle_beta                  73.729379
_cell_angle_gamma                 116.671614
_cell_volume                      1935.7864375

loop_
_atom_site_label
_atom_site_type_symbol
_atom_site_description
_atom_site_fract_x
_atom_site_fract_y
_atom_site_fract_z
_atom_type_partial_charge
O1    O     O_R   0.025040 0.682470 0.528790 -0.556933
O2    O     O_R   0.194310 0.640150 0.490130 -0.615856
C1    C     C_R   0.144031 0.713345 0.512329 0.761625
O3    O     O_R   0.903380 0.524130 0.659910 -0.518403
O4    O     O_R   0.072660 0.481800 0.621240 -0.591915
C2    C     C_R   0.984224 0.504638 0.686206 0.824907
Cu1   Cu    Cu3+1 0.899780 0.525060 0.522890 1.101366
Cu2   Cu    Cu3+1 0.100220 0.474940 0.477110 0.962339
O5    O     O_R   0.805690 0.359850 0.509870 -0.483707
O6    O     O_R   0.974960 0.317530 0.471210 -0.606954
O7    O     O_R   0.927340 0.518200 0.378760 -0.509412
O8    O     O_R   0.096620 0.475870 0.340090 -0.597160
C3    C     C_R   0.855883 0.286885 0.489885 0.855296
C4    C     C_R   0.016101 0.495805 0.313807 0.817942
C5    C     C_1   0.026312 0.493693 0.208637 -0.061852
C6    C     C_2   0.042793 0.489937 0.014134 0.193209
C7    C     C_2   0.963839 0.516810 0.985939 0.195838
C8    C     C_1   0.969594 0.512618 0.880071 0.078433
C9    C     C_1   0.034509 0.492082 0.120107 0.074606
C10   C     C_1   0.975660 0.508952 0.791505 -0.047481
C11   C     C_R   0.730937 0.975487 0.381607 -0.147533
H1    H     H_    0.909636 0.109250 0.376854 0.174190
H2    H     H_    0.554407 0.789340 0.307808 0.177305
H3    H     H_    0.763789 0.917630 0.322287 0.174547
C12   C     C_R   0.773133 0.165069 0.481344 -0.126921
C13   C     C_R   0.181674 0.902799 0.619589 -0.161727
C14   C     C_R   0.262777 0.997851 0.673155 -0.118814
C15   C     C_R   0.388039 0.029673 0.640493 -0.083918
C16   C     C_R   0.435630 0.976571 0.545510 0.080817
C17   C     C_R   0.352457 0.874594 0.494734 0.072753
C18   C     C_R   0.563097 0.017692 0.501548 -0.025459
C19   C     C_R   0.605742 0.944076 0.420248 0.106018
C20   C     C_R   0.522790 0.842705 0.373429 -0.170231
C21   C     C_R   0.398135 0.812723 0.405653 -0.169903
C22   C     C_R   0.648457 0.131382 0.529498 0.290309
C23   C     C_R   0.814289 0.084676 0.413160 -0.219231
C24   C     C_R   0.225366 0.834695 0.536156 -0.103843
H4    H     H_    0.085217 0.875964 0.650550 0.208280
H5    H     H_    0.445106 0.093176 0.693109 0.200373
H6    H     H_    0.228373 0.043103 0.743798 0.186463
H7    H     H_    0.338016 0.739402 0.360383 0.174103
C25   C     C_R   0.630332 0.665487 0.670500 0.222328
H8    H     H_    0.429288 0.703959 0.699131 0.197655
N1    N     N_R   0.748810 0.563010 0.557590 -0.271840
C26   C     C_R   0.246216 0.345758 0.367996 0.101116
C27   C     C_R   0.334993 0.302596 0.346862 -0.244420
C28   C     C_R   0.431745 0.356658 0.400244 -0.060977
C29   C     C_R   0.445222 0.458623 0.472029 0.052671
C30   C     C_R   0.346159 0.493718 0.496491 0.279084
C31   C     C_R   0.547543 0.521994 0.525635 -0.135969
C32   C     C_R   0.537738 0.607239 0.611515 -0.045143
C33   C     C_R   0.437233 0.636668 0.635903 -0.135806
C34   C     C_R   0.345483 0.582974 0.578587 -0.161755
C35   C     C_R   0.660865 0.507902 0.495912 0.458415
C36   C     C_R   0.734155 0.640857 0.643323 0.326800
N2    N     N_R   0.250540 0.437620 0.443020 -0.214443
H9    H     H_    0.169816 0.302283 0.327824 0.139398
H10   H     H_    0.490023 0.312800 0.387870 0.217868
H11   H     H_    0.326946 0.225229 0.291164 0.172647
H12   H     H_    0.273307 0.612048 0.603575 0.197280
N3    N     N_R   0.873630 0.552373 0.059394 0.143576
O9    O     O_R   0.772979 0.534001 0.032774 -0.269738
O10   O     O_R   0.899575 0.618985 0.145805 -0.318866
Br1   Br    Br    0.855007 0.723614 0.729693 -0.381551
N4    N     N_R   0.618750 0.749250 0.759396 0.143720
O11   O     O_R   0.538476 0.717552 0.840244 -0.279903
O12   O     O_R   0.687021 0.857351 0.758913 -0.305330
N5    N     N_R   0.692983 0.454883 0.393561 0.117920
O13   O     O_R   0.702529 0.499905 0.317977 -0.309633
O14   O     O_R   0.699448 0.356051 0.374414 -0.351205
N6    N     N_R   0.134988 0.456382 0.941338 0.128941
O15   O     O_R   0.232335 0.470402 0.970693 -0.287380
O16   O     O_R   0.115278 0.397827 0.851004 -0.334895
N7    N     N_R   0.607997 0.216930 0.595854 0.104315
O17   O     O_R   0.651389 0.271889 0.679488 -0.343650
O18   O     O_R   0.536796 0.247368 0.568059 -0.344690

loop_
_geom_bond_atom_site_label_1
_geom_bond_atom_site_label_2
_geom_bond_distance
_ccdc_geom_bond_type
C22   N7    1.436140 S    
C27   H11   1.082629 S    
Cu2   N2    2.040105 S    
Cu1   Cu2   2.722699 S    
C11   C23   1.385771 A    
C26   C27   1.387130 A    
Cu1   O7    1.916916 S    
C6    N6    1.445738 S    
C26   H9    1.081538 S    
C13   C14   1.384258 A    
C31   C35   1.433514 A    
N7    O18   1.302041 A    
C15   C16   1.415792 A    
O4    C2    1.305302 A    
O7    C4    1.305820 A    
H8    C33   1.082688 S    
C35   N5    1.431945 S    
N3    O10   1.301525 A    
O5    C3    1.304735 A    
C7    N3    1.443975 S    
N5    O13   1.301136 A    
C28   C29   1.411744 A    
C26   N2    1.356588 A    
C6    C7    1.360556 D    
H2    C20   1.084373 S    
C25   N4    1.435213 S    
C25   C32   1.402468 A    
C29   C31   1.448213 A    
C3    C12   1.469786 S    
C21   H7    1.081545 S    
O3    Cu1   1.919685 S    
C34   H12   1.065557 S    
C20   C21   1.383607 A    
C11   C19   1.398487 A    
N7    O17   1.302195 A    
C17   C21   1.408984 A    
C32   C33   1.397829 A    
O3    C2    1.304328 A    
N6    O16   1.301635 A    
C13   H4    1.077630 S    
C15   H5    1.075601 S    
C31   C32   1.416964 A    
C17   C24   1.419456 A    
O1    C1    1.313030 A    
C5    C9    1.199909 T    
C16   C17   1.420742 A    
C25   C36   1.396499 A    
C18   C19   1.423083 A    
C14   H6    1.082889 S    
Cu2   O8    1.919684 S    
C36   Br1   1.921056 S    
C7    C8    1.438424 S    
Cu1   N1    2.052012 S    
C12   C22   1.418119 A    
N5    O14   1.300455 A    
C29   C30   1.428271 A    
O8    C4    1.304122 A    
C18   C22   1.422410 A    
C2    C10   1.422964 S    
C33   C34   1.379130 A    
Cu1   O5    1.953309 S    
C27   C28   1.391453 A    
O1    Cu1   1.964747 S    
O2    Cu2   1.953308 S    
O6    C3    1.313155 A    
O4    Cu2   1.916917 S    
C13   C24   1.399497 A    
C30   N2    1.381099 A    
H1    C23   1.083512 S    
N4    O12   1.301229 A    
C19   C20   1.392550 A    
O2    C1    1.304653 A    
N6    O15   1.301755 A    
C16   C18   1.430703 A    
C28   H10   1.070910 S    
N1    C36   1.371110 A    
C6    C9    1.439457 S    
C30   C34   1.398026 A    
C8    C10   1.199570 T    
N3    O9    1.301471 A    
C12   C23   1.397614 A    
N1    C35   1.385078 A    
C1    C24   1.469229 S    
Cu2   O6    1.964749 S    
N4    O11   1.301215 A    
C11   H3    1.084281 S    
C14   C15   1.388118 A    
C4    C5    1.423707 S    
