data_mof_unit_27759.cif
_audit_creation_date              2013-03-05T16:44:37-0500
_audit_creation_method            fapswitch 2.2
_symmetry_space_group_name_H-M    P1
_symmetry_Int_Tables_number       1
_space_group_crystal_system       triclinic
_cell_length_a                    27.728281
_cell_length_b                    10.657266
_cell_length_c                    9.837953
_cell_angle_alpha                 90.035188
_cell_angle_beta                  89.817633
_cell_angle_gamma                 90.025927
_cell_volume                      2907.17496306

loop_
_atom_site_label
_atom_site_type_symbol
_atom_site_description
_atom_site_fract_x
_atom_site_fract_y
_atom_site_fract_z
_atom_type_partial_charge
O1    O     O_R   0.500010 0.316790 0.614690 -0.617865
O2    O     O_R   0.500000 0.316760 0.385350 -0.620106
C1    C     C_R   0.498152 0.259862 0.500038 0.890583
O3    O     O_R   0.428760 0.500040 0.614660 -0.620097
O4    O     O_R   0.428750 0.500000 0.385310 -0.611813
C2    C     C_R   0.406066 0.501375 0.500116 0.862915
Zn1   Zn    Zn3+2 0.500000 0.500020 0.653130 0.951438
Zn2   Zn    Zn3+2 0.500000 0.499980 0.346870 0.955745
O5    O     O_R   0.500000 0.683240 0.614650 -0.620346
O6    O     O_R   0.499990 0.683210 0.385310 -0.630996
O7    O     O_R   0.571250 0.500000 0.614690 -0.620917
O8    O     O_R   0.571240 0.499960 0.385340 -0.614952
C3    C     C_R   0.498195 0.740163 0.500046 0.879332
C4    C     C_R   0.594019 0.500401 0.499818 0.906317
C5    C     C_R   0.177392 0.384040 0.496108 0.510925
O9    O     O_2   0.201919 0.277942 0.466917 -0.553825
N1    N     N_R   0.201789 0.493214 0.519430 -0.351475
C6    C     C_R   0.178369 0.602476 0.549582 0.508004
C7    C     C_R   0.276035 0.555206 0.403697 -0.124976
C8    C     C_R   0.326598 0.561004 0.397126 0.188838
C9    C     C_R   0.329774 0.439358 0.607921 -0.255185
C10   C     C_R   0.279897 0.435587 0.613053 -0.097787
C11   C     C_R   0.253101 0.493614 0.511396 0.268388
C12   C     C_R   0.101870 0.494370 0.529278 -0.051361
C13   C     C_R   0.126966 0.382427 0.501067 -0.023947
C14   C     C_R   0.101375 0.272114 0.476382 -0.136020
C15   C     C_R   0.127988 0.605255 0.554592 -0.023011
C16   C     C_R   0.353415 0.501508 0.501129 -0.109860
H1    H     H_    0.349964 0.392367 0.686962 0.164470
H2    H     H_    0.261951 0.388176 0.696406 0.151069
H3    H     H_    0.119894 0.185169 0.453080 0.191248
C17   C     C_R   0.646721 0.502892 0.499519 -0.109218
C18   C     C_R   0.973919 0.383507 0.513620 0.047086
C19   C     C_R   0.975144 0.613701 0.544877 0.047098
C20   C     C_R   0.949320 0.499786 0.526935 0.076207
C21   C     C_R   0.946335 0.272048 0.504980 -0.206615
C22   C     C_R   0.896387 0.275483 0.501265 -0.117972
C23   C     C_R   0.872043 0.389838 0.507118 -0.024835
C24   C     C_R   0.898282 0.502262 0.521295 -0.046231
C25   C     C_R   0.873367 0.617210 0.529226 -0.025289
C26   C     C_R   0.823022 0.617657 0.521440 0.577891
N2    N     N_R   0.798560 0.507458 0.505838 -0.339352
C27   C     C_R   0.821722 0.394589 0.499869 0.573432
C28   C     C_R   0.722734 0.498384 0.374812 0.365698
C29   C     C_R   0.672287 0.494554 0.376480 -0.273577
C30   C     C_R   0.671749 0.514995 0.622258 -0.190350
C31   C     C_R   0.721679 0.518392 0.622163 -0.133637
C32   C     C_R   0.747254 0.509893 0.499908 0.194498
O10   O     O_2   0.796017 0.287656 0.486919 -0.531760
C33   C     C_R   0.024997 0.382347 0.508890 0.047549
C34   C     C_R   0.050780 0.495682 0.531100 0.072601
C35   C     C_R   0.026103 0.610587 0.553925 0.047278
C36   C     C_R   0.051394 0.271806 0.479995 -0.211561
H4    H     H_    0.652943 0.486057 0.281456 0.202572
H5    H     H_    0.876905 0.187626 0.493340 0.194137
H6    H     H_    0.962118 0.179793 0.502987 0.139044
H7    H     H_    0.034615 0.183503 0.455844 0.141955
O11   O     O_2   0.203876 0.707881 0.574680 -0.555701
C37   C     C_R   0.103458 0.716134 0.584509 -0.135523
H8    H     H_    0.253812 0.600310 0.327968 0.150880
H9    H     H_    0.122806 0.801934 0.607293 0.191722
C38   C     C_R   0.948955 0.727559 0.550514 -0.205921
C39   C     C_R   0.899056 0.728949 0.543169 -0.120021
O12   O     O_2   0.798595 0.727034 0.528441 -0.533258
C40   C     C_R   0.053495 0.718921 0.584757 -0.212597
H10   H     H_    0.965893 0.818260 0.557033 0.138725
H11   H     H_    0.652818 0.521826 0.718453 0.181321
H12   H     H_    0.880688 0.818595 0.547634 0.191994
H13   H     H_    0.740789 0.526465 0.717634 0.178341
H14   H     H_    0.037510 0.807583 0.611709 0.142140
C41   C     C_R   0.488392 0.064100 0.623587 0.120678
C42   C     C_R   0.489445 0.128706 0.500661 -0.101980
C43   C     C_R   0.480501 0.064798 0.378610 -0.210396
H15   H     H_    0.477234 0.113806 0.282625 0.167081
C44   C     C_R   0.480526 0.935040 0.378644 -0.224039
H16   H     H_    0.477247 0.885876 0.282683 0.170210
C45   C     C_R   0.489519 0.871339 0.500710 -0.102227
C46   C     C_R   0.488445 0.936141 0.623619 0.141829
C47   C     C_3   0.521473 0.929274 0.743269 -0.483582
C48   C     C_3   0.521400 0.071538 0.743238 -0.460271
H17   H     H_    0.503422 0.888241 0.834003 0.202231
H18   H     H_    0.557204 0.888006 0.717629 0.209706
H19   H     H_    0.503304 0.112662 0.833903 0.200522
H20   H     H_    0.557092 0.113061 0.717558 0.216393
C49   C     C_R   0.478690 0.404151 0.071486 0.214679
N3    N     N_R   0.499670 0.499140 0.142800 -0.108508
C50   C     C_R   0.524887 0.588071 0.071902 -0.121966
H21   H     H_    0.544191 0.660499 0.126332 0.153635
C51   C     C_R   0.524927 0.588010 0.927723 -0.125888
H22   H     H_    0.544329 0.660243 0.873048 0.148200
N4    N     N_R   0.499670 0.499180 0.857150 -0.107217
C52   C     C_R   0.478636 0.404274 0.928746 0.219799
C53   C     C_3   0.426771 0.367855 0.923645 -0.524042
C54   C     C_3   0.426885 0.367225 0.077964 -0.495565
H23   H     H_    0.403654 0.442903 0.880262 0.222899
H24   H     H_    0.421576 0.273186 0.878486 0.200865
H25   H     H_    0.403644 0.441362 0.123201 0.245090
H26   H     H_    0.421947 0.272070 0.122074 0.197992
N5    N     N_R   0.748157 0.490249 0.246944 0.219738
O13   O     O_R   0.726754 0.444793 0.140116 -0.379980
O14   O     O_R   0.791456 0.535693 0.233279 -0.373145
N6    N     N_2   0.350979 0.629660 0.292231 -0.298002
H27   H     H_    0.376764 0.691972 0.326177 0.233657
C55   C     C_3   0.324945 0.670853 0.173049 -0.783414
H28   H     H_    0.350937 0.707431 0.096635 0.242648
H29   H     H_    0.299495 0.747364 0.200356 0.249942
H30   H     H_    0.305263 0.590897 0.126488 0.248948

loop_
_geom_bond_atom_site_label_1
_geom_bond_atom_site_label_2
_geom_bond_distance
_ccdc_geom_bond_type
C50   H21   1.081669 S    
C53   C54   1.518217 S    
C26   N2    1.364781 A    
C20   C24   1.416726 A    
C7    C8    1.404618 A    
C12   C15   1.408177 A    
C48   H20   1.112328 S    
C55   H29   1.110893 S    
C45   C46   1.392366 A    
Zn1   O7    2.010326 S    
N1    C11   1.424732 S    
C25   C39   1.394249 A    
C21   C22   1.386085 A    
C48   H19   1.111895 S    
C23   C24   1.408521 A    
O7    C4    1.292756 A    
C5    C13   1.399009 A    
C8    N6    1.432968 S    
C54   H26   1.111514 S    
C5    O9    1.350028 S    
C19   C38   1.415361 A    
C18   C21   1.415167 A    
C5    N1    1.365260 A    
C19   C20   1.420382 A    
C43   H15   1.083456 S    
O5    C3    1.281766 A    
C55   H28   1.110487 S    
C18   C20   1.420590 A    
C39   H12   1.083666 S    
C6    O11   1.350218 S    
C2    C16   1.459928 S    
N5    O13   1.301730 A    
C51   N4    1.367631 A    
C12   C34   1.416778 A    
C14   H3    1.083632 S    
C53   H23   1.111451 S    
C9    C10   1.384336 A    
C43   C44   1.382862 A    
O3    Zn1   2.012475 S    
C41   C48   1.495414 S    
C49   C52   1.404278 A    
N1    C6    1.365519 A    
C3    C45   1.418639 S    
C37   H9    1.083630 S    
C33   C36   1.415423 A    
C38   H10   1.076458 S    
C34   C35   1.420434 A    
C12   C13   1.408417 A    
O3    C2    1.292500 A    
C24   C25   1.408677 A    
C47   H17   1.111748 S    
C36   H7    1.076370 S    
N3    C50   1.367756 A    
C27   O10   1.350049 S    
C8    C16   1.417020 A    
C54   H25   1.111676 S    
C18   C33   1.416981 A    
C49   N3    1.362585 A    
C9    H1    1.082771 S    
O1    C1    1.281598 A    
C7    C11   1.397889 A    
C44   H16   1.083482 S    
C22   C23   1.394496 A    
C21   H6    1.076506 S    
C47   H18   1.112367 S    
C49   C54   1.490391 S    
C31   C32   1.397201 A    
Zn2   O8    2.012475 S    
Zn1   N4    2.007156 S    
C38   C39   1.385829 A    
C33   C34   1.420427 A    
C17   C29   1.403591 A    
N2    C32   1.424260 S    
N6    C55   1.447380 S    
C44   C45   1.402940 A    
C25   C26   1.398317 A    
N5    O14   1.301006 A    
C9    C16   1.402963 A    
O8    C4    1.293011 A    
C29   H4    1.082998 S    
C53   H24   1.111648 S    
C50   C51   1.418426 A    
N2    C27   1.364985 A    
C14   C36   1.386218 A    
N4    C52   1.362719 A    
C28   C29   1.399438 A    
Zn1   O5    1.989210 S    
C30   C31   1.384925 A    
C10   H2    1.083053 S    
O1    Zn1   1.988786 S    
C17   C30   1.400483 A    
O2    Zn2   1.989211 S    
C6    C15   1.398040 A    
C4    C17   1.461570 S    
C42   C43   1.402805 A    
O6    C3    1.282123 A    
O4    Zn2   2.010329 S    
C7    H8    1.081426 S    
C19   C35   1.416486 A    
C31   H13   1.083230 S    
O2    C1    1.282110 A    
C13   C14   1.394500 A    
C23   C27   1.398323 A    
C15   C37   1.394503 A    
C37   C40   1.385714 A    
C46   C47   1.495561 S    
O4    C2    1.291111 A    
C52   C53   1.490419 S    
C28   N5    1.442622 S    
C1    C42   1.418372 S    
Zn2   N3    2.007695 S    
C41   C46   1.363693 A    
N6    H27   1.031748 S    
C47   C48   1.516151 S    
C22   H5    1.083644 S    
C28   C32   1.413144 A    
C30   H11   1.083155 S    
C41   C42   1.392199 A    
Zn2   O6    1.988785 S    
C10   C11   1.393048 A    
C26   O12   1.350031 S    
C51   H22   1.081504 S    
C55   H30   1.111060 S    
C35   C40   1.414960 A    
C40   H14   1.076532 S    
