data_mof_unit_33260.cif
_audit_creation_date              2012-12-10T18:44:24-0500
_audit_creation_method            fapswitch 2.2
_symmetry_space_group_name_H-M    P1
_symmetry_Int_Tables_number       1
_space_group_crystal_system       triclinic
_cell_length_a                    12.860063
_cell_length_b                    10.712322
_cell_length_c                    9.845775
_cell_angle_alpha                 89.804688
_cell_angle_beta                  97.081468
_cell_angle_gamma                 90.150116
_cell_volume                      1346.00748179

loop_
_atom_site_label
_atom_site_type_symbol
_atom_type_description
_atom_site_fract_x
_atom_site_fract_y
_atom_site_fract_z
_atom_type_partial_charge
C1    C     C_R   0.499895 0.259904 0.500081 0.864465
C2    C     C_R   0.500105 0.740096 0.499918 0.864468
C3    C     C_R   0.500027 0.872543 0.499847 -0.016984
C4    C     C_R   0.499972 0.127457 0.500152 -0.016985
C5    C     C_R   0.557196 0.586959 0.081229 0.546164
C6    C     C_R   0.442804 0.413041 0.918771 0.546157
C7    C     C_R   0.555365 0.587574 0.936194 -0.327683
C8    C     C_R   0.444635 0.412426 0.063806 -0.327674
C9    C     C_R   0.298143 0.500959 0.473193 0.871715
C10   C     C_R   0.701857 0.499042 0.526807 0.871718
C11   C     C_R   0.813985 0.500123 0.543312 -0.053861
C12   C     C_R   0.186015 0.499879 0.456686 -0.053854
C13   C     C_R   0.021680 0.446964 0.325772 -0.231518
C14   C     C_R   0.978320 0.553040 0.674226 -0.231521
C15   C     C_R   0.129502 0.457991 0.334640 -0.206556
C16   C     C_R   0.870498 0.542011 0.665359 -0.206554
C17   C     C_R   0.135587 0.534728 0.568060 -0.287063
C18   C     C_R   0.864413 0.465277 0.431938 -0.287065
C19   C     C_R   0.028652 0.522353 0.560964 0.191076
C20   C     C_R   0.971348 0.477652 0.439034 0.191077
C21   C     C_R   0.523237 0.064419 0.383620 -0.207650
C22   C     C_R   0.476762 0.935581 0.616379 -0.207651
C23   C     C_R   0.523256 0.936546 0.383480 -0.187203
C24   C     C_R   0.476743 0.063453 0.616520 -0.187203
H1    H     H_    0.820290 0.430298 0.338757 0.151111
H2    H     H_    0.179710 0.569709 0.661240 0.151102
H3    H     H_    0.831286 0.569116 0.751951 0.153732
H4    H     H_    0.168714 0.430885 0.248048 0.153732
H5    H     H_    0.978025 0.413322 0.231744 0.134528
H6    H     H_    0.021975 0.586682 0.768254 0.134527
H7    H     H_    0.542042 0.113533 0.293344 0.161385
H8    H     H_    0.457957 0.886467 0.706655 0.161384
H9    H     H_    0.542016 0.888260 0.293169 0.200215
H10   H     H_    0.457983 0.111740 0.706830 0.200217
H11   H     H_    0.597235 0.658633 0.886546 0.164091
H12   H     H_    0.402765 0.341367 0.113454 0.164095
N1    N     N_R   0.499970 0.499970 0.857200 -0.125631
N2    N     N_R   0.500030 0.500030 0.142800 -0.125631
O1    O     O_R   0.499990 0.316750 0.614620 -0.570369
O2    O     O_R   0.500010 0.683250 0.385380 -0.570368
O3    O     O_R   0.499990 0.316780 0.385290 -0.637167
O4    O     O_R   0.500010 0.683220 0.614710 -0.637168
O5    O     O_R   0.346360 0.499970 0.595710 -0.601037
O6    O     O_R   0.653640 0.500030 0.404290 -0.601029
O7    O     O_R   0.346360 0.499990 0.366380 -0.626330
O8    O     O_R   0.653640 0.500010 0.633620 -0.626329
Zn1   Zn    Zn3+2 0.500000 0.499980 0.653120 0.977380
Zn2   Zn    Zn3+2 0.500000 0.500020 0.346880 0.977384
O9    O     O_3   0.609411 0.679065 0.161122 -0.594490
C25   C     C_3   0.717545 0.676567 0.148041 0.087131
H13   H     H_    0.732650 0.715266 0.047409 0.123193
H14   H     H_    0.749582 0.580017 0.159758 0.132565
C26   C     C_3   0.775871 0.757610 0.259241 -0.794081
H15   H     H_    0.760204 0.724672 0.361774 0.260545
H16   H     H_    0.861465 0.752871 0.253427 0.207778
H17   H     H_    0.749805 0.856111 0.245565 0.240534
O10   O     O_3   0.390590 0.320933 0.838881 -0.594495
C27   C     C_3   0.282453 0.323449 0.851945 0.087149
H18   H     H_    0.250425 0.420002 0.840205 0.132569
H19   H     H_    0.267334 0.284769 0.952581 0.123180
C28   C     C_3   0.224130 0.242396 0.740751 -0.794059
H20   H     H_    0.250184 0.143891 0.754453 0.240528
H21   H     H_    0.138533 0.247155 0.746547 0.207777
H22   H     H_    0.239814 0.275313 0.638215 0.260539

loop_
_geom_bond_atom_site_label_1
_geom_bond_atom_site_label_2
_ccdc_geom_bond_type
C12   C17   A    
C10   O8    A    
C28   H22   S    
C25   H14   S    
C11   C18   A    
C9    O7    A    
C14   C16   A    
N1    Zn1   S    
O5    Zn1   S    
C11   C16   A    
C3    C23   A    
C19   C20   A    
C12   C15   A    
C2    O4    A    
C1    C4    S    
C16   H3    S    
C13   C15   A    
C25   H13   S    
C7    N1    A    
C6    N1    A    
C26   H15   S    
C4    C21   A    
C21   H7    S    
C6    O10   S    
C5    O9    S    
O10   C27   S    
C18   H1    S    
C22   H8    S    
C8    N2    A    
C27   C28   S    
C17   H2    S    
C1    O3    A    
C17   C19   A    
O3    Zn2   S    
C14   H6    S    
C2    C3    S    
C18   C20   A    
O4    Zn1   S    
C26   H16   S    
C21   C23   A    
C28   H20   S    
C4    C24   A    
C9    C12   S    
C22   C24   A    
C9    O5    A    
C25   C26   S    
C10   C11   S    
C1    O1    A    
C10   O6    A    
C15   H4    S    
C2    O2    A    
C7    H11   S    
N2    Zn2   S    
O1    Zn1   S    
O9    C25   S    
C8    H12   S    
C26   H17   S    
C13   H5    S    
C5    C7    A    
O2    Zn2   S    
O8    Zn1   S    
C3    C22   A    
C6    C8    A    
O7    Zn2   S    
C13   C20   A    
C27   H18   S    
C5    N2    A    
C27   H19   S    
C14   C19   A    
C28   H21   S    
C24   H10   S    
O6    Zn2   S    
C23   H9    S    
