data_mof_unit_27107.cif
_audit_creation_date              2012-12-10T18:11:08-0500
_audit_creation_method            fapswitch 2.2
_symmetry_space_group_name_H-M    P1
_symmetry_Int_Tables_number       1
_space_group_crystal_system       triclinic
_cell_length_a                    11.036251
_cell_length_b                    9.817972
_cell_length_c                    10.789858
_cell_angle_alpha                 90.854349
_cell_angle_beta                  93.040605
_cell_angle_gamma                 93.243053
_cell_volume                      1165.416314

loop_
_atom_site_label
_atom_site_type_symbol
_atom_type_description
_atom_site_fract_x
_atom_site_fract_y
_atom_site_fract_z
_atom_type_partial_charge
C1    C     C_R   0.260530 0.496847 0.500719 0.764031
C2    C     C_3   0.922206 0.517925 0.381838 -0.516082
C3    C     C_3   0.622321 0.091085 0.532328 0.105481
C4    C     C_3   0.625024 0.928592 0.518475 0.114214
C5    C     C_3   0.410728 0.073621 0.589304 0.190276
C6    C     C_3   0.423879 0.913917 0.602401 0.170646
C7    C     C_3   0.457260 0.078466 0.378074 0.041702
C8    C     C_3   0.449506 0.911914 0.380979 0.044615
C9    C     C_R   0.496013 0.499149 0.260330 0.788099
C10   C     C_R   0.739356 0.503339 0.508521 0.742708
C11   C     C_R   0.512988 0.501568 0.739505 0.761409
C12   C     C_3   0.498391 0.499153 0.122978 -0.076462
C13   C     C_3   0.449134 0.606525 0.034247 0.212599
C14   C     C_3   0.453800 0.385328 0.030077 0.210162
C15   C     C_3   0.402811 0.491920 0.941263 -0.256776
C16   C     C_3   0.525312 0.503314 0.877917 -0.088889
C17   C     C_3   0.570806 0.618600 0.971599 0.223754
C18   C     C_3   0.575226 0.395660 0.967842 0.219742
C19   C     C_3   0.621072 0.510763 0.061271 -0.245589
C20   C     C_3   0.673875 0.143589 0.659219 -0.777156
C21   C     C_3   0.712688 0.866292 0.615299 -0.801163
C22   C     C_3   0.382229 0.146216 0.710821 -0.838424
C23   C     C_3   0.088381 0.615879 0.597438 0.067781
C24   C     C_3   0.453797 0.871610 0.738889 -0.791394
C25   C     C_3   0.335024 0.133291 0.323384 -0.785385
C26   C     C_3   0.321410 0.846120 0.339563 -0.798555
C27   C     C_3   0.370544 0.723950 0.059832 -0.914279
C28   C     C_3   0.382064 0.253435 0.049889 -0.921960
C29   C     C_3   0.648791 0.750344 0.959525 -0.920645
C30   C     C_3   0.655272 0.275471 0.955374 -0.915580
C31   C     C_3   0.156938 0.620183 0.726487 -0.906536
C32   C     C_3   0.121067 0.261894 0.633366 -0.918193
C33   C     C_3   0.897223 0.664641 0.722799 -0.898901
C34   C     C_3   0.056756 0.353428 0.542249 0.050740
C35   C     C_3   0.900860 0.359469 0.714725 -0.853171
C36   C     C_3   0.946531 0.629750 0.594500 0.078396
C37   C     C_3   0.923138 0.370734 0.574072 0.057376
C38   C     C_3   0.063539 0.528857 0.379268 -0.556152
C39   C     C_3   0.122092 0.495345 0.509024 0.095172
C40   C     C_3   0.878967 0.506921 0.517565 0.070100
Cu1   Cu    Cu3+1 0.499860 0.642410 0.500060 0.898295
Cu2   Cu    Cu3+1 0.499860 0.357590 0.500060 0.899117
H1    H     H_    0.525396 0.109116 0.309618 0.122892
H2    H     H_    0.310923 0.480504 0.894729 0.143405
H3    H     H_    0.884883 0.608512 0.335941 0.184454
H4    H     H_    0.886056 0.426648 0.326303 0.178730
H5    H     H_    0.770979 0.124435 0.663957 0.197910
H6    H     H_    0.664848 0.251795 0.675169 0.289709
H7    H     H_    0.631078 0.089240 0.735379 0.226469
H8    H     H_    0.802232 0.862983 0.575549 0.206661
H9    H     H_    0.731419 0.916249 0.706505 0.190852
H10   H     H_    0.676428 0.768921 0.646209 0.288048
H11   H     H_    0.685486 0.134412 0.464114 0.118406
H12   H     H_    0.507562 0.879061 0.306172 0.138098
H13   H     H_    0.671184 0.910654 0.430454 0.089797
H14   H     H_    0.460438 0.163246 0.776641 0.255014
H15   H     H_    0.341830 0.242897 0.695738 0.282960
H16   H     H_    0.309112 0.086739 0.756958 0.183331
H17   H     H_    0.390267 0.787605 0.765454 0.234745
H18   H     H_    0.546033 0.844923 0.756040 0.261464
H19   H     H_    0.443782 0.945902 0.813977 0.189303
H20   H     H_    0.251957 0.097872 0.368959 0.192746
H21   H     H_    0.332030 0.243838 0.320751 0.279878
H22   H     H_    0.318026 0.095643 0.227308 0.202800
H23   H     H_    0.319603 0.074912 0.545614 0.110269
H24   H     H_    0.250140 0.865945 0.404693 0.195797
H25   H     H_    0.288825 0.883154 0.248484 0.202929
H26   H     H_    0.322608 0.736425 0.321336 0.275695
H27   H     H_    0.337100 0.767688 0.971290 0.232905
H28   H     H_    0.290872 0.686032 0.110317 0.225354
H29   H     H_    0.425632 0.804336 0.113345 0.245465
H30   H     H_    0.349986 0.206252 0.959499 0.237709
H31   H     H_    0.442863 0.183344 0.098583 0.249869
H32   H     H_    0.301366 0.275482 0.102016 0.227435
H33   H     H_    0.591717 0.839451 0.958533 0.238454
H34   H     H_    0.330764 0.865819 0.587444 0.134967
H35   H     H_    0.714247 0.764864 0.041006 0.232155
H36   H     H_    0.700840 0.745895 0.875174 0.228611
H37   H     H_    0.697190 0.252312 0.047938 0.230811
H38   H     H_    0.601284 0.182751 0.923121 0.231240
H39   H     H_    0.728845 0.300437 0.893234 0.235220
H40   H     H_    0.255586 0.615419 0.717503 0.240603
H41   H     H_    0.143238 0.717825 0.775729 0.233226
H42   H     H_    0.130720 0.535328 0.786131 0.228570
H43   H     H_    0.184841 0.207552 0.580374 0.242596
H44   H     H_    0.163256 0.320532 0.714425 0.250003
H45   H     H_    0.711772 0.518018 0.111648 0.138039
H46   H     H_    0.060215 0.177239 0.664947 0.228914
H47   H     H_    0.910790 0.775854 0.742245 0.224532
H48   H     H_    0.800384 0.631811 0.726241 0.221027
H49   H     H_    0.942582 0.617818 0.803421 0.255399
H50   H     H_    0.813571 0.401436 0.736016 0.217849
H51   H     H_    0.902334 0.254468 0.748586 0.212767
H52   H     H_    0.973172 0.410412 0.773787 0.255481
H53   H     H_    0.930312 0.720194 0.537093 0.119101
H54   H     H_    0.870584 0.282646 0.527659 0.141609
H55   H     H_    0.124623 0.712175 0.555798 0.129592
H56   H     H_    0.050796 0.290563 0.454552 0.127014
H57   H     H_    0.094249 0.633227 0.351020 0.185719
H58   H     H_    0.092948 0.457524 0.307042 0.175345
N1    N     N_3   0.500250 0.143650 0.502780 -0.155358
N2    N     N_3   0.500250 0.856350 0.502780 -0.165533
O1    O     O_R   0.317570 0.620260 0.500070 -0.601289
O2    O     O_R   0.317570 0.379740 0.500070 -0.588951
O3    O     O_R   0.499850 0.620240 0.316900 -0.584660
O4    O     O_R   0.499850 0.379760 0.316900 -0.584539
O5    O     O_R   0.682190 0.620260 0.500030 -0.586382
O6    O     O_R   0.682190 0.379740 0.500030 -0.604591
O7    O     O_R   0.499910 0.620280 0.683200 -0.590180
O8    O     O_R   0.499910 0.379720 0.683200 -0.583588

loop_
_geom_bond_atom_site_label_1
_geom_bond_atom_site_label_2
_ccdc_geom_bond_type
C24   H19   S    
C11   O7    A    
C34   C37   S    
C8    C26   S    
Cu1   Cu2   S    
C14   C18   S    
C10   O6    A    
C28   H32   S    
C22   H15   S    
C7    C8    S    
C2    H4    S    
C31   H40   S    
Cu1   O3    S    
C26   H25   S    
C35   C37   S    
C15   H2    S    
C37   C40   S    
C19   H45   S    
C33   H49   S    
C38   C39   S    
C9    O3    A    
C15   C16   S    
C32   H46   S    
C33   C36   S    
C31   H41   S    
Cu1   N2    S    
C10   C40   S    
C18   C19   S    
C25   H21   S    
C17   C19   S    
C29   H36   S    
C16   C17   S    
C4    N2    S    
C18   C30   S    
C7    H1    S    
C1    O1    A    
C27   H27   S    
C30   H38   S    
C35   H50   S    
C3    N1    S    
C6    C24   S    
Cu1   O7    S    
C11   O8    A    
C10   O5    A    
C28   H30   S    
C28   H31   S    
C21   H8    S    
C35   H51   S    
C2    H3    S    
C5    N1    S    
C5    C22   S    
C34   C39   S    
C26   H24   S    
C36   C40   S    
C5    H23   S    
C8    H12   S    
C22   H14   S    
C9    O4    A    
C31   H42   S    
Cu1   O1    S    
C37   H54   S    
C25   H22   S    
C32   C34   S    
C20   H7    S    
C33   H47   S    
C11   C16   S    
C2    C38   S    
C24   H18   S    
C32   H44   S    
C3    C20   S    
Cu2   O4    S    
C1    O2    A    
C20   H6    S    
C27   H28   S    
C30   H37   S    
C38   H58   S    
C23   H55   S    
C12   C14   S    
C13   C15   S    
C4    H13   S    
C3    C4    S    
Cu2   N1    S    
C21   H9    S    
C27   H29   S    
C35   H52   S    
Cu1   O5    S    
C38   H57   S    
Cu2   O2    S    
C22   H16   S    
C6    H34   S    
C29   H33   S    
C7    C25   S    
C13   C17   S    
C26   H26   S    
C30   H39   S    
Cu2   O8    S    
C33   H48   S    
C4    C21   S    
C3    H11   S    
C36   H53   S    
C5    C6    S    
C8    N2    S    
C24   H17   S    
C23   C39   S    
C32   H43   S    
C12   C19   S    
C34   H56   S    
C25   H20   S    
C6    N2    S    
C9    C12   S    
C20   H5    S    
C1    C39   S    
C2    C40   S    
C17   C29   S    
C29   H35   S    
C12   C13   S    
C16   C18   S    
C23   C36   S    
C7    N1    S    
C14   C15   S    
C13   C27   S    
C14   C28   S    
Cu2   O6    S    
C21   H10   S    
C23   C31   S    
