data_mof_unit_41387.cif
_audit_creation_date              2012-10-26T18:47:36-0400
_audit_creation_method            fapswitch 2.2
_symmetry_space_group_name_H-M    P1
_symmetry_Int_Tables_number       1
_space_group_crystal_system       triclinic
_cell_length_a                    10.895356
_cell_length_b                    12.97249
_cell_length_c                    11.759615
_cell_angle_alpha                 102.05221
_cell_angle_beta                  94.396509
_cell_angle_gamma                 92.042658
_cell_volume                      1618.40793445

loop_
_atom_site_label
_atom_site_type_symbol
_atom_type_description
_atom_site_fract_x
_atom_site_fract_y
_atom_site_fract_z
_atom_type_partial_charge
C1    C     C_R   0.497340 0.298748 0.476538 0.578622
C2    C     C_R   0.415927 0.980309 0.627781 0.291663
C3    C     C_R   0.570269 0.127665 0.376906 0.174300
C4    C     C_R   0.427947 0.871454 0.620886 0.167541
C5    C     C_R   0.439726 0.133679 0.538063 0.227712
C6    C     C_R   0.566503 0.866856 0.465922 0.228409
C7    C     C_R   0.464754 0.028765 0.542284 0.022911
C8    C     C_R   0.541766 0.971932 0.461119 0.022089
C9    C     C_R   0.428216 0.372410 0.011698 0.162809
C10   C     C_R   0.571806 0.627584 0.988294 0.163707
C11   C     C_R   0.425394 0.388947 0.135875 0.147902
C12   C     C_R   0.502921 0.701156 0.523492 0.580051
C13   C     C_R   0.574513 0.611076 0.864115 0.148728
C14   C     C_R   0.526053 0.557918 0.161084 0.022370
C15   C     C_R   0.474035 0.442058 0.838927 0.022680
C16   C     C_R   0.262186 0.501093 0.499363 0.582292
C17   C     C_R   0.737813 0.498920 0.500636 0.581167
C18   C     C_R   0.524248 0.546850 0.037489 -0.033310
C19   C     C_R   0.475832 0.453131 0.962522 -0.032735
C20   C     C_R   0.220379 0.666986 0.203622 0.035216
C21   C     C_R   0.779565 0.332437 0.795828 0.035849
C22   C     C_R   0.168939 0.644830 0.303600 0.311949
C23   C     C_R   0.871864 0.498213 0.502427 0.034378
C24   C     C_R   0.831130 0.354795 0.695994 0.311735
C25   C     C_R   0.103186 0.547672 0.295793 0.021701
C26   C     C_R   0.896744 0.452060 0.704035 0.021378
C27   C     C_R   0.085701 0.472825 0.188341 0.010485
C28   C     C_R   0.914016 0.526795 0.811575 0.011157
C29   C     C_R   0.141608 0.494082 0.089850 0.019114
C30   C     C_R   0.858052 0.505306 0.909939 0.019183
C31   C     C_R   0.208431 0.590299 0.099796 -0.162983
C32   C     C_R   0.791317 0.409004 0.899752 -0.163170
C33   C     C_R   0.926277 0.522542 0.406805 -0.137631
C34   C     C_R   0.128131 0.501811 0.497565 0.033533
C35   C     C_R   0.073714 0.477498 0.593198 -0.138300
C36   C     C_2   0.632664 0.695603 0.817086 0.317029
C37   C     C_2   0.366835 0.304541 0.182850 0.318302
C38   C     C_2   0.285240 0.769126 0.201630 0.274493
C39   C     C_2   0.714776 0.230205 0.797569 0.274090
C40   C     C_2   0.010821 0.373460 0.183227 0.309179
C41   C     C_2   0.988770 0.626267 0.816899 0.307945
C42   C     C_2   0.137517 0.418622 0.975266 0.292936
C43   C     C_2   0.862017 0.580580 0.024642 0.292516
C44   C     C_R   0.946711 0.475805 0.597419 0.002609
C45   C     C_R   0.053273 0.524159 0.402539 0.002248
C46   C     C_R   0.502818 0.815787 0.540218 -0.020081
C47   C     C_R   0.499215 0.184106 0.460733 -0.022374
C48   C     C_R   0.594851 0.021930 0.378698 0.290311
Cu1   Cu    Cu3+1 0.509250 0.507730 0.615930 1.024191
Cu2   Cu    Cu3+1 0.490750 0.492270 0.384070 1.025088
H1    H     H_    0.251686 0.606168 0.024727 0.132768
H2    H     H_    0.654286 0.770317 0.023423 0.355824
H3    H     H_    0.349286 0.772707 0.136036 0.141741
H4    H     H_    0.650282 0.226541 0.862764 0.139862
H5    H     H_    0.262175 0.754757 0.417824 0.355453
H6    H     H_    0.738442 0.244570 0.581615 0.353722
H7    H     H_    0.018062 0.334336 0.256338 0.155064
H8    H     H_    0.981498 0.665509 0.743883 0.152993
H9    H     H_    0.159221 0.447226 0.898330 0.106235
H10   H     H_    0.840132 0.551821 0.101434 0.106288
H11   H     H_    0.688332 0.760186 0.433931 0.326465
H12   H     H_    0.748000 0.392959 0.974713 0.132632
H13   H     H_    0.315304 0.238118 0.570040 0.326953
H14   H     H_    0.286902 0.853289 0.708346 0.358965
H15   H     H_    0.622793 0.126640 0.222599 0.337887
H16   H     H_    0.737940 0.017563 0.288945 0.354507
H17   H     H_    0.369227 0.008625 0.787373 0.335144
H18   H     H_    0.431876 0.371644 0.781464 0.222157
H19   H     H_    0.568243 0.628327 0.218556 0.221290
H20   H     H_    0.869769 0.541033 0.334395 0.139339
H21   H     H_    0.130216 0.459009 0.665611 0.139147
H22   H     H_    0.597144 0.773983 0.834373 0.116935
H23   H     H_    0.401506 0.225883 0.164933 0.111081
H24   H     H_    0.345854 0.229589 0.976479 0.352427
N1    N     N_R   0.523180 0.519350 0.790130 -0.277583
N2    N     N_R   0.476820 0.480650 0.209870 -0.277210
O1    O     O_R   0.506570 0.354460 0.582000 -0.533328
O2    O     O_2   0.277000 0.320328 0.238328 -0.500927
O3    O     O_3   0.383620 0.279832 0.935284 -0.673870
O4    O     O_3   0.616370 0.720195 0.064659 -0.671176
O5    O     O_2   0.264240 0.850852 0.268415 -0.465602
O6    O     O_2   0.736349 0.148501 0.731051 -0.467318
O7    O     O_3   0.182371 0.714371 0.410626 -0.645707
O8    O     O_3   0.817975 0.285361 0.588884 -0.643667
O9    O     O_2   0.935727 0.337488 0.100947 -0.478930
O10   O     O_2   0.063817 0.662196 0.899230 -0.479928
O11   O     O_2   0.116257 0.324061 0.965299 -0.402999
O12   O     O_R   0.493430 0.645540 0.418000 -0.532689
O13   O     O_2   0.883393 0.675156 0.034870 -0.403616
O14   O     O_3   0.651135 0.814435 0.396008 -0.584802
O15   O     O_3   0.354802 0.185143 0.608424 -0.582316
O16   O     O_3   0.362844 0.816509 0.687794 -0.686052
O17   O     O_3   0.618054 0.178680 0.296689 -0.681934
O18   O     O_3   0.672608 0.967570 0.302643 -0.581030
O19   O     O_3   0.358279 0.040283 0.717745 -0.577548
O20   O     O_R   0.490940 0.341410 0.386200 -0.437227
O21   O     O_R   0.509060 0.658590 0.613800 -0.439577
O22   O     O_R   0.327460 0.506540 0.597900 -0.511096
O23   O     O_R   0.672540 0.493460 0.402100 -0.511134
O24   O     O_R   0.311830 0.493480 0.402100 -0.467660
O25   O     O_R   0.688170 0.506520 0.597900 -0.468475
O26   O     O_2   0.722910 0.680183 0.762113 -0.502461

loop_
_geom_bond_atom_site_label_1
_geom_bond_atom_site_label_2
_ccdc_geom_bond_type
C15   N1    A    
C29   C42   S    
C27   C29   A    
C33   C45   A    
C3    C48   A    
C2    C7    A    
Cu2   O20   S    
C26   C44   S    
C7    C8    A    
C4    C46   A    
C15   C19   A    
C41   O10   D    
C5    C47   A    
Cu2   O23   S    
C17   C23   S    
C48   O18   S    
C2    O19   S    
C24   C26   A    
C41   H8    S    
C18   C19   A    
C11   N2    A    
Cu1   O25   S    
C39   H4    S    
C28   C41   S    
C1    O1    A    
C36   O26   D    
C34   C35   A    
C9    O3    S    
C11   C37   S    
C17   O25   A    
C16   C34   S    
Cu1   O22   S    
C9    C19   A    
C13   N1    A    
C23   C33   A    
C22   C25   A    
Cu1   N1    S    
Cu2   O12   S    
H16   O18   S    
H15   O17   S    
C35   H21   S    
H17   O19   S    
H6    O8    S    
C21   C32   A    
C12   O12   A    
C13   C36   S    
C12   C46   S    
C5    C7    A    
C10   O4    S    
C16   O24   A    
C6    C8    A    
C6    O14   S    
C17   O23   A    
C23   C44   A    
C14   N2    A    
C40   O9    D    
C2    C4    A    
C8    C48   A    
Cu2   N2    S    
C20   C38   S    
C21   C39   S    
C27   C40   S    
C3    O17   S    
C34   C45   A    
C43   O13   D    
C35   C44   A    
C9    C11   A    
C12   O21   A    
C5    O15   S    
C33   H20   S    
C43   H10   S    
C20   C22   A    
H24   O3    S    
C38   O5    D    
C14   H19   S    
C30   C43   S    
H14   O16   S    
H5    O7    S    
C25   C45   S    
H11   O14   S    
C37   H23   S    
C40   H7    S    
C6    C46   A    
C26   C28   A    
C14   C18   A    
C1    C47   S    
C39   O6    D    
C31   H1    S    
C10   C13   A    
C42   H9    S    
C25   C27   A    
C37   O2    D    
Cu2   O24   S    
C22   O7    S    
C28   C30   A    
C24   O8    S    
C32   H12   S    
C29   C31   A    
C30   C32   A    
C16   O22   A    
C38   H3    S    
C10   C18   A    
C1    O20   A    
C15   H18   S    
C3    C47   A    
Cu1   O1    S    
Cu1   O21   S    
Cu1   Cu2   S    
C21   C24   A    
H13   O15   S    
C42   O11   D    
H2    O4    S    
C36   H22   S    
C4    O16   S    
C20   C31   A    
