data_mof_unit_57872.cif
_audit_creation_date              2012-12-10T20:32:00-0500
_audit_creation_method            fapswitch 2.2
_symmetry_space_group_name_H-M    P1
_symmetry_Int_Tables_number       1
_space_group_crystal_system       triclinic
_cell_length_a                    9.865588
_cell_length_b                    10.680012
_cell_length_c                    15.57311
_cell_angle_alpha                 90.0596
_cell_angle_beta                  67.652972
_cell_angle_gamma                 89.866588
_cell_volume                      1517.61554286

loop_
_atom_site_label
_atom_site_type_symbol
_atom_type_description
_atom_site_fract_x
_atom_site_fract_y
_atom_site_fract_z
_atom_type_partial_charge
C1    C     C_R   0.501562 0.740092 0.497200 0.882461
C2    C     C_R   0.739929 0.495519 0.030537 0.177254
C3    C     C_R   0.595306 0.535605 0.084600 0.094911
C4    C     C_R   0.408376 0.500102 0.675856 0.873655
C5    C     C_R   0.839911 0.470010 0.072758 -0.218271
C6    C     C_R   0.794919 0.476372 0.168959 -0.202679
C7    C     C_R   0.552911 0.540346 0.180803 -0.264895
C8    C     C_R   0.387732 0.936517 0.482130 0.140154
C9    C     C_R   0.510069 0.871456 0.482210 -0.106406
C10   C     C_R   0.642438 0.934882 0.464252 -0.225949
C11   C     C_R   0.642717 0.064396 0.464001 -0.226661
C12   C     C_R   0.423688 0.533959 0.908728 0.098570
C13   C     C_R   0.510630 0.128623 0.481705 -0.104886
C14   C     C_R   0.388066 0.064278 0.481734 0.128943
C15   C     C_3   0.231791 0.072382 0.547737 -0.474540
C16   C     C_R   0.501995 0.259963 0.496900 0.881614
C17   C     C_3   0.231653 0.930531 0.548512 -0.494805
C18   C     C_R   0.905557 0.597632 0.538362 0.213305
C19   C     C_R   0.955653 0.409867 0.454414 -0.143198
C20   C     C_R   0.099685 0.409946 0.454305 -0.131225
C21   C     C_R   0.047608 0.596903 0.539216 0.214877
C22   C     C_3   0.992129 0.636094 0.638621 -0.531058
C23   C     C_R   0.285936 0.590381 0.959271 0.176296
C24   C     C_3   0.839454 0.639637 0.636862 -0.488879
C25   C     C_R   0.591682 0.501603 0.324164 0.866557
C26   C     C_R   0.352447 0.514185 0.776412 -0.057402
C27   C     C_R   0.649527 0.507585 0.223104 -0.056657
C28   C     C_R   0.182841 0.606743 0.918008 -0.221078
C29   C     C_R   0.217226 0.571027 0.825993 -0.214332
C30   C     C_R   0.448914 0.488041 0.820055 -0.264224
C31   C     C_R   0.532121 0.526054 0.947788 0.069647
C32   C     C_R   0.493933 0.560190 0.041971 0.067436
C33   C     C_R   0.355770 0.617195 0.090429 -0.231271
C34   C     C_R   0.254192 0.632365 0.049374 -0.243846
C35   C     C_R   0.678479 0.488598 0.895234 -0.224740
C36   C     C_R   0.781185 0.476810 0.935683 -0.245209
H1    H     H_    0.150194 0.677307 0.088446 0.151185
H2    H     H_    0.005947 0.561782 0.684618 0.209701
H3    H     H_    0.441460 0.561808 0.224964 0.159356
H4    H     H_    0.764425 0.569025 0.682604 0.216298
H5    H     H_    0.793145 0.735777 0.643370 0.202012
H6    H     H_    0.871471 0.451867 0.200975 0.158017
H7    H     H_    0.891868 0.447751 0.893091 0.149237
H8    H     H_    0.078340 0.651697 0.955647 0.147944
H9    H     H_    0.141325 0.592236 0.792848 0.151025
H10   H     H_    0.545735 0.434325 0.781779 0.145996
H11   H     H_    0.324767 0.655648 0.159313 0.147031
H12   H     H_    0.950845 0.440121 0.031789 0.150989
H13   H     H_    0.718688 0.469927 0.821944 0.141405
H14   H     H_    0.742741 0.113100 0.456617 0.164770
H15   H     H_    0.032272 0.729875 0.648317 0.199437
H16   H     H_    0.742351 0.885619 0.456986 0.169005
H17   H     H_    0.219267 0.114558 0.615691 0.205559
H18   H     H_    0.159745 0.112995 0.514662 0.199731
H19   H     H_    0.220005 0.890447 0.616838 0.199433
H20   H     H_    0.159068 0.889125 0.516222 0.203012
H21   H     H_    0.922750 0.335794 0.419086 0.140766
H22   H     H_    0.175419 0.335989 0.418808 0.148637
N1    N     N_R   0.856900 0.500860 0.500610 -0.104071
N2    N     N_R   0.142540 0.500820 0.500610 -0.104062
O1    O     O_R   0.385310 0.683210 0.499990 -0.613818
O2    O     O_R   0.614650 0.683240 0.500000 -0.620121
O3    O     O_R   0.319830 0.499970 0.632240 -0.615494
O4    O     O_R   0.549170 0.500000 0.632250 -0.614294
O5    O     O_R   0.385350 0.316760 0.500000 -0.617541
O6    O     O_R   0.614690 0.316790 0.500010 -0.623901
O7    O     O_R   0.450830 0.500000 0.367750 -0.618775
O8    O     O_R   0.680170 0.500030 0.367760 -0.617809
Zn1   Zn    Zn3+2 0.346870 0.499980 0.499990 0.938142
Zn2   Zn    Zn3+2 0.653130 0.500020 0.500010 0.937730

loop_
_geom_bond_atom_site_label_1
_geom_bond_atom_site_label_2
_ccdc_geom_bond_type
C35   H13   S    
C4    C26   S    
C23   C28   A    
C34   H1    S    
O4    Zn2   S    
C2    C3    A    
C20   N2    A    
C18   C21   A    
C9    C10   A    
C4    O4    A    
C6    C27   A    
C12   C23   A    
C7    H3    S    
C23   C34   A    
C10   H16   S    
C1    O2    A    
C22   C24   S    
C33   C34   A    
C1    C9    S    
C3    C32   A    
C11   H14   S    
C13   C14   A    
C32   C33   A    
C8    C17   S    
C24   H5    S    
C11   C13   A    
C17   H20   S    
O6    Zn2   S    
C25   O8    A    
N2    Zn1   S    
C21   N2    A    
C18   C24   S    
C15   H17   S    
C31   C35   A    
C4    O3    A    
C28   C29   A    
C24   H4    S    
C30   H10   S    
C26   C30   A    
C3    C7    A    
C12   C31   A    
C5    C6    A    
C33   H11   S    
C5    H12   S    
O5    Zn1   S    
C35   C36   A    
C2    C5    A    
C16   O6    A    
C10   C11   A    
N1    Zn2   S    
O1    Zn1   S    
C22   H2    S    
C15   H18   S    
O3    Zn1   S    
C18   N1    A    
C20   H22   S    
C7    C27   A    
O2    Zn2   S    
C26   C29   A    
O8    Zn2   S    
C6    H6    S    
C13   C16   S    
C2    C36   A    
C15   C17   S    
C17   H19   S    
C14   C15   S    
C22   H15   S    
C36   H7    S    
C8    C14   A    
C16   O5    A    
C25   O7    A    
C19   N1    A    
C21   C22   S    
C12   C30   A    
C28   H8    S    
C31   C32   A    
C19   H21   S    
C19   C20   A    
C29   H9    S    
C8    C9    A    
O7    Zn1   S    
C25   C27   S    
C1    O1    A    
