data_mof_unit_10768.cif
_audit_creation_date              2012-12-10T19:10:38-0500
_audit_creation_method            fapswitch 2.2
_symmetry_space_group_name_H-M    P1
_symmetry_Int_Tables_number       1
_space_group_crystal_system       triclinic
_cell_length_a                    13.065789
_cell_length_b                    9.094946
_cell_length_c                    7.786165
_cell_angle_alpha                 90.020129
_cell_angle_beta                  96.101266
_cell_angle_gamma                 89.963281
_cell_volume                      920.009365035

loop_
_atom_site_label
_atom_site_type_symbol
_atom_type_description
_atom_site_fract_x
_atom_site_fract_y
_atom_site_fract_z
_atom_type_partial_charge
C1    C     C_R   0.499981 0.220033 0.499982 0.846545
C2    C     C_R   0.862344 0.425443 0.688929 -0.214185
C3    C     C_R   0.132708 0.430681 0.572169 -0.090839
C4    C     C_R   0.867268 0.569522 0.427638 -0.090936
C5    C     C_R   0.025753 0.458616 0.570491 0.057987
C6    C     C_R   0.974270 0.541822 0.429451 0.057973
C7    C     C_1   0.499989 0.065372 0.499979 -0.152642
C8    C     C_1   0.500009 0.934628 0.500021 -0.152637
C9    C     C_1   0.813990 0.678053 0.313826 0.266180
C10   C     C_1   0.185796 0.321549 0.685302 0.266203
C11   C     C_1   0.987500 0.657114 0.134719 0.252158
C12   C     C_R   0.500018 0.779967 0.500017 0.846422
C13   C     C_1   0.012678 0.343589 0.865379 0.252178
C14   C     C_R   0.300460 0.497098 0.468237 0.803761
C15   C     C_R   0.699546 0.502994 0.531758 0.803666
C16   C     C_R   0.811743 0.500940 0.550044 -0.096576
C17   C     C_R   0.188279 0.499359 0.449932 -0.096520
C18   C     C_R   0.031963 0.592449 0.295415 -0.020366
C19   C     C_R   0.968117 0.408142 0.704647 -0.020369
C20   C     C_R   0.137741 0.575134 0.311210 -0.214193
Cu1   Cu    Cu3+1 0.500010 0.500000 0.669080 1.031161
Cu2   Cu    Cu3+1 0.499990 0.500000 0.330920 1.031138
H1    H     H_    0.818538 0.379267 0.786913 0.167256
H2    H     H_    0.181597 0.621418 0.213348 0.167207
N1    N     N_1   0.499980 0.500000 0.076820 -0.038338
N2    N     N_1   0.500020 0.500000 0.923180 -0.038348
N3    N     N_1   0.770607 0.764666 0.224523 -0.245865
N4    N     N_1   0.228989 0.234404 0.773990 -0.246102
N5    N     N_1   0.953016 0.708393 0.005274 -0.253685
N6    N     N_1   0.047246 0.292349 0.994836 -0.253723
O1    O     O_R   0.500000 0.288400 0.642760 -0.574330
O2    O     O_R   0.500000 0.711600 0.357240 -0.574357
O3    O     O_R   0.500000 0.288400 0.357240 -0.575170
O4    O     O_R   0.500000 0.711600 0.642760 -0.575150
O5    O     O_R   0.349000 0.500000 0.619590 -0.578088
O6    O     O_R   0.651000 0.500000 0.380410 -0.578080
O7    O     O_R   0.348990 0.500000 0.334020 -0.584678
O8    O     O_R   0.651010 0.500000 0.665980 -0.584657

loop_
_geom_bond_atom_site_label_1
_geom_bond_atom_site_label_2
_ccdc_geom_bond_type
C4    C16   A    
Cu1   N2    S    
C15   O8    A    
C5    C19   A    
C2    C16   A    
C13   N6    T    
C8    C12   S    
N1    N2    T    
C1    O3    A    
C7    C8    T    
C11   C18   S    
C3    C10   S    
C1    C7    S    
Cu1   Cu2   S    
C12   O2    A    
C14   O7    A    
Cu1   O1    S    
C14   C17   S    
C11   N5    T    
Cu2   O2    S    
Cu1   O5    S    
C3    C17   A    
C18   C20   A    
C5    C6    A    
C6    C18   A    
C13   C19   S    
C12   O4    A    
C15   C16   S    
C15   O6    A    
C1    O1    A    
C17   C20   A    
Cu2   O6    S    
C9    N3    T    
C4    C6    A    
C10   N4    T    
C2    H1    S    
Cu2   O3    S    
Cu1   O4    S    
C4    C9    S    
C2    C19   A    
Cu2   O7    S    
C14   O5    A    
Cu1   O8    S    
C20   H2    S    
C3    C5    A    
Cu2   N1    S    
