data_mof_unit_23199.cif
_audit_creation_date              2012-12-11T16:13:49-0500
_audit_creation_method            fapswitch 2.2
_symmetry_space_group_name_H-M    P1
_symmetry_Int_Tables_number       1
_space_group_crystal_system       triclinic
_cell_length_a                    26.184145
_cell_length_b                    7.281731
_cell_length_c                    23.706517
_cell_angle_alpha                 89.798203
_cell_angle_beta                  101.138179
_cell_angle_gamma                 90.245273
_cell_volume                      4434.82858208

loop_
_atom_site_label
_atom_site_type_symbol
_atom_type_description
_atom_site_fract_x
_atom_site_fract_y
_atom_site_fract_z
_atom_type_partial_charge
O1    O     O_R   0.192370 0.384760 0.193350 -0.533523
O2    O     O_R   0.807630 0.615240 0.806650 -0.531932
O3    O     O_R   0.307630 0.884760 0.306650 -0.533373
O4    O     O_R   0.692370 0.115240 0.693350 -0.532320
O5    O     O_R   0.296630 0.711620 0.196480 -0.538268
O6    O     O_R   0.703370 0.288380 0.803520 -0.538750
O7    O     O_R   0.203370 0.211620 0.303520 -0.540882
O8    O     O_R   0.796630 0.788380 0.696480 -0.538596
C1    C     C_R   0.312427 0.546408 0.184306 0.714812
C2    C     C_R   0.687548 0.453531 0.815626 0.713457
C3    C     C_R   0.187447 0.045467 0.315658 0.715976
C4    C     C_R   0.812543 0.954588 0.684342 0.716684
O9    O     O_R   0.192080 0.714290 0.186600 -0.534547
O10   O     O_R   0.807920 0.285710 0.813400 -0.534946
O11   O     O_R   0.307920 0.214290 0.313400 -0.534144
O12   O     O_R   0.692080 0.785710 0.686600 -0.534585
O13   O     O_R   0.202340 0.887460 0.296690 -0.537262
O14   O     O_R   0.797660 0.112540 0.703310 -0.538501
O15   O     O_R   0.297660 0.387460 0.203310 -0.535239
O16   O     O_R   0.702340 0.612540 0.796690 -0.535194
C5    C     C_R   0.173858 0.546265 0.171525 0.710921
C6    C     C_R   0.826134 0.453703 0.828497 0.709405
C7    C     C_R   0.326145 0.046386 0.328468 0.714207
C8    C     C_R   0.673857 0.953583 0.671517 0.710523
O17   O     O_3   0.253490 0.552180 0.286130 -0.377126
O18   O     O_3   0.746510 0.447820 0.713870 -0.377240
O19   O     O_3   0.246510 0.052180 0.213870 -0.375938
O20   O     O_3   0.753490 0.947820 0.786130 -0.376311
V1    V     V_3+5 0.249350 0.825920 0.243300 1.395277
V2    V     V_3+5 0.750650 0.174080 0.756700 1.400106
V3    V     V_3+5 0.250650 0.325920 0.256700 1.392648
V4    V     V_3+5 0.749350 0.674080 0.743300 1.401551
C9    C     C_3   0.536857 0.902847 0.479128 0.236570
C10   C     C_3   0.464021 0.089851 0.519527 0.208434
C11   C     C_3   0.963098 0.401187 0.020901 0.236830
C12   C     C_3   0.035941 0.591521 0.980544 0.208536
C13   C     C_3   0.512980 0.087842 0.454575 0.214652
C14   C     C_3   0.487950 0.906044 0.544055 0.180751
C15   C     C_3   0.987047 0.586122 0.045568 0.216105
C16   C     C_3   0.011943 0.407770 0.955904 0.181982
C17   C     C_1   0.371773 0.039471 0.374038 -0.203263
C18   C     C_1   0.628355 0.959916 0.625750 -0.195314
C19   C     C_1   0.128238 0.539166 0.125960 -0.202984
C20   C     C_1   0.871607 0.460211 0.874288 -0.193752
C21   C     C_3   0.482067 0.829335 0.482454 0.250217
C22   C     C_3   0.518977 0.163042 0.516528 0.234590
C23   C     C_3   0.017853 0.329353 0.017452 0.249980
C24   C     C_3   0.981019 0.663034 0.983668 0.234609
C25   C     C_3   0.457533 0.013794 0.457355 -0.123798
C26   C     C_3   0.543253 0.978184 0.541372 -0.136438
C27   C     C_3   0.042458 0.513745 0.042660 -0.124569
C28   C     C_3   0.956676 0.478235 0.958709 -0.137208
C29   C     C_1   0.410287 0.031347 0.411784 -0.005488
C30   C     C_1   0.590064 0.965404 0.587657 0.002647
C31   C     C_1   0.089721 0.531131 0.088216 -0.005849
C32   C     C_1   0.909876 0.465604 0.912407 0.002895
C33   C     C_R   0.882946 0.120654 0.646293 -0.176255
C34   C     C_R   0.117144 0.879640 0.354303 -0.239406
C35   C     C_R   0.655246 0.588139 0.899288 -0.235646
C36   C     C_R   0.345609 0.403426 0.102522 -0.228226
H1    H     H_    0.880522 0.231759 0.675954 0.148228
H2    H     H_    0.120235 0.766572 0.325572 0.130781
H3    H     H_    0.687715 0.683577 0.905421 0.129382
H4    H     H_    0.314153 0.304100 0.098203 0.132689
C37   C     C_R   0.919588 0.133736 0.610443 0.236084
C38   C     C_R   0.079379 0.870623 0.389110 0.245270
C39   C     C_R   0.620464 0.590732 0.937763 0.242444
C40   C     C_R   0.380409 0.396990 0.064173 0.240773
C41   C     C_R   0.923974 0.989831 0.571298 -0.068877
C42   C     C_R   0.074561 0.017091 0.426892 -0.036830
C43   C     C_R   0.577013 0.469611 0.929664 -0.051432
C44   C     C_R   0.422687 0.522573 0.070040 -0.056046
C45   C     C_R   0.891095 0.833776 0.569994 0.281155
C46   C     C_R   0.107598 0.172385 0.428158 0.249658
C47   C     C_R   0.571322 0.340576 0.884079 0.255888
C48   C     C_R   0.427049 0.660586 0.112977 0.260603
C49   C     C_R   0.855657 0.822239 0.607589 -0.230071
C50   C     C_R   0.143525 0.181382 0.391130 -0.247162
C51   C     C_R   0.607847 0.335937 0.847677 -0.232648
C52   C     C_R   0.390566 0.667893 0.149430 -0.230928
H5    H     H_    0.830859 0.702121 0.606018 0.135329
H6    H     H_    0.168277 0.301511 0.392379 0.134012
H7    H     H_    0.603178 0.235887 0.813297 0.123635
H8    H     H_    0.394341 0.773546 0.182079 0.123212
C53   C     C_R   0.850806 0.965713 0.645485 -0.140700
C54   C     C_R   0.149020 0.035224 0.354361 -0.106989
C55   C     C_R   0.649599 0.460042 0.854598 -0.105134
C56   C     C_R   0.350078 0.539000 0.144934 -0.110549
N1    N     N_R   0.969972 0.151244 0.503374 -0.307728
N2    N     N_R   0.028267 0.853986 0.494089 -0.251589
N3    N     N_R   0.485553 0.454660 0.943923 -0.258158
N4    N     N_R   0.514263 0.532560 0.056261 -0.264042
N5    N     N_R   0.005142 0.157463 0.469597 -0.248929
N6    N     N_R   0.993234 0.848247 0.528114 -0.242013
N7    N     N_R   0.449542 0.466162 0.976587 -0.272284
N8    N     N_R   0.550264 0.521118 0.023579 -0.273058
C57   C     C_R   0.035099 0.009121 0.464344 0.536567
C58   C     C_R   0.963566 0.997306 0.533790 0.515811
C59   C     C_R   0.463038 0.505745 0.033480 0.548021
C60   C     C_R   0.536779 0.482123 0.966626 0.544643
N9    N     N_2   0.524063 0.190911 0.405720 -0.499110
H9    H     H_    0.496501 0.176275 0.368580 0.254376
C61   C     C_3   0.577016 0.191350 0.396083 -0.564273
H10   H     H_    0.584541 0.321879 0.374850 0.193382
H11   H     H_    0.582890 0.077722 0.367095 0.197328
H12   H     H_    0.605713 0.178410 0.436893 0.194953
N10   N     N_2   0.475717 0.806311 0.592843 -0.506692
H13   H     H_    0.495246 0.854780 0.631923 0.259240
C62   C     C_3   0.421140 0.770152 0.591782 -0.571471
H14   H     H_    0.417397 0.664864 0.624665 0.195847
H15   H     H_    0.401279 0.719249 0.549051 0.211797
H16   H     H_    0.401386 0.895718 0.602592 0.203209
N11   N     N_2   0.976073 0.687442 0.094533 -0.498401
H17   H     H_    0.003691 0.672627 0.131619 0.253152
C63   C     C_3   0.923158 0.686149 0.104294 -0.571140
H18   H     H_    0.915696 0.816014 0.125537 0.191468
H19   H     H_    0.917329 0.571760 0.133332 0.195941
H20   H     H_    0.894392 0.673230 0.063537 0.195753
N12   N     N_2   0.024077 0.309868 0.907001 -0.506307
H21   H     H_    0.004476 0.358822 0.867978 0.259321
C64   C     C_3   0.078628 0.275385 0.907897 -0.577554
H22   H     H_    0.082286 0.171008 0.874970 0.194132
H23   H     H_    0.098587 0.224076 0.950586 0.212154
H24   H     H_    0.098346 0.401829 0.897040 0.202983
N13   N     N_2   0.576565 0.800264 0.458097 -0.502441
H25   H     H_    0.612067 0.866271 0.464142 0.250302
C65   C     C_3   0.560779 0.717795 0.401901 -0.535301
H26   H     H_    0.595712 0.676279 0.385016 0.172401
H27   H     H_    0.537351 0.814209 0.371074 0.193695
H28   H     H_    0.537098 0.593301 0.404993 0.256111
N14   N     N_2   0.422527 0.189754 0.538259 -0.495178
H29   H     H_    0.387136 0.123005 0.528611 0.259707
C66   C     C_3   0.434009 0.265415 0.595641 -0.570588
H30   H     H_    0.397159 0.300280 0.609705 0.186986
H31   H     H_    0.456678 0.393730 0.595766 0.228357
H32   H     H_    0.456004 0.166547 0.626802 0.196797
N15   N     N_2   0.923381 0.296867 0.041905 -0.501424
H33   H     H_    0.887895 0.362018 0.035910 0.249906
C67   C     C_3   0.939170 0.213351 0.098065 -0.538490
H34   H     H_    0.904239 0.170304 0.114943 0.170696
H35   H     H_    0.962616 0.309624 0.128929 0.193846
H36   H     H_    0.962841 0.089675 0.094918 0.256380
N16   N     N_2   0.077447 0.693132 0.961836 -0.494898
H37   H     H_    0.112810 0.627033 0.971385 0.259395
C68   C     C_3   0.065942 0.770192 0.904510 -0.572483
H38   H     H_    0.102786 0.806377 0.890411 0.185668
H39   H     H_    0.043359 0.897951 0.904511 0.228419
H40   H     H_    0.043850 0.671705 0.873302 0.197983
N17   N     N_2   0.538122 0.340367 0.539477 -0.479695
H41   H     H_    0.536994 0.351037 0.582502 0.254870
C69   C     C_3   0.588101 0.398961 0.528709 -0.458507
H42   H     H_    0.600690 0.525656 0.553615 0.202452
H43   H     H_    0.585032 0.433038 0.482916 0.247685
H44   H     H_    0.618016 0.291511 0.541744 0.164982
N18   N     N_2   0.465552 0.641981 0.467608 -0.472751
H45   H     H_    0.457893 0.563286 0.501147 0.311553
C70   C     C_3   0.430087 0.611093 0.413776 -0.511964
H46   H     H_    0.429143 0.462314 0.403531 0.212470
H47   H     H_    0.443098 0.686718 0.378290 0.192196
H48   H     H_    0.390227 0.654346 0.417322 0.193559
N19   N     N_2   0.961866 0.840468 0.960879 -0.478955
H49   H     H_    0.963078 0.852703 0.917889 0.255464
C71   C     C_3   0.911821 0.896846 0.971573 -0.458735
H50   H     H_    0.899249 0.023961 0.946788 0.202678
H51   H     H_    0.914770 0.929380 0.017386 0.247375
H52   H     H_    0.881942 0.788797 0.958350 0.163889
N20   N     N_2   0.034362 0.142066 0.032149 -0.472203
H53   H     H_    0.042177 0.064891 0.998580 0.311218
C72   C     C_3   0.069704 0.110543 0.086037 -0.511737
H54   H     H_    0.070546 0.961494 0.096182 0.212367
H55   H     H_    0.056655 0.184834 0.121521 0.192661
H56   H     H_    0.109616 0.154892 0.082631 0.192952
N21   N     N_2   0.952986 0.290021 0.616894 -0.521394
H57   H     H_    0.956428 0.356313 0.579439 0.299463
C73   C     C_3   0.002117 0.263901 0.655949 -0.519134
H58   H     H_    0.995471 0.218281 0.698746 0.196260
H59   H     H_    0.023882 0.395881 0.661449 0.203114
H60   H     H_    0.025952 0.160230 0.638559 0.193892
N22   N     N_2   0.045674 0.715044 0.384826 -0.487797
H61   H     H_    0.062109 0.596136 0.373048 0.254566
C74   C     C_3   0.994443 0.745147 0.350318 -0.508486
H62   H     H_    0.974802 0.861796 0.367229 0.200319
H63   H     H_    0.970177 0.620278 0.351521 0.205001
H64   H     H_    0.997397 0.773767 0.304963 0.172795
N23   N     N_2   0.628845 0.719447 0.983630 -0.507254
H65   H     H_    0.637507 0.849498 0.970782 0.248350
C75   C     C_3   0.666475 0.659744 0.033201 -0.497354
H66   H     H_    0.655551 0.523152 0.048337 0.216897
H67   H     H_    0.705862 0.651324 0.022381 0.167660
H68   H     H_    0.667716 0.759856 0.068661 0.198350
N24   N     N_2   0.373519 0.259068 0.021037 -0.510314
H69   H     H_    0.366181 0.131176 0.036624 0.251720
C76   C     C_3   0.335341 0.305446 0.970350 -0.495738
H70   H     H_    0.344781 0.439824 0.952442 0.217655
H71   H     H_    0.335272 0.198597 0.937041 0.199094
H72   H     H_    0.295848 0.312152 0.980961 0.169299
N25   N     N_2   0.893138 0.687465 0.530752 -0.490199
H73   H     H_    0.882471 0.561678 0.545064 0.259703
C77   C     C_3   0.866738 0.724659 0.472413 -0.521432
H74   H     H_    0.872393 0.607378 0.444467 0.206132
H75   H     H_    0.882747 0.849956 0.455300 0.203847
H76   H     H_    0.824356 0.742828 0.470833 0.175261
N26   N     N_2   0.105523 0.319487 0.467138 -0.482721
H77   H     H_    0.116659 0.444698 0.452907 0.261287
C78   C     C_3   0.131459 0.282554 0.525672 -0.507916
H78   H     H_    0.125839 0.400506 0.553378 0.206297
H79   H     H_    0.173856 0.263177 0.527654 0.175081
H80   H     H_    0.115062 0.158052 0.542791 0.198426
N27   N     N_2   0.528881 0.214327 0.874449 -0.499682
H81   H     H_    0.515575 0.183846 0.831643 0.253294
C79   C     C_3   0.537169 0.050551 0.909647 -0.496983
H82   H     H_    0.500729 0.968204 0.903237 0.209029
H83   H     H_    0.548077 0.086523 0.955943 0.203786
H84   H     H_    0.568283 0.965978 0.896976 0.179954
N28   N     N_2   0.468490 0.791383 0.120704 -0.509159
H85   H     H_    0.478996 0.844708 0.161593 0.251950
C80   C     C_3   0.467125 0.927322 0.075602 -0.477751
H86   H     H_    0.457392 0.063955 0.091241 0.185614
H87   H     H_    0.438081 0.892353 0.036320 0.189330
H88   H     H_    0.506090 0.936329 0.063869 0.223625

loop_
_geom_bond_atom_site_label_1
_geom_bond_atom_site_label_2
_ccdc_geom_bond_type
O17   V3    S    
C16   C23   S    
C15   C27   S    
C34   H2    S    
C25   C29   S    
O1    C5    A    
C70   H46   S    
O19   V1    S    
O13   V1    S    
C72   H54   S    
O12   C8    A    
O3    C7    A    
C71   H50   S    
N4    N8    A    
C44   C48   A    
C11   C23   S    
C51   C55   A    
C68   H38   S    
C36   C56   A    
O4    V2    S    
N20   C72   S    
C38   C42   A    
C78   H78   S    
C80   H88   S    
O7    C3    A    
N26   C78   S    
O5    C1    A    
C26   C30   S    
C4    C53   S    
O9    V1    S    
C71   H51   S    
C12   N16   S    
N17   C69   S    
C1    C56   S    
O4    C8    A    
C67   H36   S    
N7    C59   A    
N23   C75   S    
N18   C70   S    
C46   N26   S    
N6    C58   A    
C3    C54   S    
N16   H37   S    
O1    V3    S    
C13   C25   S    
C64   H23   S    
O2    V4    S    
C69   H44   S    
C14   N10   S    
O3    V1    S    
C20   C32   T    
C14   C21   S    
C61   H10   S    
C62   H15   S    
C68   H39   S    
C5    C19   S    
C34   C38   A    
C6    C20   S    
C79   H82   S    
C2    O16   A    
C15   N11   S    
C45   N25   S    
O2    C6    A    
C66   H32   S    
C69   H42   S    
C41   C45   A    
C10   C22   S    
C21   C25   S    
N3    C60   A    
N2    C57   A    
C27   C31   S    
C13   C22   S    
C42   C57   S    
C52   H8    S    
C35   C39   A    
C41   C58   S    
C63   H20   S    
O11   C7    A    
N13   H25   S    
N15   H33   S    
O15   V3    S    
C77   H74   S    
N9    C61   S    
N21   H57   S    
N21   C73   S    
C72   H55   S    
N25   H73   S    
C65   H27   S    
O10   V2    S    
C34   C54   A    
C9    N13   S    
N19   C71   S    
C1    O15   A    
N2    N6    A    
C73   H60   S    
O5    V1    S    
N12   C64   S    
C67   H34   S    
C2    C55   S    
C43   C47   A    
O7    V3    S    
N24   H69   S    
O8    V4    S    
N9    H9    S    
C12   C16   S    
C71   H52   S    
C73   H59   S    
C74   H63   S    
N20   H53   S    
O18   V4    S    
C23   C27   S    
C24   N19   S    
C40   N24   S    
C63   H19   S    
C80   H86   S    
C74   H62   S    
N3    N7    A    
O6    V2    S    
C9    C13   S    
C40   C44   A    
C11   C15   S    
N28   H85   S    
N24   C76   S    
C42   C46   A    
C9    C21   S    
C77   H76   S    
C23   N20   S    
C50   H6    S    
C73   H58   S    
C49   H5    S    
O8    C4    A    
C76   H72   S    
C16   N12   S    
C76   H71   S    
N27   H81   S    
O9    C5    A    
C61   H11   S    
O11   V3    S    
C8    C18   S    
N15   C67   S    
C17   C29   T    
C64   H22   S    
C12   C27   S    
C21   N18   S    
C19   C31   T    
C79   H83   S    
C10   N14   S    
C70   H48   S    
C39   N23   S    
C66   H30   S    
C72   H56   S    
C62   H16   S    
C80   H87   S    
N10   H13   S    
C77   H75   S    
C65   H26   S    
N5    C57   A    
N18   H45   S    
C68   H40   S    
N13   C65   S    
N11   H17   S    
O16   V4    S    
C78   H80   S    
N16   C68   S    
C47   N27   S    
C10   C25   S    
C74   H64   S    
C37   N21   S    
C10   C14   S    
C38   N22   S    
C48   C52   A    
C33   C37   A    
N14   C66   S    
C3    O13   A    
O6    C2    A    
N12   H21   S    
C33   H1    S    
C14   C26   S    
O12   V4    S    
C43   C60   S    
C22   C26   S    
C35   H3    S    
C7    C17   S    
C75   H68   S    
N1    C58   A    
C36   H4    S    
O10   C6    A    
N25   C77   S    
C9    C26   S    
C65   H28   S    
C75   H66   S    
C52   C56   A    
C16   C28   S    
C62   H14   S    
C11   N15   S    
C13   N9    S    
C67   H35   S    
C48   N28   S    
C50   C54   A    
N23   H65   S    
N10   C62   S    
N19   H49   S    
C37   C41   A    
N8    C60   A    
O20   V2    S    
N27   C79   S    
C33   C53   A    
C12   C24   S    
C61   H12   S    
C39   C43   A    
C69   H43   S    
N1    N5    A    
N14   H29   S    
C35   C55   A    
C75   H67   S    
N28   C80   S    
O14   V2    S    
C49   C53   A    
N22   H61   S    
C51   H7    S    
C28   C32   S    
C24   C28   S    
C79   H84   S    
C36   C40   A    
C70   H47   S    
C76   H70   S    
C46   C50   A    
C4    O14   A    
C11   C28   S    
C64   H24   S    
C66   H31   S    
C45   C49   A    
N26   H77   S    
N11   C63   S    
C22   N17   S    
N17   H41   S    
C78   H79   S    
C47   C51   A    
C18   C30   T    
C63   H18   S    
N4    C59   A    
C15   C24   S    
N22   C74   S    
C44   C59   S    
