data_mof_unit_13765.cif
_audit_creation_date              2012-12-10T17:19:54-0500
_audit_creation_method            fapswitch 2.2
_symmetry_space_group_name_H-M    P1
_symmetry_Int_Tables_number       1
_space_group_crystal_system       triclinic
_cell_length_a                    9.579859
_cell_length_b                    10.865189
_cell_length_c                    15.445744
_cell_angle_alpha                 87.690724
_cell_angle_beta                  74.225398
_cell_angle_gamma                 90.311653
_cell_volume                      1545.67140772

loop_
_atom_site_label
_atom_site_type_symbol
_atom_type_description
_atom_site_fract_x
_atom_site_fract_y
_atom_site_fract_z
_atom_type_partial_charge
C1    C     C_R   0.003560 0.263048 0.492916 0.817085
C2    C     C_R   0.677559 0.526849 0.908854 0.090401
C3    C     C_R   0.778732 0.504535 0.959539 0.158159
C4    C     C_R   0.529744 0.547834 0.954088 0.061350
C5    C     C_R   0.481506 0.527018 0.048955 0.084979
C6    C     C_R   0.586375 0.513415 0.097386 -0.138768
C7    C     C_R   0.732468 0.501810 0.053324 -0.241850
C8    C     C_R   0.430071 0.593795 0.908443 -0.217639
C9    C     C_R   0.287184 0.616118 0.954722 -0.212019
C10   C     C_R   0.236319 0.585198 0.046440 0.122538
C11   C     C_R   0.330704 0.531183 0.093190 0.019476
C12   C     C_R   0.918087 0.500328 0.672283 0.801025
C13   C     C_R   0.091716 0.607586 0.091948 -0.219324
C14   C     C_R   0.039804 0.577171 0.183459 -0.266723
C15   C     C_R   0.269509 0.482453 0.181863 0.290601
C16   C     C_R   0.280793 0.121801 0.443414 -0.121513
C17   C     C_R   0.404289 0.063521 0.454493 -0.147289
C18   C     C_R   0.391290 0.948722 0.498893 -0.150596
C19   C     C_R   0.257470 0.887031 0.523817 -0.164929
C20   C     C_R   0.133842 0.939267 0.503521 0.094856
C21   C     C_R   0.141674 0.065071 0.476540 0.086640
C22   C     C_R   0.010038 0.129185 0.485000 -0.109587
C23   C     C_R   0.999293 0.737581 0.504988 0.777668
C24   C     C_R   0.879632 0.063113 0.498148 -0.203905
C25   C     C_R   0.877582 0.935948 0.505807 -0.211395
C26   C     C_R   0.003098 0.872242 0.508638 -0.108816
C27   C     C_R   0.698493 0.662367 0.379695 -0.168990
C28   C     C_R   0.652954 0.742110 0.320805 -0.230370
C29   C     C_R   0.509078 0.743080 0.321074 -0.195052
C30   C     C_R   0.409948 0.664287 0.380203 -0.125142
C31   C     C_R   0.451643 0.580585 0.441104 0.212683
C32   C     C_R   0.601376 0.580120 0.440966 0.211390
C33   C     C_R   0.548953 0.423276 0.555875 -0.069732
C34   C     C_R   0.082017 0.500642 0.327786 0.833907
C35   C     C_R   0.400962 0.423259 0.555815 -0.073537
C36   C     C_R   0.872869 0.503684 0.771058 -0.054004
C37   C     C_R   0.128594 0.515834 0.229191 -0.097859
C38   C     C_R   0.925383 0.485993 0.915725 -0.199926
C39   C     C_R   0.972460 0.486654 0.822023 -0.195242
C40   C     C_R   0.726811 0.523400 0.814660 -0.246691
Cu1   Cu    Cu3+1 0.140660 0.499990 0.500010 0.940775
Cu2   Cu    Cu3+1 0.859340 0.500010 0.499990 0.933927
H1    H     H_    0.809168 0.489105 0.092986 0.161456
H2    H     H_    0.020139 0.652394 0.057352 0.149042
H3    H     H_    0.778352 0.109648 0.502534 0.161939
H4    H     H_    0.296667 0.209988 0.407027 0.210436
H5    H     H_    0.509393 0.109108 0.430984 0.148319
H6    H     H_    0.485545 0.906112 0.512414 0.138969
H7    H     H_    0.252874 0.800867 0.561720 0.167325
H8    H     H_    0.776235 0.887580 0.510996 0.163830
H9    H     H_    0.583801 0.360372 0.601641 0.139050
H10   H     H_    0.811080 0.669144 0.373945 0.200070
H11   H     H_    0.730169 0.803783 0.274710 0.161021
H12   H     H_    0.473523 0.805837 0.275404 0.164483
H13   H     H_    0.302318 0.674231 0.375248 0.196466
H14   H     H_    0.325082 0.360362 0.601500 0.140544
H15   H     H_    0.930502 0.602308 0.218412 0.167414
H16   H     H_    0.215449 0.656181 0.918133 0.145273
H17   H     H_    0.003401 0.469471 0.953980 0.150237
H18   H     H_    0.085979 0.471381 0.789658 0.153937
H19   H     H_    0.651914 0.531709 0.773929 0.151784
H20   H     H_    0.557640 0.517118 0.169871 0.198962
H21   H     H_    0.461558 0.620797 0.837781 0.140859
N1    N     N_R   0.648320 0.501210 0.499140 -0.197584
N2    N     N_R   0.352470 0.501290 0.499110 -0.199236
O1    O     O_R   0.118810 0.319640 0.500010 -0.585597
O2    O     O_R   0.881240 0.319660 0.500000 -0.579187
O3    O     O_R   0.055570 0.499980 0.629840 -0.585637
O4    O     O_R   0.818000 0.500010 0.629830 -0.583233
O5    O     O_R   0.118760 0.680340 0.500000 -0.618709
O6    O     O_R   0.881190 0.680360 0.499990 -0.600962
O7    O     O_R   0.182000 0.499990 0.370170 -0.560684
O8    O     O_R   0.944430 0.500020 0.370160 -0.601704
Cl1   Cl    Cl    0.350119 0.356766 0.226390 -0.665443

loop_
_geom_bond_atom_site_label_1
_geom_bond_atom_site_label_2
_ccdc_geom_bond_type
C8    C9    A    
C12   O4    A    
C16   C21   A    
Cu2   N1    S    
C34   C37   S    
Cu1   Cu2   S    
C19   C20   A    
C4    C8    A    
C12   O3    A    
C24   H3    S    
C28   C29   A    
C5    C11   A    
C3    C7    A    
C38   C39   A    
C29   H12   S    
C35   N2    A    
C9    H16   S    
C23   C26   S    
C25   H8    S    
C15   C37   A    
C1    O2    A    
C11   C15   A    
C3    C38   A    
C16   C17   A    
C7    H1    S    
C12   C36   S    
C9    C10   A    
C27   C32   A    
C1    C22   S    
C21   C22   A    
C23   O5    A    
C17   C18   A    
Cu1   O3    S    
C23   O6    A    
C36   C40   A    
C24   C25   A    
C32   N1    A    
C16   H4    S    
C18   C19   A    
Cu1   N2    S    
C34   O8    A    
C25   C26   A    
Cu2   O4    S    
C40   H19   S    
C2    C4    A    
C29   C30   A    
C19   H7    S    
C31   C32   A    
C30   C31   A    
C1    O1    A    
Cu1   O1    S    
Cu1   O7    S    
Cu2   O2    S    
C22   C24   A    
C34   O7    A    
C27   H10   S    
C31   N2    A    
C14   H15   S    
Cu2   O8    S    
C35   H14   S    
C36   C39   A    
C17   H5    S    
C4    C5    A    
C10   C13   A    
C18   H6    S    
C28   H11   S    
C6    C7    A    
C33   H9    S    
C30   H13   S    
C6    H20   S    
C2    C3    A    
C14   C37   A    
C5    C6    A    
C20   C26   A    
C33   N1    A    
C39   H18   S    
Cu2   O6    S    
C33   C35   A    
C10   C11   A    
C8    H21   S    
C38   H17   S    
C2    C40   A    
C15   Cl1   S    
C20   C21   A    
C27   C28   A    
C13   C14   A    
C13   H2    S    
Cu1   O5    S    
