data_mof_unit_37508.cif
_audit_creation_date              2012-12-11T17:19:09-0500
_audit_creation_method            fapswitch 2.2
_symmetry_space_group_name_H-M    P1
_symmetry_Int_Tables_number       1
_space_group_crystal_system       triclinic
_cell_length_a                    14.99426
_cell_length_b                    7.261244
_cell_length_c                    13.201128
_cell_angle_alpha                 90.470375
_cell_angle_beta                  100.218299
_cell_angle_gamma                 89.579948
_cell_volume                      1414.42908682

loop_
_atom_site_label
_atom_site_type_symbol
_atom_type_description
_atom_site_fract_x
_atom_site_fract_y
_atom_site_fract_z
_atom_type_partial_charge
O1    O     O_R   0.648180 0.355050 0.151550 -0.523939
O2    O     O_R   0.351820 0.644950 0.848450 -0.520432
O3    O     O_R   0.851820 0.855050 0.348450 -0.518735
O4    O     O_R   0.148180 0.144950 0.651550 -0.544591
O5    O     O_R   0.835240 0.681980 0.154280 -0.535691
O6    O     O_R   0.164760 0.318020 0.845720 -0.537129
O7    O     O_R   0.664760 0.181980 0.345720 -0.539953
O8    O     O_R   0.335240 0.818020 0.654280 -0.515340
H1    H     H_    0.648173 0.019288 0.850876 0.191448
H2    H     H_    0.350375 0.074061 0.152042 0.177899
H3    H     H_    0.850340 0.526668 0.649549 0.192805
H4    H     H_    0.150737 0.457228 0.349230 0.180545
C1    C     C_R   0.859879 0.514074 0.128408 0.763802
C2    C     C_R   0.140380 0.485885 0.871784 0.758393
C3    C     C_R   0.640485 0.016197 0.372082 0.765410
C4    C     C_R   0.359099 0.983471 0.627527 0.759905
O9    O     O_R   0.647870 0.684600 0.139630 -0.541909
O10   O     O_R   0.352130 0.315400 0.860370 -0.544972
O11   O     O_R   0.852130 0.184600 0.360370 -0.546574
O12   O     O_R   0.147870 0.815400 0.639630 -0.521538
O13   O     O_R   0.663110 0.857440 0.333700 -0.517765
O14   O     O_R   0.336890 0.142560 0.666300 -0.542201
O15   O     O_R   0.836890 0.357440 0.166300 -0.522224
O16   O     O_R   0.163110 0.642560 0.833700 -0.519727
C5    C     C_R   0.613870 0.516480 0.114831 0.794947
C6    C     C_R   0.385940 0.483559 0.885444 0.791052
C7    C     C_R   0.886234 0.016432 0.385064 0.795029
C8    C     C_R   0.114089 0.983921 0.614480 0.791204
H5    H     H_    0.493372 0.016351 0.765949 0.125654
H6    H     H_    0.505377 0.072612 0.237176 0.123478
H7    H     H_    0.005400 0.528908 0.734125 0.124969
H8    H     H_    0.995214 0.460335 0.265263 0.123670
O17   O     O_3   0.755220 0.522230 0.313690 -0.372939
O18   O     O_3   0.244780 0.477770 0.686310 -0.377489
O19   O     O_3   0.744780 0.022230 0.186310 -0.373337
O20   O     O_3   0.255220 0.977770 0.813690 -0.371018
V1    V     V_3+5 0.749030 0.796100 0.238190 1.568775
V2    V     V_3+5 0.250970 0.203900 0.761810 1.526336
V3    V     V_3+5 0.750970 0.296100 0.261810 1.555009
V4    V     V_3+5 0.249030 0.703900 0.738190 1.591992
C9    C     C_1   0.966767 0.005990 0.465843 -0.082774
C10   C     C_1   0.033738 0.994838 0.533506 -0.083806
C11   C     C_1   0.533356 0.505753 0.034010 -0.081108
C12   C     C_1   0.466367 0.494272 0.966369 -0.082966
C13   C     C_R   0.544283 0.007437 0.717445 -0.187463
C14   C     C_R   0.454731 0.047206 0.284308 -0.182019
C15   C     C_R   0.954716 0.515879 0.782529 -0.184903
C16   C     C_R   0.045787 0.475899 0.216926 -0.183976
C17   C     C_R   0.633421 0.008516 0.767721 -0.101615
C18   C     C_R   0.365553 0.047951 0.233990 -0.104416
C19   C     C_R   0.865464 0.514755 0.732551 -0.102083
C20   C     C_R   0.135260 0.474110 0.266504 -0.100729
C21   C     C_R   0.703135 0.988133 0.712558 0.465211
C22   C     C_R   0.296495 0.008039 0.287075 0.464921
C23   C     C_R   0.796180 0.491535 0.787757 0.461891
C24   C     C_R   0.204291 0.502210 0.211414 0.466572
C25   C     C_R   0.683938 0.970325 0.604740 0.315885
C26   C     C_R   0.316125 0.972541 0.393318 0.318400
C27   C     C_R   0.815895 0.472209 0.895327 0.317638
C28   C     C_R   0.184163 0.526783 0.104245 0.315134
C29   C     C_R   0.593006 0.990593 0.549578 -0.025988
C30   C     C_R   0.406715 0.991280 0.449695 -0.031744
C31   C     C_R   0.906768 0.492874 0.950378 -0.028283
C32   C     C_R   0.093297 0.506001 0.049353 -0.031347
C33   C     C_R   0.521742 0.996989 0.608624 0.034560
C34   C     C_R   0.477687 0.016483 0.391686 0.032203
C35   C     C_R   0.977682 0.503671 0.891122 0.034102
C36   C     C_R   0.022504 0.493297 0.108597 0.033636
C37   C     C_R   0.570306 0.007324 0.439767 -0.086067
C38   C     C_R   0.429326 0.988749 0.559926 -0.085483
C39   C     C_R   0.929838 0.498049 0.060520 -0.083934
C40   C     C_R   0.070273 0.501425 0.939343 -0.082290
Cl1   Cl    Cl    0.185135 0.998316 0.216292 -0.606946
Cl2   Cl    Cl    0.814924 0.981731 0.782350 -0.610240
Cl3   Cl    Cl    0.316146 0.513446 0.280621 -0.608552
Cl4   Cl    Cl    0.684399 0.481597 0.718207 -0.613461
Cl5   Cl    Cl    0.774290 0.891974 0.547708 -0.660843
Cl6   Cl    Cl    0.227250 0.876039 0.445059 -0.644854
Cl7   Cl    Cl    0.727086 0.387484 0.951633 -0.657865
Cl8   Cl    Cl    0.271903 0.619286 0.048690 -0.639214

loop_
_geom_bond_atom_site_label_1
_geom_bond_atom_site_label_2
_ccdc_geom_bond_type
C26   C30   A    
O5    V1    S    
C9    C10   T    
C21   Cl2   S    
O10   C6    A    
C5    C11   S    
C6    C12   S    
C30   C38   A    
C18   C22   A    
O18   V4    S    
C32   C36   A    
O19   V1    S    
C14   C34   A    
C23   C27   A    
O12   V4    S    
C17   C21   A    
C34   C37   A    
C33   C38   A    
O14   V2    S    
C1    O15   A    
C35   C40   A    
C2    O16   A    
O4    C8    A    
O17   V3    S    
O6    V2    S    
O11   C7    A    
O5    C1    A    
O7    C3    A    
O8    C4    A    
C24   Cl3   S    
H7    C15   S    
O1    C5    A    
H8    C16   S    
C15   C35   A    
H4    C20   S    
C3    C37   S    
C31   C35   A    
C30   C34   A    
C25   Cl5   S    
C4    C38   S    
C27   Cl7   S    
C21   C25   A    
C15   C19   A    
C1    C39   S    
C24   C28   A    
H5    C13   S    
C11   C12   T    
O2    V4    S    
O6    C2    A    
C22   Cl1   S    
C7    C9    S    
O1    V3    S    
C13   C17   A    
H1    C17   S    
O2    C6    A    
O9    V1    S    
C16   C36   A    
O11   V3    S    
C23   Cl4   S    
O4    V2    S    
C13   C33   A    
H2    C18   S    
C22   C26   A    
C29   C37   A    
C28   Cl8   S    
C4    O14   A    
C8    C10   S    
C2    C40   S    
H6    C14   S    
C31   C39   A    
C25   C29   A    
O12   C8    A    
C14   C18   A    
C27   C31   A    
C28   C32   A    
O9    C5    A    
O3    C7    A    
O10   V2    S    
C3    O13   A    
C36   C39   A    
O15   V3    S    
O20   V2    S    
O16   V4    S    
C19   C23   A    
C32   C40   A    
H3    C19   S    
C26   Cl6   S    
C29   C33   A    
C16   C20   A    
O13   V1    S    
O3    V1    S    
O7    V3    S    
O8    V4    S    
C20   C24   A    
