data_mof_unit_52166.cif
_audit_creation_date              2012-10-26T17:12:26-0400
_audit_creation_method            fapswitch 2.2
_symmetry_space_group_name_H-M    P1
_symmetry_Int_Tables_number       1
_space_group_crystal_system       triclinic
_cell_length_a                    16.856328
_cell_length_b                    16.879318
_cell_length_c                    16.803507
_cell_angle_alpha                 67.926599
_cell_angle_beta                  68.337944
_cell_angle_gamma                 67.863076
_cell_volume                      3957.17483617

loop_
_atom_site_label
_atom_site_type_symbol
_atom_type_description
_atom_site_fract_x
_atom_site_fract_y
_atom_site_fract_z
_atom_type_partial_charge
C1    C     C_R   0.031139 0.828192 0.563876 0.572180
C2    C     C_R   0.031035 0.563849 0.828241 0.550777
C3    C     C_R   0.168899 0.984701 0.431651 0.568724
C4    C     C_R   0.831440 0.014029 0.568978 0.575181
C5    C     C_R   0.457061 0.092847 0.697935 -0.103730
C6    C     C_R   0.507846 0.054429 0.256716 -0.113171
C7    C     C_R   0.082840 0.705840 0.450111 -0.101553
C8    C     C_R   0.047884 0.258779 0.515196 -0.117507
C9    C     C_R   0.727414 0.489249 0.970195 -0.108986
C10   C     C_R   0.289621 0.545770 0.944244 -0.112347
C11   C     C_R   0.255076 0.059805 0.507318 -0.115544
C12   C     C_R   0.991980 0.166277 0.429239 0.548804
C13   C     C_R   0.720781 0.993136 0.475462 -0.108729
C14   C     C_R   0.512144 0.272345 0.028975 -0.111628
C15   C     C_R   0.454511 0.709527 0.057164 -0.101242
C16   C     C_R   0.063645 0.505594 0.253194 -0.110144
C17   C     C_R   0.087195 0.451226 0.704656 -0.100918
C18   C     C_R   0.536155 0.052971 0.534283 0.039155
C19   C     C_R   0.434019 0.050779 0.434860 0.041882
C20   C     C_R   0.070548 0.531724 0.530750 0.039986
C21   C     C_R   0.055939 0.433847 0.433923 0.038840
C22   C     C_R   0.543764 0.551712 0.009106 0.041674
C23   C     C_R   0.829812 0.567852 0.019679 0.561695
C24   C     C_R   0.447941 0.455953 0.992474 0.041631
C25   C     C_R   0.576602 0.039603 0.448539 0.013534
C26   C     C_R   0.391481 0.067661 0.519131 0.015971
C27   C     C_R   0.073145 0.440919 0.570140 0.013762
C28   C     C_R   0.067902 0.520069 0.390162 0.014367
C29   C     C_R   0.452927 0.589996 0.011783 0.012903
C30   C     C_R   0.534200 0.413983 0.003565 0.013796
C31   C     C_R   0.523729 0.049197 0.395690 0.014632
C32   C     C_R   0.442412 0.074355 0.567026 0.012207
C33   C     C_R   0.409182 0.546510 0.990667 0.011947
C34   C     C_R   0.171389 0.436073 0.970782 0.548181
C35   C     C_R   0.585905 0.465860 0.997483 0.012450
C36   C     C_R   0.063048 0.392818 0.522543 0.016885
C37   C     C_R   0.073429 0.569974 0.439209 0.014725
C38   C     C_R   0.404237 0.099064 0.647262 -0.127771
C39   C     C_R   0.557086 0.059277 0.304049 -0.143281
C40   C     C_R   0.083287 0.656624 0.399834 -0.131760
C41   C     C_R   0.060223 0.304314 0.560736 -0.141321
C42   C     C_R   0.678533 0.436946 0.974290 -0.143782
C43   C     C_R   0.330677 0.591228 0.963779 -0.142393
C44   C     C_R   0.299869 0.076838 0.551605 -0.136400
C45   C     C_R   0.566020 0.024377 0.829071 0.556140
C46   C     C_R   0.669071 0.007657 0.421285 -0.141492
C47   C     C_R   0.564026 0.321313 0.025569 -0.142814
C48   C     C_R   0.408493 0.668106 0.038754 -0.136310
C49   C     C_R   0.075997 0.552246 0.298115 -0.136110
C50   C     C_R   0.088073 0.400963 0.655410 -0.130606
C51   C     C_R   0.550136 0.057149 0.673426 -0.006288
C52   C     C_R   0.429124 0.026944 0.301092 -0.001754
C53   C     C_R   0.065840 0.674408 0.543537 -0.007083
C54   C     C_R   0.030248 0.299952 0.430810 0.000358
C55   C     C_R   0.686060 0.565080 0.003288 -0.005722
C56   C     C_R   0.431578 0.983953 0.169235 0.544579
C57   C     C_R   0.318837 0.452032 0.961480 -0.007001
C58   C     C_R   0.299831 0.028857 0.430081 -0.006213
C59   C     C_R   0.683644 0.017528 0.555917 -0.000659
C60   C     C_R   0.435367 0.313896 0.996642 -0.003011
C61   C     C_R   0.548255 0.680861 0.039124 -0.005545
C62   C     C_R   0.036245 0.427169 0.298134 -0.004112
C63   C     C_R   0.067029 0.544430 0.673616 -0.009987
C64   C     C_R   0.604493 0.031993 0.732133 -0.038888
C65   C     C_R   0.390416 0.993408 0.261769 -0.029303
C66   C     C_R   0.054015 0.728452 0.597429 -0.034197
C67   C     C_R   0.432094 0.170329 0.980228 0.545097
C68   C     C_R   0.011257 0.254870 0.385163 -0.032844
C69   C     C_R   0.733364 0.607075 0.023383 -0.027206
C70   C     C_R   0.269786 0.402216 0.956510 -0.006808
C71   C     C_R   0.261300 0.993582 0.391777 -0.002727
C72   C     C_R   0.736748 0.012068 0.607881 -0.018007
C73   C     C_R   0.392979 0.266910 0.976426 -0.035472
C74   C     C_R   0.598469 0.730196 0.043117 -0.044535
C75   C     C_R   0.014354 0.383394 0.254027 -0.027519
C76   C     C_R   0.054249 0.597747 0.728258 -0.040418
C77   C     C_R   0.698197 0.005266 0.698874 -0.049724
C78   C     C_R   0.564126 0.828518 0.029232 0.567310
C79   C     C_R   0.311838 0.967605 0.312912 -0.015390
C80   C     C_R   0.058168 0.686885 0.686966 -0.016743
C81   C     C_R   0.014788 0.293629 0.294080 -0.038332
C82   C     C_R   0.686610 0.687253 0.048655 -0.024191
C83   C     C_R   0.312948 0.314497 0.950181 -0.013777
C84   C     C_R   0.589983 0.043276 0.587737 0.034149
C85   C     C_R   0.387787 0.034346 0.389127 0.032452
C86   C     C_R   0.067224 0.583864 0.582876 0.036243
C87   C     C_R   0.039602 0.387307 0.387907 0.032809
C88   C     C_R   0.592742 0.599042 0.017965 0.032004
C89   C     C_R   0.994025 0.428588 0.165429 0.552850
C90   C     C_R   0.400853 0.407223 0.982814 0.030646
C91   C     C_2   0.757370 0.958410 0.759617 0.312342
C92   C     C_2   0.285861 0.906766 0.288353 0.266427
C93   C     C_2   0.080290 0.732280 0.733228 0.289182
C94   C     C_2   0.034184 0.236241 0.236770 0.293265
C95   C     C_2   0.724663 0.722029 0.091240 0.280358
C96   C     C_2   0.276370 0.276693 0.909110 0.273991
Cu1   Cu    Cu3+1 0.995180 0.995180 0.424630 0.933574
Cu2   Cu    Cu3+1 0.004820 0.004820 0.575370 0.973941
Cu3   Cu    Cu3+1 0.995180 0.424630 0.995180 0.934245
Cu4   Cu    Cu3+1 0.004820 0.575370 0.004820 1.020687
Cu5   Cu    Cu3+1 0.424630 0.995180 0.995180 0.924516
Cu6   Cu    Cu3+1 0.575370 0.004820 0.004820 0.967555
H1    H     H_    0.423224 0.116788 0.756393 0.163311
H2    H     H_    0.414462 0.762298 0.088511 0.154983
H3    H     H_    0.081728 0.530621 0.181769 0.158016
H4    H     H_    0.106962 0.414410 0.765543 0.181052
H5    H     H_    0.333432 0.124109 0.672325 0.111290
H6    H     H_    0.620099 0.074186 0.267596 0.105215
H7    H     H_    0.092325 0.688915 0.329643 0.104857
H8    H     H_    0.068036 0.266820 0.626522 0.097122
H9    H     H_    0.713821 0.376758 0.953088 0.110689
H10   H     H_    0.303606 0.662582 0.951835 0.110762
H11   H     H_    0.261027 0.095082 0.612577 0.099294
H12   H     H_    0.534140 0.073440 0.185837 0.147177
H13   H     H_    0.702200 0.986590 0.360900 0.111172
H14   H     H_    0.624859 0.285877 0.046164 0.106499
H15   H     H_    0.337101 0.694729 0.051278 0.106374
H16   H     H_    0.094747 0.612403 0.257472 0.103428
H17   H     H_    0.103261 0.330238 0.685683 0.107306
H18   H     H_    0.769007 0.994483 0.793868 0.134751
H19   H     H_    0.259751 0.930094 0.230991 0.137477
H20   H     H_    0.149350 0.723822 0.726346 0.073996
H21   H     H_    0.980283 0.223378 0.227319 0.123546
H22   H     H_    0.706285 0.707058 0.163252 0.081904
H23   H     H_    0.100447 0.767126 0.412553 0.172681
H24   H     H_    0.248155 0.221267 0.948297 0.144035
H25   H     H_    0.058021 0.189509 0.548610 0.145294
H26   H     H_    0.797086 0.468944 0.938303 0.161661
H27   H     H_    0.236745 0.586342 0.912538 0.149534
H28   H     H_    0.184866 0.073437 0.536000 0.144437
H29   H     H_    0.789011 0.956220 0.455064 0.157247
H30   H     H_    0.533953 0.202398 0.059457 0.143027
O1    O     O_R   0.124540 0.978640 0.385460 -0.496163
O2    O     O_R   0.124540 0.385460 0.978640 -0.493822
O3    O     O_R   0.021360 0.875460 0.614540 -0.446308
O4    O     O_R   0.978640 0.124540 0.385460 -0.514089
O5    O     O_R   0.013780 0.867370 0.487190 -0.531718
O6    O     O_R   0.986220 0.132630 0.512810 -0.535559
O7    O     O_R   0.867370 0.487190 0.013780 -0.534379
O8    O     O_R   0.132630 0.512810 0.986220 -0.549424
O9    O     O_R   0.487190 0.013780 0.867370 -0.509367
O10   O     O_R   0.512810 0.986220 0.132630 -0.528548
O11   O     O_R   0.512810 0.132630 0.986220 -0.530298
O12   O     O_R   0.875460 0.021360 0.614540 -0.493496
O13   O     O_R   0.487190 0.867370 0.013780 -0.521938
O14   O     O_R   0.986220 0.512810 0.132630 -0.526304
O15   O     O_R   0.013780 0.487190 0.867370 -0.532461
O16   O     O_R   0.132630 0.986220 0.512810 -0.543908
O17   O     O_R   0.867370 0.013780 0.487190 -0.526194
O18   O     O_2   0.795659 0.879321 0.769114 -0.446658
O19   O     O_2   0.290931 0.830322 0.334752 -0.517393
O20   O     O_2   0.021690 0.778800 0.779071 -0.426391
O21   O     O_2   0.110911 0.203719 0.199593 -0.514364
O22   O     O_2   0.774239 0.769417 0.046187 -0.437420
O23   O     O_R   0.978640 0.385460 0.124540 -0.511178
O24   O     O_2   0.274452 0.310341 0.831353 -0.532296
O25   O     O_R   0.021360 0.614540 0.875460 -0.455977
O26   O     O_R   0.385460 0.124540 0.978640 -0.523788
O27   O     O_R   0.614540 0.875460 0.021360 -0.445813
O28   O     O_R   0.614540 0.021360 0.875460 -0.517232
O29   O     O_R   0.385460 0.978640 0.124540 -0.526750
O30   O     O_R   0.875460 0.614540 0.021360 -0.436517

loop_
_geom_bond_atom_site_label_1
_geom_bond_atom_site_label_2
_ccdc_geom_bond_type
C95   H22   S    
C25   C31   A    
C21   C87   A    
C26   C32   A    
Cu5   Cu6   S    
C65   C79   A    
C22   C29   A    
C64   C77   A    
C23   C69   S    
Cu1   O1    S    
C19   C31   A    
C71   C79   A    
Cu1   Cu2   S    
C1    O5    A    
C21   C36   A    
C45   O28   A    
C4    O17   A    
C12   C68   S    
Cu5   O13   S    
C9    C42   A    
C30   C35   A    
Cu2   O6    S    
C68   C81   A    
C23   O7    A    
C52   C85   A    
C37   C40   A    
C2    O25   A    
C54   C87   A    
C58   C71   A    
C89   O23   A    
C54   C68   A    
C63   C76   A    
C34   O2    A    
C56   C65   S    
C29   C33   A    
C60   C73   A    
C55   C88   A    
C38   H5    S    
C35   C42   A    
C19   C26   A    
C6    H12   S    
C69   C82   A    
Cu4   O8    S    
C78   O13   A    
Cu5   O9    S    
Cu4   O25   S    
Cu3   Cu4   S    
Cu4   O14   S    
C20   C86   A    
C18   C84   A    
C7    C40   A    
C53   C86   A    
C9    C55   A    
C32   C38   A    
C57   C70   A    
C11   C58   A    
C34   C70   S    
C27   C50   A    
C92   H19   S    
C59   C72   A    
C23   O30   A    
C56   O10   A    
C94   H21   S    
C67   O11   A    
C3    O16   A    
C5    C38   A    
C45   O9    A    
C5    H1    S    
Cu3   O7    S    
C36   C41   A    
C47   H14   S    
C18   C25   A    
C16   C62   A    
C15   C48   A    
C74   C82   A    
Cu1   O5    S    
C24   C33   A    
C13   H29   S    
C39   H6    S    
C9    H26   S    
C57   C90   A    
C29   C48   A    
C26   C44   A    
C50   H17   S    
C33   C43   A    
C70   C83   A    
C30   C47   A    
C10   C57   A    
C16   C49   A    
Cu6   O28   S    
C75   C89   S    
C75   C81   A    
C14   H30   S    
C2    O15   A    
C20   C37   A    
C56   O29   A    
C7    H23   S    
Cu3   O2    S    
Cu3   O23   S    
C3    O1    A    
Cu6   O27   S    
C3    C71   S    
C42   H9    S    
C72   C77   A    
C53   C66   A    
C61   C88   A    
C28   C49   A    
C8    H25   S    
C49   H16   S    
C92   O19   D    
C1    C66   S    
C15   C61   A    
C40   H7    S    
C96   H24   S    
C11   C44   A    
C8    C41   A    
C89   O14   A    
C79   C92   S    
C55   C69   A    
C16   H3    S    
C67   C73   S    
C46   H13   S    
C51   C84   A    
C21   C28   A    
Cu5   O26   S    
C22   C88   A    
C41   H8    S    
C63   C86   A    
C12   O4    A    
C15   H2    S    
C12   O6    A    
C62   C75   A    
C18   C32   A    
C43   H10   S    
C7    C53   A    
C8    C54   A    
C11   H28   S    
C4    C72   S    
C2    C76   S    
C59   C84   A    
C14   C60   A    
Cu3   O15   S    
C77   C91   S    
C82   C95   S    
Cu2   O12   S    
C10   C43   A    
C91   H18   S    
C51   C64   A    
C76   C80   A    
C19   C85   A    
C24   C90   A    
C17   C50   A    
C4    O12   A    
C91   O18   D    
C14   C47   A    
C13   C59   A    
C20   C27   A    
C60   C90   A    
C27   C36   A    
C22   C35   A    
C66   C80   A    
C62   C87   A    
C45   C64   S    
C58   C85   A    
C95   O22   D    
Cu5   O29   S    
Cu6   O11   S    
C10   H27   S    
C17   H4    S    
C17   C63   A    
C81   C94   S    
C44   H11   S    
C96   O24   D    
Cu2   O16   S    
C28   C37   A    
C94   O21   D    
C83   C96   S    
Cu2   O3    S    
C34   O8    A    
C31   C39   A    
C67   O26   A    
C13   C46   A    
C24   C30   A    
C48   H15   S    
C78   O27   A    
C74   C78   S    
Cu1   O17   S    
C6    C39   A    
C5    C51   A    
C93   O20   D    
Cu4   O30   S    
Cu6   O10   S    
Cu1   O4    S    
C6    C52   A    
C80   C93   S    
C1    O3    A    
C25   C46   A    
C73   C83   A    
C93   H20   S    
C52   C65   A    
C61   C74   A    
