data_mof_unit_52141.cif
_audit_creation_date              2012-12-11T15:45:17-0500
_audit_creation_method            fapswitch 2.2
_symmetry_space_group_name_H-M    P1
_symmetry_Int_Tables_number       1
_space_group_crystal_system       triclinic
_cell_length_a                    8.379291
_cell_length_b                    19.068067
_cell_length_c                    22.950558
_cell_angle_alpha                 95.680567
_cell_angle_beta                  90.543081
_cell_angle_gamma                 94.195743
_cell_volume                      3638.66478882

loop_
_atom_site_label
_atom_site_type_symbol
_atom_type_description
_atom_site_fract_x
_atom_site_fract_y
_atom_site_fract_z
_atom_type_partial_charge
Ba1   Ba    Ba6+2 0.850680 0.532880 0.472010 1.781201
Ba2   Ba    Ba6+2 0.339140 0.467180 0.527990 1.763683
C1    C     C_3   0.660897 0.784044 0.292206 -0.291312
C2    C     C_3   0.593951 0.710833 0.304749 0.277196
C3    C     C_3   0.490665 0.364774 0.351668 0.301247
C4    C     C_3   0.459761 0.343669 0.286631 -0.370456
C5    C     C_3   0.089301 0.310840 0.688867 0.664887
C6    C     C_3   0.079485 0.279619 0.748107 0.197687
C7    C     C_3   0.531211 0.274818 0.669835 0.595113
C8    C     C_3   0.467955 0.206139 0.695315 0.648208
C9    C     C_R   0.339571 0.519534 0.332632 0.057857
C10   C     C_R   0.155046 0.544670 0.932455 -0.079752
C11   C     C_R   0.123024 0.532802 0.870947 0.590024
C12   C     C_3   0.144764 0.729985 0.312507 0.986107
C13   C     C_R   0.890692 0.458546 0.888972 0.637489
C14   C     C_R   0.949017 0.451509 0.946116 -0.020142
C15   C     C_R   0.076388 0.498458 0.969033 -0.147260
C16   C     C_R   0.268110 0.598530 0.958618 0.421517
C17   C     C_R   0.302839 0.602816 0.018910 -0.039400
C18   C     C_R   0.231817 0.553755 0.054599 -0.083704
C19   C     C_R   0.123430 0.499802 0.028878 -0.056385
C20   C     C_R   0.880616 0.400418 0.981355 0.421167
C21   C     C_R   0.943075 0.396771 0.038276 -0.131263
C22   C     C_R   0.062161 0.447050 0.062855 -0.053744
C23   C     C_3   0.070677 0.742610 0.253614 -0.187310
C24   C     C_R   0.121540 0.445810 0.120728 0.608929
C25   C     C_R   0.262498 0.558800 0.115837 0.606019
C26   C     C_2   0.836704 0.432557 0.760600 -0.107245
C27   C     C_3   0.791348 0.424665 0.696212 -0.043990
C28   C     C_1   0.994844 0.519926 0.684867 0.017480
C29   C     C_2   0.017853 0.534183 0.742550 -0.038471
C30   C     C_2   0.942692 0.485496 0.785093 0.184625
C31   C     C_R   0.406491 0.534662 0.232004 -0.181577
C32   C     C_R   0.447422 0.542895 0.291589 -0.045428
C33   C     C_R   0.188295 0.488286 0.315290 0.035830
C34   C     C_3   0.205888 0.680861 0.594327 0.310945
C35   C     C_R   0.140422 0.485112 0.255364 0.338565
C36   C     C_R   0.251124 0.508178 0.212146 0.165618
C37   C     C_2   0.872291 0.479049 0.662043 -0.196471
C38   C     C_R   0.395867 0.702246 0.473611 -0.449320
C39   C     C_R   0.539412 0.724285 0.503032 0.092469
C40   C     C_R   0.596897 0.795779 0.506322 0.284664
C41   C     C_R   0.502388 0.846229 0.483054 -0.099547
C42   C     C_R   0.349014 0.822879 0.457376 0.386253
C43   C     C_R   0.300075 0.750329 0.451114 0.008148
C44   C     C_R   0.575129 0.960917 0.439058 0.417608
C45   C     C_3   0.220418 0.760816 0.608195 -0.339816
C46   C     C_R   0.626081 0.033620 0.446268 -0.132782
C47   C     C_R   0.666828 0.068011 0.501980 0.022759
C48   C     C_R   0.656573 0.028995 0.550621 -0.042189
C49   C     C_R   0.600094 0.957832 0.544276 -0.150743
C50   C     C_R   0.559677 0.922877 0.488701 0.011633
C51   C     C_R   0.853931 0.172232 0.540755 -0.107954
C52   C     C_R   0.892417 0.245525 0.549392 0.074169
C53   C     C_R   0.653142 0.265310 0.495049 0.027279
C54   C     C_R   0.615498 0.192378 0.485245 -0.115839
C55   C     C_R   0.712382 0.145190 0.509875 0.012523
C56   C     C_3   0.981202 0.308240 0.387317 0.881535
C57   C     C_R   0.783647 0.291278 0.531188 -0.166389
C58   C     C_3   0.019896 0.229891 0.377172 0.642681
C59   C     C_3   0.679218 0.626228 0.649991 0.363587
C60   C     C_3   0.648058 0.645809 0.714999 0.633729
H1    H     H_    0.552630 0.714084 0.350855 0.025045
H2    H     H_    0.274402 0.786689 0.571321 0.031698
H3    H     H_    0.936962 0.199211 0.404365 0.052714
H4    H     H_    0.721079 0.695830 0.730050 -0.013157
H5    H     H_    0.492617 0.694059 0.273701 0.078025
H6    H     H_    0.565512 0.821477 0.295910 0.162353
H7    H     H_    0.381312 0.385833 0.370937 0.059455
H8    H     H_    0.591223 0.406383 0.356741 0.096272
H9    H     H_    0.356514 0.303594 0.280214 0.127654
H10   H     H_    0.432482 0.390403 0.264306 0.055405
H11   H     H_    0.708329 0.782083 0.247103 0.105098
H12   H     H_    0.969687 0.325301 0.677185 -0.044830
H13   H     H_    0.024964 0.317190 0.780723 0.038744
H14   H     H_    0.478391 0.274561 0.625173 0.052217
H15   H     H_    0.386555 0.645193 0.037769 0.143356
H16   H     H_    0.497038 0.549192 0.201219 0.133251
H17   H     H_    0.791131 0.389310 0.784161 0.134032
H18   H     H_    0.827163 0.483480 0.618160 0.038812
H19   H     H_    0.688832 0.053977 0.593856 0.111771
H20   H     H_    0.588757 0.929625 0.582920 0.125539
H21   H     H_    0.809728 0.347736 0.540277 0.025603
H22   H     H_    0.128144 0.667233 0.554768 0.052767
N1    N     N_R   0.985516 0.492620 0.848827 -0.438850
N2    N     N_R   0.210024 0.504261 0.149044 -0.426537
O1    O     O_2   0.896730 0.461690 0.361000 -0.424357
O2    O     O_3   0.644523 0.683429 0.619554 -0.668331
O3    O     O_3   0.028455 0.739461 0.356268 -0.576359
O4    O     O_2   0.292960 0.538340 0.639040 -0.423794
O5    O     O_3   0.052540 0.537650 0.567960 -0.510474
O6    O     O_3   0.532200 0.411510 0.604930 -0.483056
O7    O     O_3   0.139340 0.651249 0.642624 -0.620582
O8    O     O_3   0.629030 0.416090 0.471500 -0.478334
O9    O     O_3   0.120120 0.375640 0.576470 -0.437831
O10   O     O_2   0.222280 0.250544 0.537124 -0.440948
O11   O     O_3   0.142228 0.260389 0.645948 -0.631515
O12   O     O_3   0.137170 0.462400 0.432040 -0.453802
O13   O     O_3   0.560670 0.583970 0.528500 -0.498844
O14   O     O_2   0.373560 0.329680 0.473470 -0.396592
O15   O     O_3   0.528822 0.305018 0.378382 -0.598890
O16   O     O_2   0.480287 0.473676 0.710932 -0.363040
O17   O     O_3   0.485837 0.334781 0.705592 -0.607304
O18   O     O_2   0.221434 0.555884 0.837581 -0.541114
O19   O     O_2   0.753076 0.436710 0.876304 -0.513052
O20   O     O_2   0.095169 0.392456 0.145529 -0.550514
O21   O     O_2   0.333790 0.612452 0.139463 -0.598243
O22   O     O_3   0.657500 0.588540 0.395070 -0.416487
O23   O     O_2   0.772639 0.533607 0.294926 -0.430898
O24   O     O_3   0.079135 0.349429 0.352840 -0.682753
O25   O     O_3   0.714151 0.663861 0.295880 -0.589158
O26   O     O_2   0.816140 0.670340 0.526560 -0.424463
O27   O     O_3   0.069580 0.624410 0.423530 -0.500433
O28   O     O_2   0.975390 0.748114 0.467359 -0.423213
P1    P     P_3+3 0.067040 0.441110 0.370020 1.098691
P2    P     P_3+3 0.640420 0.660110 0.543790 1.045665
P3    P     P_3+3 0.096880 0.716634 0.424087 1.064754
P4    P     P_3+3 0.122660 0.558950 0.629980 1.040174
P5    P     P_3+3 0.092597 0.283197 0.576452 1.057589
P6    P     P_3+3 0.645090 0.582373 0.318415 1.037964
P7    P     P_3+3 0.551452 0.327723 0.453912 1.041479
P8    P     P_3+3 0.571409 0.412982 0.680087 1.097249
H23   H     H_    0.297349 0.775748 0.647787 0.118148
H24   H     H_    0.100044 0.780303 0.616192 0.149853
O29   O     O_3   0.822260 0.312778 0.371009 -0.781403
H25   H     H_    0.814913 0.305715 0.327557 0.309845
O30   O     O_3   0.007050 0.330415 0.446972 -0.737078
H26   H     H_    0.936989 0.369221 0.457552 0.286654
O31   O     O_3   0.993679 0.201823 0.318494 -0.731735
H27   H     H_    0.067387 0.228815 0.293828 0.303592
O32   O     O_3   0.176346 0.220409 0.395774 -0.698943
H28   H     H_    0.250444 0.241337 0.367756 0.310506
H29   H     H_    0.807105 0.616985 0.644244 -0.089000
H30   H     H_    0.603330 0.577504 0.634789 0.051523
H31   H     H_    0.758494 0.803639 0.324066 0.149719
O33   O     O_3   0.693845 0.592090 0.747463 -0.743423
H32   H     H_    0.685177 0.609904 0.789356 0.336372
O34   O     O_3   0.484461 0.654342 0.723349 -0.663014
H33   H     H_    0.465078 0.702538 0.713443 0.286820
H34   H     H_    0.567155 0.321276 0.266401 0.146856
H35   H     H_    0.162292 0.739022 0.218965 0.106378
O35   O     O_3   0.194989 0.371588 0.693050 -0.689253
H36   H     H_    0.157591 0.404932 0.724927 0.256766
H37   H     H_    0.200998 0.272293 0.765220 0.047783
O36   O     O_3   0.984138 0.215659 0.743270 -0.692898
H38   H     H_    0.053316 0.178231 0.727871 0.325598
O37   O     O_3   0.697690 0.275031 0.665448 -0.814288
H39   H     H_    0.740039 0.277481 0.706146 0.327515
O38   O     O_3   0.509983 0.147005 0.658999 -0.722304
H40   H     H_    0.625711 0.142374 0.665863 0.345707
H41   H     H_    0.336111 0.202898 0.696613 0.041168
O39   O     O_3   0.190855 0.660261 0.307175 -0.755272
H42   H     H_    0.278767 0.657882 0.335893 0.240157
O40   O     O_3   0.528868 0.203309 0.752327 -0.684221
H43   H     H_    0.472203 0.237331 0.778665 0.304662
H44   H     H_    0.893799 0.356111 0.064181 0.121016
O41   O     O_3   0.758906 0.352369 0.958569 -0.659353
H45   H     H_    0.725422 0.320562 0.988607 0.308024
O42   O     O_3   0.340433 0.650507 0.928016 -0.682333
H46   H     H_    0.262302 0.662765 0.898723 0.333489
H47   H     H_    0.067450 0.586722 0.758543 0.128832
O43   O     O_3   0.986173 0.459380 0.240717 -0.663834
H48   H     H_    0.949299 0.484745 0.208037 0.315587
O44   O     O_3   0.387693 0.523866 0.390043 -0.715842
H49   H     H_    0.316029 0.556027 0.411110 0.303767
O45   O     O_3   0.278390 0.778573 0.324528 -0.796531
H50   H     H_    0.238827 0.826611 0.328555 0.327320
H51   H     H_    0.511912 0.172571 0.458326 0.108510
H52   H     H_    0.635416 0.063297 0.408396 0.079132
O46   O     O_3   0.539743 0.926174 0.384296 -0.720867
H53   H     H_    0.556659 0.960087 0.354462 0.307046
O47   O     O_3   0.742803 0.814726 0.534101 -0.693786
H54   H     H_    0.792640 0.857202 0.518048 0.319075
H55   H     H_    0.935859 0.136511 0.556218 0.077358
O48   O     O_3   0.240937 0.868987 0.440945 -0.704301
H56   H     H_    0.270853 0.917119 0.459732 0.311129
H57   H     H_    0.971104 0.702160 0.241093 0.125545
H58   H     H_    0.350450 0.648068 0.473785 0.074857
H59   H     H_    0.023894 0.795825 0.256039 0.038965
H60   H     H_    0.326296 0.662249 0.586366 -0.003163

loop_
_geom_bond_atom_site_label_1
_geom_bond_atom_site_label_2
_ccdc_geom_bond_type
Ba1   O1    S    
C53   C54   A    
C53   P7    S    
O11   P5    S    
O41   H45   S    
C53   C57   A    
C39   C40   A    
O22   P6    S    
O10   P5    D    
C17   C18   A    
C34   H60   S    
C42   O48   S    
O26   P2    D    
C24   O20   D    
C29   H47   S    
O36   H38   S    
Ba2   P4    S    
C59   H29   S    
C5    C6    S    
C51   C52   A    
O47   H54   S    
C4    H10   S    
Ba1   O13   S    
C2    H1    S    
C35   C36   A    
C36   N2    S    
C3    C4    S    
O4    P4    D    
C26   C27   S    
C33   C35   A    
C22   C24   A    
C52   P5    S    
Ba1   Ba2   S    
Ba1   O26   S    
C28   C29   D    
C23   H57   S    
C41   C50   S    
O46   H53   S    
C56   C58   S    
C13   C14   A    
C44   C50   A    
C47   C55   S    
C54   C55   A    
C34   C45   S    
Ba2   O4    S    
C16   C17   A    
C60   O33   S    
C17   H15   S    
C26   H17   S    
C3    H7    S    
C16   O42   S    
O37   H39   S    
C34   O7    S    
C1    H6    S    
C14   C15   A    
C10   C15   A    
C51   H55   S    
C21   C22   A    
C33   P1    S    
C7    H14   S    
C25   O21   D    
C12   O45   S    
C7    C8    S    
O1    P1    D    
C24   N2    Am   
C13   N1    Am   
O23   P6    D    
Ba2   O14   S    
C56   O30   S    
Ba1   O5    S    
C21   H44   S    
O42   H46   S    
C8    O40   S    
C38   C43   A    
Ba1   O27   S    
C1    H11   S    
C58   O32   S    
C12   O39   S    
C59   H30   S    
C31   C32   A    
C5    H12   S    
C3    O15   S    
C52   C57   A    
C20   C21   A    
C32   P6    S    
C4    H9    S    
C44   C46   A    
C60   H4    S    
C49   C50   A    
C26   C30   D    
O13   P2    S    
C51   C55   A    
Ba1   O8    S    
C28   P4    S    
O9    P5    S    
C7    O37   S    
C6    H13   S    
O15   P7    S    
C1    C2    S    
C44   O46   S    
O25   P6    S    
O2    P2    S    
C25   N2    Am   
O12   P1    S    
C41   C42   A    
C12   O3    S    
C3    H8    S    
O44   H49   S    
C59   O2    S    
O6    P8    S    
C8    H41   S    
C45   H23   S    
C29   C30   S    
Ba2   O8    S    
C7    O17   S    
C27   P8    S    
C54   H51   S    
C6    O36   S    
Ba2   O5    S    
C48   C49   A    
O5    P4    S    
C6    H37   S    
C60   O34   S    
C11   O18   D    
Ba2   O6    S    
C49   H20   S    
O40   H43   S    
C40   O47   S    
O27   P3    S    
C38   C39   A    
Ba1   P2    S    
C2    O25   S    
O3    P3    S    
C58   H3    S    
O29   H25   S    
C38   H58   S    
C40   C41   A    
C39   P2    S    
C10   C16   A    
O30   H26   S    
C45   H2    S    
C42   C43   A    
O31   H27   S    
C43   P3    S    
C27   C37   S    
Ba2   O9    S    
C14   C20   A    
C5    O11   S    
C18   C19   A    
C56   O24   S    
C9    C32   A    
C23   H35   S    
C57   H21   S    
O33   H32   S    
C58   O31   S    
Ba2   O13   S    
C2    H5    S    
C23   H59   S    
C20   O41   S    
C18   C25   A    
O43   H48   S    
C31   C36   A    
C37   H18   S    
C13   O19   D    
C9    C33   A    
Ba1   O12   S    
C8    O38   S    
O48   H56   S    
O38   H40   S    
C45   H24   S    
O45   H50   S    
C34   H22   S    
C46   C47   A    
C30   N1    S    
C9    O44   S    
C28   C37   D    
C1    H31   S    
C12   C23   S    
C4    H34   S    
C59   C60   S    
C31   H16   S    
C15   C19   A    
O28   P3    D    
O34   H33   S    
Ba1   O22   S    
C46   H52   S    
O8    P7    S    
O39   H42   S    
Ba2   O12   S    
C56   O29   S    
C47   C48   A    
O7    P4    S    
C19   C22   A    
C11   N1    Am   
O35   H36   S    
Ba1   P1    S    
C10   C11   A    
O16   P8    D    
O17   P8    S    
O24   P1    S    
C5    O35   S    
O32   H28   S    
C48   H19   S    
C35   O43   S    
O14   P7    D    
