data_mof_unit_9091.cif
_audit_creation_date              2012-12-10T20:47:09-0500
_audit_creation_method            fapswitch 2.2
_symmetry_space_group_name_H-M    P1
_symmetry_Int_Tables_number       1
_space_group_crystal_system       triclinic
_cell_length_a                    10.671128
_cell_length_b                    8.92789
_cell_length_c                    8.104295
_cell_angle_alpha                 89.947848
_cell_angle_beta                  93.157795
_cell_angle_gamma                 90.57542
_cell_volume                      770.890232013

loop_
_atom_site_label
_atom_site_type_symbol
_atom_type_description
_atom_site_fract_x
_atom_site_fract_y
_atom_site_fract_z
_atom_type_partial_charge
C1    C     C_R   0.502150 0.218054 0.500112 0.918376
C2    C     C_R   0.062647 0.401953 0.603009 -0.006388
C3    C     C_R   0.124822 0.485475 0.483616 -0.144973
C4    C     C_R   0.875049 0.534192 0.523948 -0.161263
C5    C     C_R   0.060969 0.590465 0.380969 0.052734
C6    C     C_R   0.932993 0.609715 0.396935 0.049403
C7    C     C_1   0.501815 0.065228 0.500042 -0.197303
C8    C     C_1   0.500999 0.934819 0.499914 -0.187187
C9    C     C_R   0.500043 0.782009 0.499919 0.946608
C10   C     C_R   0.258928 0.493011 0.495128 0.906063
C11   C     C_R   0.741082 0.512106 0.506413 0.920941
C12   C     C_R   0.113574 0.274043 0.687231 0.137876
C13   C     C_R   0.909252 0.423512 0.810226 0.154191
C14   C     C_R   0.063056 0.227067 0.834254 -0.170289
C15   C     C_R   0.966730 0.306990 0.900059 -0.187718
C16   C     C_R   0.946779 0.455109 0.647319 -0.004557
H1    H     H_    0.102151 0.131713 0.901055 0.151492
H2    H     H_    0.821710 0.626533 0.837051 0.199183
H3    H     H_    0.937930 0.280008 0.022793 0.154380
H4    H     H_    0.087140 0.656668 0.145181 0.197619
H5    H     H_    0.117336 0.791263 0.290901 0.176246
H6    H     H_    0.899859 0.819845 0.310180 0.174920
H7    H     H_    0.870473 0.681689 0.169677 0.206723
H8    H     H_    0.288751 0.192558 0.692670 0.214747
H9    H     H_    0.221722 0.208159 0.497161 0.162622
H10   H     H_    0.751505 0.474927 0.926759 0.219979
N1    N     N_1   0.500000 0.500000 0.073640 -0.036769
N2    N     N_1   0.500000 0.500000 0.926360 -0.050430
N3    N     N_3   0.126942 0.677678 0.263736 -0.429557
N4    N     N_3   0.862159 0.712180 0.292717 -0.446231
N5    N     N_3   0.205950 0.180134 0.619374 -0.468263
N6    N     N_3   0.836679 0.526042 0.901077 -0.473220
O1    O     O_R   0.500000 0.285350 0.636850 -0.630453
O2    O     O_R   0.500000 0.714650 0.636850 -0.618534
O3    O     O_R   0.500000 0.285360 0.363100 -0.616336
O4    O     O_R   0.500000 0.714640 0.363100 -0.607479
O5    O     O_R   0.316770 0.500000 0.636900 -0.617049
O6    O     O_R   0.683230 0.500000 0.636900 -0.651116
O7    O     O_R   0.316780 0.500000 0.363150 -0.598048
O8    O     O_R   0.683220 0.500000 0.363150 -0.597715
Zn1   Zn    Zn3+2 0.500000 0.500000 0.682780 0.962724
Zn2   Zn    Zn3+2 0.500000 0.500000 0.317220 0.994053

loop_
_geom_bond_atom_site_label_1
_geom_bond_atom_site_label_2
_ccdc_geom_bond_type
H9    N5    S    
C11   O6    A    
H10   N6    S    
C9    O4    A    
C2    C16   A    
C13   N6    S    
O4    Zn2   S    
N1    Zn2   S    
C2    C12   A    
O8    Zn2   S    
C2    C3    A    
H8    N5    S    
O1    Zn1   S    
C7    C8    T    
C3    C10   S    
C4    C11   S    
C15   H3    S    
C14   H1    S    
C9    O2    A    
O2    Zn1   S    
C10   O5    A    
C5    C6    A    
C4    C16   A    
C6    N4    S    
C12   C14   A    
O7    Zn2   S    
C5    N3    S    
H4    N3    S    
C13   C15   A    
C12   N5    S    
O5    Zn1   S    
C11   O8    A    
H2    N6    S    
C1    O1    A    
H7    N4    S    
N2    Zn1   S    
C1    O3    A    
O6    Zn1   S    
C4    C6    A    
C13   C16   A    
N1    N2    T    
O3    Zn2   S    
C14   C15   A    
C10   O7    A    
H6    N4    S    
C1    C7    S    
H5    N3    S    
C8    C9    S    
C3    C5    A    
