data_mof_unit_23853.cif
_audit_creation_date              2012-12-10T20:51:47-0500
_audit_creation_method            fapswitch 2.2
_symmetry_space_group_name_H-M    P1
_symmetry_Int_Tables_number       1
_space_group_crystal_system       triclinic
_cell_length_a                    8.132951
_cell_length_b                    8.916773
_cell_length_c                    16.962599
_cell_angle_alpha                 89.793971
_cell_angle_beta                  94.781598
_cell_angle_gamma                 89.81279
_cell_volume                      1225.82522134

loop_
_atom_site_label
_atom_site_type_symbol
_atom_type_description
_atom_site_fract_x
_atom_site_fract_y
_atom_site_fract_z
_atom_type_partial_charge
C1    C     C_R   0.500083 0.218127 0.499494 0.936737
C2    C     C_R   0.591225 0.556705 0.138432 -0.202012
C3    C     C_R   0.555242 0.481251 0.903579 0.268410
C4    C     C_R   0.445211 0.506842 0.096836 0.248561
C5    C     C_R   0.665906 0.400214 0.862364 -0.272353
C6    C     C_R   0.301235 0.497006 0.135220 -0.228587
C7    C     C_R   0.655891 0.406090 0.780097 0.164435
C8    C     C_R   0.306768 0.515933 0.216557 0.163346
C9    C     C_1   0.500227 0.065232 0.499093 -0.215722
C10   C     C_1   0.499760 0.934741 0.499066 -0.196321
C11   C     C_3   0.733975 0.676213 0.257725 -0.390481
C12   C     C_R   0.499782 0.781867 0.499427 0.914632
C13   C     C_3   0.663742 0.823904 0.288017 -0.334459
C14   C     C_3   0.797776 0.922672 0.328715 -0.860237
C15   C     C_3   0.302999 0.699476 0.742912 -0.395749
C16   C     C_3   0.387278 0.837451 0.710384 -0.342210
C17   C     C_3   0.260382 0.945724 0.670282 -0.842021
C18   C     C_3   0.697402 0.173347 0.712518 -0.758802
C19   C     C_3   0.143428 0.700824 0.278391 -0.738668
C20   C     C_R   0.521469 0.500422 0.653344 0.888230
C21   C     C_R   0.477907 0.511568 0.346500 0.860449
C22   C     C_R   0.535411 0.499198 0.739199 -0.096791
C23   C     C_R   0.461731 0.532277 0.260282 -0.128222
C24   C     C_R   0.428277 0.588743 0.781471 0.020516
C25   C     C_R   0.597406 0.579023 0.219658 0.045643
C26   C     C_R   0.440393 0.578103 0.863352 -0.202407
H1    H     H_    0.696576 0.587338 0.106781 0.153255
H2    H     H_    0.806201 0.614252 0.305407 0.234006
H3    H     H_    0.821291 0.705708 0.213337 0.201945
H4    H     H_    0.190937 0.890490 0.619255 0.273203
H5    H     H_    0.172496 0.983604 0.712905 0.253230
H6    H     H_    0.323834 0.045577 0.648331 0.247495
H7    H     H_    0.457967 0.896369 0.759846 0.218734
H8    H     H_    0.475001 0.803576 0.666994 0.214052
H9    H     H_    0.220463 0.644658 0.696486 0.233491
H10   H     H_    0.218773 0.739526 0.786871 0.188964
H11   H     H_    0.881153 0.304280 0.768091 0.223215
H12   H     H_    0.361352 0.647693 0.896500 0.153151
H13   H     H_    0.785877 0.114979 0.676587 0.240961
H14   H     H_    0.674867 0.101801 0.764269 0.222254
H15   H     H_    0.580013 0.189805 0.675220 0.231794
H16   H     H_    0.117864 0.465634 0.287456 0.243008
H17   H     H_    0.093457 0.774056 0.229060 0.230035
H18   H     H_    0.264280 0.747700 0.301357 0.226524
H19   H     H_    0.063367 0.704911 0.327965 0.235133
H20   H     H_    0.756825 0.328672 0.894289 0.147982
H21   H     H_    0.183694 0.481056 0.101293 0.153138
H22   H     H_    0.858184 0.864344 0.381440 0.270061
H23   H     H_    0.891296 0.951709 0.287134 0.254671
H24   H     H_    0.741545 0.028209 0.348597 0.254646
H25   H     H_    0.600953 0.887005 0.237375 0.220528
H26   H     H_    0.571234 0.801091 0.330967 0.210078
N1    N     N_1   0.073640 0.500030 0.499990 -0.048199
N2    N     N_1   0.926360 0.499970 0.500010 -0.044889
N3    N     N_2   0.567429 0.471458 0.986496 -0.188455
N4    N     N_2   0.432505 0.493903 0.014143 -0.189799
N5    N     N_2   0.765374 0.316068 0.738846 -0.281537
N6    N     N_2   0.156589 0.547678 0.250323 -0.305573
O1    O     O_R   0.636850 0.285340 0.500000 -0.604612
O2    O     O_R   0.363150 0.714660 0.500000 -0.618785
O3    O     O_R   0.363100 0.285350 0.500000 -0.613526
O4    O     O_R   0.636900 0.714650 0.500000 -0.620107
O5    O     O_R   0.652140 0.498630 0.616140 -0.590972
O6    O     O_R   0.347860 0.501370 0.383860 -0.616430
O7    O     O_R   0.378390 0.498650 0.616130 -0.629174
O8    O     O_R   0.621610 0.501350 0.383870 -0.623823
Zn1   Zn    Zn3+2 0.682780 0.499990 0.500010 0.974929
Zn2   Zn    Zn3+2 0.317220 0.500010 0.499990 0.959479

loop_
_geom_bond_atom_site_label_1
_geom_bond_atom_site_label_2
_ccdc_geom_bond_type
C2    C4    A    
N3    N4    D    
C19   H19   S    
C2    H1    S    
C16   H7    S    
C19   H17   S    
C7    C22   A    
C12   O4    A    
C9    C10   T    
C20   O7    A    
C18   N5    S    
C18   H13   S    
O7    Zn2   S    
C16   H8    S    
H16   N6    S    
C20   O5    A    
C1    O1    A    
O8    Zn1   S    
C13   H25   S    
C13   C14   S    
C4    N4    S    
C17   H4    S    
C11   C13   S    
O3    Zn2   S    
O2    Zn2   S    
C14   H24   S    
C10   C12   S    
C11   H2    S    
C6    C8    A    
O4    Zn1   S    
C15   H9    S    
C15   C24   S    
C24   C26   A    
C2    C25   A    
O5    Zn1   S    
O1    Zn1   S    
C23   C25   A    
C19   N6    S    
C17   H5    S    
C22   C24   A    
C14   H23   S    
C6    H21   S    
C11   C25   S    
C1    O3    A    
C15   C16   S    
C13   H26   S    
O6    Zn2   S    
C15   H10   S    
C8    C23   A    
C1    C9    S    
C19   H18   S    
C11   H3    S    
C4    C6    A    
C5    H20   S    
C18   H15   S    
C17   H6    S    
C5    C7    A    
N1    Zn2   S    
C18   H14   S    
C26   H12   S    
C21   O6    A    
C14   H22   S    
N2    Zn1   S    
C8    N6    S    
N1    N2    T    
C3    N3    S    
C21   C23   S    
C7    N5    S    
C3    C26   A    
H11   N5    S    
C20   C22   S    
C16   C17   S    
C3    C5    A    
C21   O8    A    
C12   O2    A    
