data_mof_unit_62964.cif
_audit_creation_date              2012-10-26T17:46:22-0400
_audit_creation_method            fapswitch 2.2
_symmetry_space_group_name_H-M    P1
_symmetry_Int_Tables_number       1
_space_group_crystal_system       triclinic
_cell_length_a                    41.56744
_cell_length_b                    35.647274
_cell_length_c                    21.386369
_cell_angle_alpha                 90.001742
_cell_angle_beta                  59.044656
_cell_angle_gamma                 90.020826
_cell_volume                      27175.9929884

loop_
_atom_site_label
_atom_site_type_symbol
_atom_type_description
_atom_site_fract_x
_atom_site_fract_y
_atom_site_fract_z
_atom_type_partial_charge
C1    C     C_R   0.927624 0.499993 0.072384 0.547558
C2    C     C_R   0.326942 0.499945 0.729662 -0.114439
C3    C     C_R   0.000036 0.807208 0.499961 0.037416
C4    C     C_1   0.500045 0.266875 0.499951 -0.032243
C5    C     C_1   0.000043 0.766875 0.499953 -0.032246
C6    C     C_1   0.000045 0.733077 0.499953 -0.032499
C7    C     C_1   0.500046 0.233077 0.499950 -0.032496
C8    C     C_R   0.966066 0.673079 0.533831 -0.115417
C9    C     C_R   0.034002 0.673090 0.466098 -0.115357
C10   C     C_R   0.466067 0.173079 0.533942 -0.115389
C11   C     C_R   0.534003 0.173090 0.465984 -0.115383
C12   C     C_R   0.966015 0.633869 0.533883 -0.132981
C13   C     C_R   0.173057 0.999884 0.270336 -0.114429
C14   C     C_R   0.034034 0.633880 0.466066 -0.132595
C15   C     C_R   0.466016 0.133870 0.533994 -0.132766
C16   C     C_R   0.534034 0.133880 0.465954 -0.132812
C17   C     C_R   0.000019 0.613836 0.499980 0.010275
C18   C     C_R   0.500020 0.113836 0.499979 0.010248
C19   C     C_3   0.995487 0.535079 0.275310 -0.115250
C20   C     C_3   0.998116 0.535309 0.731081 -0.115102
C21   C     C_3   0.502106 0.035300 0.268701 -0.115109
C22   C     C_3   0.498427 0.035324 0.730769 -0.115092
C23   C     C_R   0.000038 0.692745 0.499960 0.037044
C24   C     C_R   0.826942 0.999945 0.729664 -0.114421
C25   C     C_R   0.500040 0.192745 0.499958 0.037041
C26   C     C_R   0.499951 0.672976 0.443440 -0.114428
C27   C     C_R   0.499988 0.672978 0.556627 -0.114426
C28   C     C_R   0.999950 0.172976 0.443441 -0.114425
C29   C     C_R   0.999987 0.172978 0.556628 -0.114425
C30   C     C_R   0.499964 0.633761 0.443356 -0.130251
C31   C     C_R   0.500001 0.633762 0.556684 -0.130252
C32   C     C_R   0.999963 0.133761 0.443356 -0.130250
C33   C     C_R   0.000000 0.133763 0.556685 -0.130252
C34   C     C_R   0.499989 0.613704 0.500013 0.012838
C35   C     C_R   0.633846 0.499875 0.309480 -0.130242
C36   C     C_R   0.999988 0.113704 0.500013 0.012838
C37   C     C_R   0.499963 0.692645 0.500040 0.037393
C38   C     C_R   0.999962 0.192645 0.500041 0.037393
C39   C     C_1   0.499955 0.732992 0.500048 -0.032400
C40   C     C_1   0.999954 0.232992 0.500049 -0.032396
C41   C     C_1   0.999952 0.266797 0.500050 -0.032667
C42   C     C_1   0.499954 0.766797 0.500049 -0.032671
C43   C     C_R   0.965998 0.326806 0.533984 -0.115440
C44   C     C_R   0.033930 0.326817 0.466090 -0.115423
C45   C     C_R   0.465999 0.826806 0.534015 -0.115433
C46   C     C_R   0.366154 0.499911 0.690520 -0.130255
C47   C     C_R   0.533931 0.826817 0.466058 -0.115435
C48   C     C_R   0.965967 0.366022 0.534014 -0.132773
C49   C     C_R   0.033982 0.366031 0.466038 -0.132433
C50   C     C_R   0.465968 0.866022 0.534046 -0.132596
C51   C     C_R   0.533982 0.866032 0.466007 -0.132605
C52   C     C_R   0.999980 0.386074 0.500020 0.011586
C53   C     C_R   0.499980 0.886073 0.500021 0.011605
C54   C     C_3   0.000048 0.499771 0.310950 0.045070
C55   C     C_3   0.000027 0.499755 0.688973 0.045072
C56   C     C_3   0.499970 0.999757 0.311030 0.045071
C57   C     C_R   0.133845 0.999875 0.309479 -0.130250
C58   C     C_3   0.500023 0.999754 0.688976 0.045071
C59   C     C_R   0.999959 0.307143 0.500042 0.037070
C60   C     C_R   0.499961 0.807143 0.500042 0.037069
C61   C     C_3   0.971789 0.478176 0.298856 -0.121537
C62   C     C_3   0.031756 0.483683 0.697592 -0.123116
C63   C     C_3   0.468139 0.983861 0.302511 -0.123163
C64   C     C_3   0.531608 0.983401 0.697741 -0.123039
C65   C     C_3   0.004631 0.464533 0.224697 -0.124855
C66   C     C_3   0.001932 0.464277 0.768739 -0.124984
C67   C     C_3   0.497840 0.964291 0.231485 -0.124977
C68   C     C_R   0.866155 0.999911 0.690521 -0.130244
C69   C     C_3   0.501613 0.964261 0.769058 -0.124993
C70   C     C_3   0.032911 0.486126 0.237769 -0.123627
C71   C     C_3   0.970212 0.480346 0.759113 -0.122198
C72   C     C_3   0.529661 0.980184 0.241012 -0.122143
C73   C     C_3   0.470036 0.980611 0.759288 -0.122283
C74   C     C_3   0.028355 0.521426 0.201018 -0.118886
C75   C     C_3   0.968303 0.515913 0.802352 -0.117208
C76   C     C_3   0.531794 0.015740 0.197551 -0.117174
C77   C     C_3   0.468442 0.016192 0.802211 -0.117290
C78   C     C_R   0.613797 0.499878 0.386213 0.012896
C79   C     C_R   0.386203 0.499901 0.613787 0.012898
C80   C     C_R   0.113797 0.999878 0.386212 0.012897
C81   C     C_R   0.072376 0.500006 0.927616 0.547670
C82   C     C_R   0.886203 0.999901 0.613788 0.012897
C83   C     C_R   0.633856 0.499886 0.422840 -0.130236
C84   C     C_R   0.366144 0.499922 0.577160 -0.130248
C85   C     C_R   0.133856 0.999886 0.422837 -0.130247
C86   C     C_R   0.866144 0.999923 0.577162 -0.130241
C87   C     C_R   0.673068 0.499894 0.383557 -0.114417
C88   C     C_R   0.326932 0.499956 0.616443 -0.114438
C89   C     C_R   0.173068 0.999894 0.383553 -0.114435
C90   C     C_R   0.826931 0.999957 0.616447 -0.114427
C91   C     C_R   0.692726 0.499894 0.307285 0.037407
C92   C     C_R   0.427624 0.999993 0.072381 0.547619
C93   C     C_R   0.307274 0.499970 0.692715 0.037407
C94   C     C_R   0.192726 0.999895 0.307281 0.037406
C95   C     C_R   0.807274 0.999970 0.692719 0.037408
C96   C     C_1   0.733064 0.499911 0.266948 -0.032293
C97   C     C_1   0.266936 0.500002 0.733052 -0.032344
C98   C     C_1   0.233064 0.999911 0.266942 -0.032325
C99   C     C_1   0.766936 0.000001 0.733058 -0.032311
C100  C     C_1   0.766865 0.499925 0.233148 -0.032551
C101  C     C_1   0.233135 0.500019 0.766852 -0.032607
C102  C     C_1   0.266864 0.999926 0.233141 -0.032585
C103  C     C_R   0.572376 0.000006 0.927619 0.547613
C104  C     C_1   0.733136 0.000019 0.766859 -0.032572
C105  C     C_R   0.826865 0.533919 0.173166 -0.115475
C106  C     C_R   0.173146 0.533989 0.826844 -0.115478
C107  C     C_R   0.326865 0.033919 0.173122 -0.115483
C108  C     C_R   0.673146 0.033989 0.826826 -0.115471
C109  C     C_R   0.000050 0.499977 0.120558 0.558976
C110  C     C_R   0.000007 0.499974 0.879384 0.558983
C111  C     C_R   0.499991 0.999975 0.120618 0.558981
C112  C     C_R   0.500004 0.999974 0.879387 0.558982
C113  C     C_R   0.866077 0.533976 0.133953 -0.133387
C114  C     C_3   0.000080 0.499860 0.188958 0.045094
C115  C     C_R   0.133933 0.534027 0.866058 -0.133327
C116  C     C_R   0.366077 0.033976 0.133910 -0.133369
C117  C     C_R   0.633933 0.034027 0.866040 -0.133387
C118  C     C_R   0.886120 0.499976 0.113892 0.010800
C119  C     C_R   0.113880 0.500016 0.886108 0.011191
C120  C     C_R   0.386120 0.999977 0.113885 0.011015
C121  C     C_R   0.613880 0.000016 0.886115 0.010983
C122  C     C_R   0.866078 0.465960 0.133917 -0.132053
C123  C     C_R   0.133913 0.466010 0.866073 -0.132038
C124  C     C_R   0.366078 0.965960 0.133944 -0.132034
C125  C     C_3   0.000026 0.499849 0.810934 0.045096
C126  C     C_R   0.633912 0.966010 0.866106 -0.132016
C127  C     C_R   0.826866 0.465984 0.173130 -0.115304
C128  C     C_R   0.173124 0.466054 0.826860 -0.115350
C129  C     C_R   0.326866 0.965985 0.173156 -0.115326
C130  C     C_R   0.673123 0.966054 0.826895 -0.115324
C131  C     C_R   0.807202 0.499943 0.192811 0.037073
C132  C     C_R   0.192798 0.500023 0.807189 0.037087
C133  C     C_R   0.307202 0.999943 0.192802 0.037082
C134  C     C_R   0.692798 0.000023 0.807198 0.037080
C135  C     C_R   0.000006 0.572336 0.499994 0.547485
C136  C     C_3   0.499970 0.999852 0.189070 0.045093
C137  C     C_R   0.500007 0.072336 0.499993 0.547480
C138  C     C_R   0.000007 0.499839 0.379415 0.558960
C139  C     C_R   0.000006 0.499829 0.620572 0.558954
C140  C     C_R   0.499994 0.999829 0.379428 0.558955
C141  C     C_R   0.500005 0.999828 0.620573 0.558954
C142  C     C_R   0.999993 0.427586 0.500006 0.547648
C143  C     C_R   0.499993 0.927586 0.500007 0.547649
C144  C     C_R   0.499998 0.572176 0.500002 0.550822
C145  C     C_R   0.999998 0.072176 0.500002 0.550823
C146  C     C_R   0.572275 0.499882 0.427735 0.550861
C147  C     C_3   0.500021 0.999849 0.810939 0.045094
C148  C     C_R   0.427725 0.499886 0.572265 0.550853
C149  C     C_R   0.072275 0.999882 0.427735 0.550856
C150  C     C_R   0.927725 0.999886 0.572265 0.550858
C151  C     C_3   0.967231 0.513505 0.262069 -0.116634
C152  C     C_3   0.029848 0.519236 0.740816 -0.118180
C153  C     C_3   0.470272 0.019402 0.259067 -0.118222
C154  C     C_3   0.530013 0.018971 0.740653 -0.118089
C155  C     C_R   0.500002 0.427647 0.499997 0.550825
C156  C     C_R   0.000002 0.927647 0.499998 0.550824
C157  C     C_R   0.500027 0.326868 0.556585 -0.114419
C158  C     C_R   0.673058 0.499883 0.270338 -0.114418
C159  C     C_R   0.500034 0.326867 0.443348 -0.114419
C160  C     C_R   0.000031 0.826868 0.556581 -0.114421
C161  C     C_R   0.000028 0.826867 0.443354 -0.114421
C162  C     C_R   0.500015 0.366078 0.556669 -0.130231
C163  C     C_R   0.500021 0.366077 0.443290 -0.130233
C164  C     C_R   0.000019 0.866078 0.556665 -0.130232
C165  C     C_R   0.000015 0.866077 0.443296 -0.130234
C166  C     C_R   0.500011 0.386129 0.499987 0.012905
C167  C     C_R   0.000011 0.886129 0.499987 0.012905
C168  C     C_R   0.500038 0.307208 0.499959 0.037416
Cu1   Cu    Cu3+1 0.000000 0.462740 0.000000 0.912530
Cu2   Cu    Cu3+1 0.500000 0.499910 0.437240 0.915269
Cu3   Cu    Cu3+1 0.000000 0.999910 0.562760 0.915269
Cu4   Cu    Cu3+1 0.000000 0.999910 0.437240 0.915269
Cu5   Cu    Cu3+1 0.500000 0.962740 0.000000 0.912469
Cu6   Cu    Cu3+1 0.000000 0.537260 0.000000 0.916249
Cu7   Cu    Cu3+1 0.500000 0.037260 0.000000 0.916310
Cu8   Cu    Cu3+1 0.037270 0.499960 0.462740 0.913797
Cu9   Cu    Cu3+1 0.962730 0.499960 0.537260 0.914853
Cu10  Cu    Cu3+1 0.537270 0.999960 0.462740 0.914376
Cu11  Cu    Cu3+1 0.462730 0.999960 0.537260 0.914274
Cu12  Cu    Cu3+1 0.500000 0.499910 0.562760 0.915269
H1    H     H_    0.991751 0.563951 0.297474 0.110158
H2    H     H_    0.188127 0.560442 0.811864 0.110908
H3    H     H_    0.311892 0.060365 0.188081 0.110949
H4    H     H_    0.688127 0.060442 0.811827 0.110963
H5    H     H_    0.880659 0.560630 0.119384 0.127773
H6    H     H_    0.119358 0.560672 0.880635 0.127472
H7    H     H_    0.380659 0.060630 0.119314 0.127617
H8    H     H_    0.619358 0.060672 0.880596 0.127619
H9    H     H_    0.880660 0.439318 0.119321 0.127974
H10   H     H_    0.119323 0.439361 0.880660 0.127741
H11   H     H_    0.380660 0.939318 0.119376 0.127834
H12   H     H_    0.996557 0.564380 0.714207 0.109995
H13   H     H_    0.619323 0.939361 0.880714 0.127885
H14   H     H_    0.811894 0.439525 0.188089 0.110909
H15   H     H_    0.188087 0.439603 0.811895 0.110826
H16   H     H_    0.311893 0.939526 0.188142 0.110855
H17   H     H_    0.688087 0.939603 0.811950 0.110874
H18   H     H_    0.500029 0.311895 0.600673 0.110817
H19   H     H_    0.500041 0.311892 0.399250 0.110817
H20   H     H_    0.000037 0.811895 0.600666 0.110815
H21   H     H_    0.000030 0.811892 0.399261 0.110813
H22   H     H_    0.500007 0.380643 0.601107 0.128486
H23   H     H_    0.503849 0.064362 0.285394 0.110003
H24   H     H_    0.500019 0.380641 0.398862 0.128483
H25   H     H_    0.000016 0.880643 0.601099 0.128485
H26   H     H_    0.000010 0.880641 0.398872 0.128482
H27   H     H_    0.939617 0.688047 0.560200 0.111078
H28   H     H_    0.060458 0.688068 0.439722 0.111036
H29   H     H_    0.439618 0.188048 0.560399 0.111057
H30   H     H_    0.560459 0.188067 0.439518 0.111070
H31   H     H_    0.939364 0.619283 0.560454 0.128200
H32   H     H_    0.060677 0.619302 0.439505 0.128221
H33   H     H_    0.439364 0.119284 0.560654 0.128239
H34   H     H_    0.497126 0.064407 0.713637 0.109983
H35   H     H_    0.560678 0.119301 0.439301 0.128217
H36   H     H_    0.499932 0.687948 0.399367 0.110682
H37   H     H_    0.499999 0.687950 0.600709 0.110681
H38   H     H_    0.999931 0.187947 0.399367 0.110686
H39   H     H_    0.999998 0.187950 0.600710 0.110683
H40   H     H_    0.940345 0.524704 0.270588 0.111789
H41   H     H_    0.054265 0.535151 0.734717 0.113718
H42   H     H_    0.445956 0.035453 0.265066 0.113814
H43   H     H_    0.554569 0.034670 0.734419 0.113630
H44   H     H_    0.499953 0.619195 0.398936 0.128365
H45   H     H_    0.688045 0.499902 0.412671 0.110779
H46   H     H_    0.500020 0.619197 0.601094 0.128362
H47   H     H_    0.999953 0.119195 0.398937 0.128367
H48   H     H_    0.000020 0.119197 0.601094 0.128363
H49   H     H_    0.939541 0.311831 0.560426 0.110794
H50   H     H_    0.060380 0.311850 0.439656 0.110760
H51   H     H_    0.439542 0.811831 0.560482 0.110764
H52   H     H_    0.560381 0.811850 0.439600 0.110780
H53   H     H_    0.939323 0.380599 0.560642 0.127267
H54   H     H_    0.060634 0.380615 0.439401 0.127356
H55   H     H_    0.439323 0.880599 0.560699 0.127284
H56   H     H_    0.311955 0.499973 0.587329 0.110737
H57   H     H_    0.560634 0.880616 0.439345 0.127309
H58   H     H_    0.948628 0.460442 0.340212 0.118346
H59   H     H_    0.057753 0.470439 0.653468 0.120812
H60   H     H_    0.442058 0.970760 0.346716 0.120888
H61   H     H_    0.557486 0.969928 0.653733 0.120717
H62   H     H_    0.008405 0.435580 0.202877 0.123853
H63   H     H_    0.003507 0.435117 0.785198 0.124075
H64   H     H_    0.496078 0.935141 0.215208 0.124064
H65   H     H_    0.502928 0.935088 0.785778 0.124091
H66   H     H_    0.059830 0.474863 0.228969 0.121724
H67   H     H_    0.188046 0.999902 0.412666 0.110742
H68   H     H_    0.945788 0.464387 0.765349 0.119405
H69   H     H_    0.553982 0.964090 0.234881 0.119321
H70   H     H_    0.445473 0.964867 0.765664 0.119511
H71   H     H_    0.051518 0.539129 0.159579 0.114671
H72   H     H_    0.942327 0.529098 0.846654 0.112529
H73   H     H_    0.557853 0.028782 0.153166 0.112448
H74   H     H_    0.442583 0.029607 0.846393 0.112603
H75   H     H_    0.688028 0.499883 0.211278 0.110772
H76   H     H_    0.311972 0.499954 0.788722 0.110728
H77   H     H_    0.188026 0.999884 0.211276 0.110755
H78   H     H_    0.811954 0.999973 0.587333 0.110754
H79   H     H_    0.811974 0.999954 0.788724 0.110766
H80   H     H_    0.619276 0.499869 0.279619 0.128426
H81   H     H_    0.380724 0.499896 0.720380 0.128409
H82   H     H_    0.119275 0.999869 0.279619 0.128418
H83   H     H_    0.880725 0.999896 0.720381 0.128424
H84   H     H_    0.619294 0.499888 0.481831 0.128438
H85   H     H_    0.380706 0.499916 0.518169 0.128421
H86   H     H_    0.119295 0.999888 0.481829 0.128423
H87   H     H_    0.880705 0.999916 0.518171 0.128429
H88   H     H_    0.811892 0.560365 0.188153 0.111000
O1    O     O_R   0.945630 0.468530 0.054370 -0.511878
O2    O     O_R   0.445630 0.499880 0.607360 -0.510430
O3    O     O_R   0.054370 0.999880 0.392640 -0.510429
O4    O     O_R   0.945630 0.999880 0.607360 -0.510425
O5    O     O_R   0.500000 0.445540 0.553030 -0.510426
O6    O     O_R   0.500000 0.445540 0.446970 -0.510424
O7    O     O_R   0.000000 0.945540 0.553030 -0.510427
O8    O     O_R   1.000000 0.945540 0.446970 -0.510425
O9    O     O_R   0.945630 0.531470 0.054380 -0.512909
O10   O     O_R   0.054370 0.531470 0.945620 -0.513330
O11   O     O_R   0.445630 0.031470 0.054380 -0.513162
O12   O     O_R   0.054370 0.468530 0.945630 -0.512345
O13   O     O_R   0.554370 0.031470 0.945620 -0.513108
O14   O     O_R   0.000010 0.468530 0.091570 -0.512544
O15   O     O_R   0.999990 0.468530 0.908430 -0.512647
O16   O     O_R   0.500010 0.968530 0.091570 -0.512647
O17   O     O_R   0.499990 0.968530 0.908430 -0.512653
O18   O     O_R   0.000010 0.531470 0.091580 -0.509365
O19   O     O_R   0.999990 0.531470 0.908420 -0.509268
O20   O     O_R   0.500010 0.031470 0.091580 -0.509268
O21   O     O_R   0.499990 0.031470 0.908420 -0.509262
O22   O     O_R   0.031460 0.554330 0.468560 -0.511660
O23   O     O_R   0.445630 0.968530 0.054370 -0.512106
O24   O     O_R   0.968540 0.554330 0.531440 -0.511966
O25   O     O_R   0.531460 0.054330 0.468560 -0.511788
O26   O     O_R   0.468540 0.054330 0.531440 -0.511784
O27   O     O_R   0.031470 0.499960 0.376970 -0.511539
O28   O     O_R   0.968530 0.499960 0.623030 -0.510602
O29   O     O_R   0.531470 0.999960 0.376970 -0.510604
O30   O     O_R   0.468530 0.999960 0.623030 -0.510679
O31   O     O_R   0.968530 0.499940 0.439910 -0.510228
O32   O     O_R   0.031470 0.499940 0.560090 -0.511155
O33   O     O_R   0.468530 0.999940 0.439910 -0.511154
O34   O     O_R   0.554370 0.968530 0.945630 -0.512083
O35   O     O_R   0.531470 0.999940 0.560090 -0.511078
O36   O     O_R   0.031490 0.445590 0.468510 -0.513254
O37   O     O_R   0.968510 0.445590 0.531490 -0.513515
O38   O     O_R   0.531490 0.945590 0.468510 -0.513431
O39   O     O_R   0.468510 0.945590 0.531490 -0.513394
O40   O     O_R   0.500010 0.554270 0.552980 -0.510420
O41   O     O_R   0.499990 0.554270 0.447020 -0.510422
O42   O     O_R   0.000010 0.054270 0.552980 -0.510419
O43   O     O_R   0.999990 0.054270 0.447020 -0.510422
O44   O     O_R   0.554380 0.499900 0.498630 -0.510424
O45   O     O_R   0.445620 0.499900 0.501370 -0.510430
O46   O     O_R   0.054380 0.999900 0.498630 -0.510429
O47   O     O_R   0.945620 0.999900 0.501370 -0.510426
O48   O     O_R   0.554370 0.499880 0.392640 -0.510424

loop_
_geom_bond_atom_site_label_1
_geom_bond_atom_site_label_2
_ccdc_geom_bond_type
C87   C91   A    
C111  O16   A    
C57   C80   A    
C19   H1    S    
C90   C95   A    
C105  C131  A    
Cu5   O16   S    
C105  H88   S    
C106  C132  A    
Cu4   O43   S    
C62   C152  S    
C4    C7    T    
C5    C6    T    
C56   C140  S    
C95   C99   S    
C74   C114  S    
C55   C62   S    
C29   C33   A    
C8    C23   A    
C55   C139  S    
C89   C94   A    
Cu11  O33   S    
C91   C96   S    
C56   C72   S    
C70   C74   S    
Cu1   Cu6   S    
C77   C147  S    
C152  H41   S    
C130  C134  A    
Cu4   O3    S    
C157  C168  A    
C164  C167  A    
C57   H82   S    
C50   C53   A    
C108  H4    S    
Cu4   O47   S    
C27   C31   A    
C28   C32   A    
C63   C153  S    
C86   C90   A    
C150  O4    A    
C115  H6    S    
C62   C66   S    
C64   H61   S    
Cu3   O46   S    
C98   C102  T    
C62   H59   S    
C4    C168  S    
C16   H35   S    
C1    O9    A    
C143  O39   A    
C54   C70   S    
C32   H47   S    
C41   C59   S    
C129  C133  A    
C69   H65   S    
C69   C147  S    
C143  O38   A    
C75   H72   S    
C103  C121  S    
C160  C164  A    
C122  H9    S    
C141  O35   A    
C35   C78   A    
C84   C88   A    
C22   C58   S    
C67   H64   S    
C79   C148  S    
C54   C61   S    
C119  C123  A    
C81   C119  S    
Cu3   O42   S    
C13   C94   A    
C67   C136  S    
C139  O32   A    
C136  C153  S    
C126  H13   S    
C46   C79   A    
C45   C50   A    
C127  C131  A    
C156  O8    A    
Cu3   O7    S    
C78   C146  S    
C101  C132  S    
C89   H67   S    
C48   C52   A    
Cu9   O28   S    
C107  C133  A    
C107  H3    S    
C94   C98   S    
Cu11  O26   S    
Cu1   O15   S    
C157  C162  A    
C124  H11   S    
C55   C71   S    
C15   C18   A    
C51   C53   A    
C40   C41   T    
C21   H23   S    
C58   C141  S    
C15   H33   S    
C33   C36   A    
Cu10  Cu11  S    
C106  C115  A    
C149  O46   A    
C49   H54   S    
C104  C134  S    
C162  H22   S    
C32   C36   A    
C105  C113  A    
Cu10  O38   S    
C79   C84   A    
C111  C136  S    
C1    O1    A    
C66   H63   S    
C11   C25   A    
C44   C59   A    
C65   C70   S    
Cu6   O18   S    
C67   C72   S    
C118  C122  A    
C122  C127  A    
C13   H77   S    
C91   C158  A    
C21   C76   S    
C145  O42   A    
C29   C38   A    
C17   C135  S    
C19   C151  S    
C111  O20   A    
C146  O44   A    
C72   H69   S    
C48   H53   S    
C43   C59   A    
C165  C167  A    
Cu5   O34   S    
C112  O21   A    
C14   C17   A    
Cu3   O4    S    
Cu8   O27   S    
C155  O6    A    
Cu5   Cu7   S    
Cu2   O41   S    
C58   C64   S    
C80   C149  S    
C116  H7    S    
C30   C34   A    
C3    C161  A    
C9    C23   A    
C47   H52   S    
C116  C120  A    
C20   C75   S    
Cu8   O36   S    
C8    H27   S    
Cu12  O5    S    
C61   C65   S    
C8    C12   A    
C113  H5    S    
Cu10  O25   S    
C31   C34   A    
C64   C69   S    
C123  H10   S    
C61   C151  S    
C109  C114  S    
C109  O18   A    
C19   C54   S    
C26   C30   A    
C115  C119  A    
C112  O17   A    
C93   C97   S    
C10   C25   A    
C141  O30   A    
C142  O36   A    
C85   H86   S    
C12   H31   S    
C138  O27   A    
C117  H8    S    
C140  O29   A    
C153  H42   S    
C112  C147  S    
C68   C82   A    
C92   C120  S    
C102  C133  S    
C96   C100  T    
Cu10  O29   S    
C161  C165  A    
C107  C116  A    
C36   C145  S    
Cu6   O9    S    
C31   H46   S    
Cu12  O2    S    
C83   C87   A    
Cu12  O40   S    
C128  H15   S    
C46   H81   S    
C34   C144  S    
C61   H58   S    
C86   H87   S    
C137  O26   A    
Cu7   O11   S    
C11   H30   S    
C22   C154  S    
C126  C130  A    
C26   H36   S    
C154  H43   S    
C73   C77   S    
C162  C166  A    
C78   C83   A    
C103  O34   A    
C110  O19   A    
C12   C17   A    
C114  C151  S    
C69   C73   S    
C130  H17   S    
C135  O24   A    
C155  O5    A    
C159  H19   S    
C99   C104  T    
C71   H68   S    
Cu11  O39   S    
C35   H80   S    
Cu4   O8    S    
C74   H71   S    
C39   C42   T    
C2    C93   A    
C163  H24   S    
C81   O10   A    
Cu7   O21   S    
C163  C166  A    
C24   C95   A    
C63   H60   S    
C85   C89   A    
C47   C51   A    
C82   C86   A    
C20   C152  S    
Cu10  O35   S    
C75   C125  S    
C9    C14   A    
C108  C134  A    
C80   C85   A    
C11   C16   A    
C66   C71   S    
C49   C52   A    
Cu1   O12   S    
C70   H66   S    
Cu2   O45   S    
C27   H37   S    
C129  H16   S    
C150  O47   A    
Cu8   O32   S    
C19   C74   S    
C22   C77   S    
C3    C5    S    
C9    H28   S    
C20   H12   S    
C21   C56   S    
C43   H49   S    
C26   C37   A    
C7    C25   S    
C14   H32   S    
C164  H25   S    
C35   C158  A    
C37   C39   S    
C38   C40   S    
C109  O14   A    
C139  O28   A    
Cu6   O19   S    
C108  C117  A    
C124  C129  A    
Cu7   O20   S    
C135  O22   A    
C24   C68   A    
C13   C57   A    
Cu9   O31   S    
C151  H40   S    
C138  O31   A    
C144  O40   A    
C140  O33   A    
C44   C49   A    
Cu3   Cu4   S    
C45   C60   A    
Cu1   O1    S    
C18   C137  S    
C81   O12   A    
C65   C114  S    
C72   C76   S    
C33   H48   S    
C76   C136  S    
C100  C131  S    
C160  H20   S    
C2    C46   A    
C24   H79   S    
C161  H21   S    
C157  H18   S    
C10   C15   A    
C155  C166  S    
C64   C154  S    
C159  C168  A    
Cu1   O14   S    
C147  C154  S    
C44   H50   S    
C158  H75   S    
C106  H2    S    
C156  O7    A    
C117  C121  A    
C148  O45   A    
Cu12  O44   S    
C87   H45   S    
C165  H26   S    
C47   C60   A    
C83   H84   S    
C20   C55   S    
C128  C132  A    
C88   H56   S    
C63   C67   S    
C142  O37   A    
C148  O2    A    
C149  O3    A    
C127  H14   S    
C42   C60   S    
C144  O41   A    
C30   H44   S    
C110  O15   A    
C156  C167  S    
C52   C142  S    
Cu2   Cu12  S    
C53   C143  S    
C125  C152  S    
C145  O43   A    
C10   H29   S    
C28   C38   A    
C56   C63   S    
C51   H57   S    
C76   H73   S    
C82   C150  S    
Cu8   Cu9   S    
Cu6   O10   S    
C22   H34   S    
C3    C160  A    
C159  C163  A    
Cu8   O22   S    
Cu2   O6    S    
C73   H70   S    
C43   C48   A    
Cu2   O48   S    
C88   C93   A    
Cu9   O24   S    
C28   H38   S    
Cu11  O30   S    
C77   H74   S    
C2    H76   S    
Cu7   O13   S    
C65   H62   S    
C66   C125  S    
C92   O11   A    
C137  O25   A    
C121  C126  A    
C21   C153  S    
C71   C75   S    
C123  C128  A    
C54   C138  S    
C27   C37   A    
C6    C23   S    
C92   O23   A    
C146  O48   A    
C84   H85   S    
Cu9   O37   S    
C1    C118  S    
Cu5   O23   S    
C50   H55   S    
C110  C125  S    
C113  C118  A    
C29   H39   S    
Cu5   O17   S    
C16   C18   A    
C45   H51   S    
C103  O13   A    
C68   H83   S    
C97   C101  T    
C120  C124  A    
C58   C73   S    
C90   H78   S    
