data_mof_unit_30439.cif
_audit_creation_date              2012-12-10T18:21:22-0500
_audit_creation_method            fapswitch 2.2
_symmetry_space_group_name_H-M    P1
_symmetry_Int_Tables_number       1
_space_group_crystal_system       triclinic
_cell_length_a                    14.923961
_cell_length_b                    14.015359
_cell_length_c                    10.620489
_cell_angle_alpha                 90.240603
_cell_angle_beta                  90.364855
_cell_angle_gamma                 89.827033
_cell_volume                      2221.3565186

loop_
_atom_site_label
_atom_site_type_symbol
_atom_type_description
_atom_site_fract_x
_atom_site_fract_y
_atom_site_fract_z
_atom_type_partial_charge
C1    C     C_R   0.326875 0.500147 0.498676 0.951821
C2    C     C_3   0.585125 0.550122 0.928917 -0.391961
C3    C     C_R   0.812421 0.557420 0.414726 -0.268461
C4    C     C_R   0.768372 0.499614 0.499891 -0.088215
C5    C     C_R   0.814311 0.441794 0.584096 -0.186108
C6    C     C_R   0.907110 0.442471 0.585880 -0.031729
C7    C     C_R   0.953206 0.499812 0.498444 -0.015295
C8    C     C_R   0.905588 0.557073 0.410112 0.146361
C9    C     C_R   0.953701 0.387360 0.674482 0.552982
C10   C     C_R   0.047469 0.387468 0.677879 0.037832
C11   C     C_R   0.094110 0.442812 0.588044 0.022951
C12   C     C_R   0.499978 0.499679 0.257505 0.847795
C13   C     C_R   0.046545 0.499763 0.499449 -0.056023
C14   C     C_R   0.092598 0.556804 0.411495 0.003234
C15   C     C_R   0.045650 0.611663 0.323254 -0.199914
C16   C     C_R   0.952250 0.612300 0.320498 0.068692
C17   C     C_R   0.187306 0.442835 0.583411 -0.315969
C18   C     C_R   0.231479 0.500401 0.497939 -0.185703
C19   C     C_R   0.185491 0.557602 0.412545 0.562379
C20   C     C_R   0.551858 0.797809 0.415720 -0.047305
C21   C     C_R   0.551759 0.201312 0.415617 -0.050242
C22   C     C_R   0.448224 0.798384 0.584625 0.058334
C23   C     C_R   0.448229 0.202498 0.584644 0.039599
C24   C     C_R   0.446807 0.899159 0.587072 -0.220194
C25   C     C_R   0.446799 0.101752 0.587068 -0.214934
C26   C     C_R   0.673114 0.499861 0.500580 0.879289
C27   C     C_R   0.499841 0.949389 0.500499 0.004347
C28   C     C_R   0.499828 0.050617 0.500488 0.006030
C29   C     C_R   0.552951 0.898412 0.413840 0.082062
C30   C     C_R   0.552891 0.100688 0.413777 0.081236
C31   C     C_R   0.394001 0.950726 0.673365 0.546504
C32   C     C_R   0.393989 0.051093 0.673355 0.535430
C33   C     C_R   0.605607 0.049217 0.327674 -0.188325
C34   C     C_R   0.605657 0.948981 0.327726 -0.193174
C35   C     C_R   0.499997 0.499918 0.742521 0.826394
C36   C     C_3   0.415225 0.551275 0.071825 -0.350136
C37   C     C_3   0.499584 0.394693 0.070922 -0.387416
C38   C     C_3   0.415298 0.551581 0.927343 -0.411149
C39   C     C_3   0.499407 0.394855 0.928015 -0.376873
C40   C     C_3   0.585093 0.550066 0.073395 -0.410460
C41   C     C_3   0.499976 0.498923 0.121262 0.147231
C42   C     C_3   0.499961 0.499240 0.878834 0.165183
H1    H     H_    0.413567 0.626189 0.107055 0.209564
H2    H     H_    0.559819 0.355340 0.105496 0.179200
H3    H     H_    0.227305 0.399775 0.646725 0.168843
H4    H     H_    0.081938 0.653747 0.255112 0.203280
H5    H     H_    0.592274 0.757335 0.349996 0.120397
H6    H     H_    0.592069 0.241109 0.349786 0.128579
H7    H     H_    0.408052 0.758062 0.650017 0.175589
H8    H     H_    0.408054 0.243495 0.650045 0.170320
H9    H     H_    0.646815 0.086475 0.260292 0.142662
H10   H     H_    0.646911 0.911018 0.260397 0.137187
H11   H     H_    0.353718 0.515173 0.106160 0.184209
H12   H     H_    0.439174 0.356165 0.104663 0.189326
H13   H     H_    0.353774 0.515730 0.891101 0.154691
H14   H     H_    0.438817 0.356530 0.892934 0.185813
H15   H     H_    0.413885 0.626619 0.893342 0.200086
H16   H     H_    0.559461 0.355332 0.893807 0.189604
H17   H     H_    0.587201 0.625007 0.108486 0.178363
H18   H     H_    0.646357 0.513246 0.109044 0.162563
H19   H     H_    0.587451 0.625064 0.894757 0.187105
H20   H     H_    0.646259 0.513034 0.894003 0.163768
H21   H     H_    0.772510 0.600697 0.351495 0.147484
H22   H     H_    0.777123 0.398219 0.649733 0.198258
N1    N     N_R   0.500070 0.750030 0.500050 -0.115959
N2    N     N_R   0.500070 0.249970 0.500050 -0.116834
O1    O     O_R   0.367860 0.580280 0.500020 -0.572253
O2    O     O_R   0.367860 0.419720 0.500020 -0.632183
O3    O     O_R   0.500000 0.580270 0.314790 -0.619187
O4    O     O_R   0.500000 0.419730 0.314790 -0.633525
O5    O     O_R   0.632160 0.580270 0.499960 -0.622060
O6    O     O_R   0.632160 0.419730 0.499960 -0.618655
O7    O     O_R   0.500030 0.580270 0.685200 -0.636163
O8    O     O_R   0.500030 0.419730 0.685200 -0.638219
Zn1   Zn    Zn3+2 0.500020 0.607200 0.499990 0.970870
Zn2   Zn    Zn3+2 0.500020 0.392800 0.499990 0.944536
C43   C     C_3   0.095274 0.328945 0.778725 -0.329356
C44   C     C_3   0.134698 0.391534 0.884734 -0.378443
C45   C     C_3   0.061983 0.440299 0.962790 -0.767848
H23   H     H_    0.023090 0.491011 0.903673 0.259764
H24   H     H_    0.015869 0.386502 0.002956 0.273380
H25   H     H_    0.093471 0.480819 0.041444 0.237848
H26   H     H_    0.175531 0.345568 0.948100 0.223782
H27   H     H_    0.179802 0.446881 0.846182 0.218325
H28   H     H_    0.049562 0.275987 0.821688 0.255914
H29   H     H_    0.148909 0.284966 0.735337 0.179855
F1    F     F_    0.231509 0.611466 0.328545 -0.683158
C46   C     C_3   0.905371 0.671455 0.220097 -0.424415
C47   C     C_3   0.868372 0.607808 0.113891 -0.340163
C48   C     C_3   0.815460 0.666034 0.017637 -0.870828
H30   H     H_    0.756659 0.700338 0.063000 0.253716
H31   H     H_    0.858634 0.721848 0.975841 0.272659
H32   H     H_    0.791154 0.618348 0.941051 0.253816
H33   H     H_    0.925020 0.571844 0.065580 0.233736
H34   H     H_    0.823941 0.551636 0.151992 0.220244
H35   H     H_    0.851577 0.715640 0.262862 0.200437
H36   H     H_    0.952946 0.723094 0.177984 0.210602
F2    F     F_    0.342329 0.904081 0.757853 -0.629624
F3    F     F_    0.342280 0.098628 0.757794 -0.643125
F4    F     F_    0.907319 0.334906 0.759531 -0.690475

loop_
_geom_bond_atom_site_label_1
_geom_bond_atom_site_label_2
_ccdc_geom_bond_type
C12   O3    A    
C46   H35   S    
C35   O8    A    
C40   H18   S    
C21   N2    A    
C27   C29   A    
C26   O6    A    
C24   C27   A    
O6    Zn2   S    
C6    C9    A    
C7    C8    A    
C43   C44   S    
C25   C28   A    
C1    C18   S    
O8    Zn2   S    
C23   N2    A    
C17   H3    S    
C38   C42   S    
C19   F1    S    
C5    C6    A    
C15   C16   A    
C1    O2    A    
C18   C19   A    
C31   F2    S    
C47   H33   S    
C35   C42   S    
C36   H11   S    
C44   H26   S    
C11   C17   A    
C38   H13   S    
C31   C32   A    
C9    C10   A    
C46   H36   S    
C2    H19   S    
C21   H6    S    
C25   C32   A    
C43   H28   S    
C8    C16   A    
C40   H17   S    
C13   C14   A    
C26   O5    A    
O7    Zn1   S    
C36   C41   S    
C10   C43   S    
C17   C18   A    
C39   C42   S    
C20   C29   A    
C20   N1    A    
C3    C8    A    
C45   H24   S    
C44   C45   S    
C23   H8    S    
C39   H16   S    
C29   C34   A    
C5    H22   S    
C47   H34   S    
C22   N1    A    
C12   C41   S    
C2    C40   S    
C38   H15   S    
C48   H31   S    
C39   H14   S    
N2    Zn2   S    
C33   C34   A    
C22   H7    S    
C37   H12   S    
C40   C41   S    
C43   H29   S    
C9    F4    S    
O4    Zn2   S    
C22   C24   A    
O2    Zn2   S    
C3    C4    A    
C48   H32   S    
C12   O4    A    
C35   O7    A    
C30   C33   A    
C14   C19   A    
C4    C5    A    
C45   H25   S    
C4    C26   S    
C6    C7    A    
C3    H21   S    
C33   H9    S    
C21   C30   A    
C34   H10   S    
N1    Zn1   S    
C32   F3    S    
C37   H2    S    
C36   C38   S    
C24   C31   A    
C37   C39   S    
O5    Zn1   S    
C11   C13   A    
C48   H30   S    
C2    C42   S    
C28   C30   A    
C1    O1    A    
O3    Zn1   S    
C23   C25   A    
C37   C41   S    
C20   H5    S    
C10   C11   A    
C45   H23   S    
C44   H27   S    
C7    C13   A    
O1    Zn1   S    
C46   C47   S    
C27   C28   A    
C16   C46   S    
C14   C15   A    
C36   H1    S    
C15   H4    S    
C47   C48   S    
C2    H20   S    
