data_mof_unit_30690.cif
_audit_creation_date              2012-12-11T14:27:55-0500
_audit_creation_method            fapswitch 2.2
_symmetry_space_group_name_H-M    P1
_symmetry_Int_Tables_number       1
_space_group_crystal_system       triclinic
_cell_length_a                    6.932972
_cell_length_b                    14.698012
_cell_length_c                    16.14713
_cell_angle_alpha                 90.957109
_cell_angle_beta                  89.859391
_cell_angle_gamma                 90.000202
_cell_volume                      1645.17264771

loop_
_atom_site_label
_atom_site_type_symbol
_atom_type_description
_atom_site_fract_x
_atom_site_fract_y
_atom_site_fract_z
_atom_type_partial_charge
O1    O     O_R   0.494510 0.415970 0.413200 -0.542248
O2    O     O_R   0.823800 0.407430 0.586200 -0.540475
O3    O     O_R   0.994130 0.584030 0.586800 -0.540243
C1    C     C_R   0.654451 0.384591 0.612872 0.747891
O4    O     O_R   0.824220 0.405090 0.413820 -0.540150
O5    O     O_R   0.994560 0.581670 0.413190 -0.537323
C2    C     C_R   0.655132 0.382763 0.385452 0.748016
O6    O     O_R   0.494090 0.418330 0.586810 -0.543002
O7    O     O_3   0.660810 0.557940 0.500000 -0.373020
V1    V     V_3+5 0.935650 0.489250 0.500000 1.404980
O8    O     O_R   0.324270 0.592570 0.413800 -0.544341
C3    C     C_R   0.155742 0.615615 0.386653 0.753412
O9    O     O_R   0.323850 0.594910 0.586180 -0.543477
C4    C     C_R   0.154921 0.616750 0.615105 0.673752
V2    V     V_3+5 0.435660 0.510750 0.500000 1.399887
O10   O     O_3   0.160630 0.442060 0.500000 -0.371766
C5    C     C_3   0.041045 0.669093 0.768204 -0.132645
C6    C     C_3   0.215419 0.711368 0.814789 -0.146040
H1    H     H_    0.283402 0.682359 0.870510 0.103897
H2    H     H_    0.965335 0.605535 0.785322 0.098967
C7    C     C_3   0.121233 0.805911 0.808809 -0.009906
C8    C     C_3   0.946600 0.764397 0.763016 -0.120620
C9    C     C_3   0.049933 0.780029 0.679239 -0.138752
C10   C     C_3   0.224404 0.822223 0.725830 -0.132564
C11   C     C_3   0.318740 0.726961 0.731044 -0.116581
C12   C     C_3   0.144190 0.685541 0.685202 -0.004747
H3    H     H_    0.793014 0.780087 0.776615 0.105256
H4    H     H_    0.981623 0.807802 0.622951 0.102184
H5    H     H_    0.302011 0.885408 0.709474 0.102393
H6    H     H_    0.472400 0.711304 0.717588 0.106655
C13   C     C_2   0.990453 0.724550 0.293065 -0.148301
C14   C     C_2   0.152878 0.686761 0.322713 -0.333974
H7    H     H_    0.851663 0.705106 0.318597 0.139423
H8    H     H_    0.291819 0.711920 0.302005 0.147463
C15   C     C_2   0.993627 0.800157 0.232094 0.346652
C16   C     C_2   0.119902 0.801321 0.167328 0.149027
C17   C     C_2   0.781489 0.207523 0.778216 0.333945
C18   C     C_2   0.618393 0.186159 0.821364 0.133962
C19   C     C_2   0.786638 0.287251 0.721678 -0.225815
C20   C     C_2   0.640139 0.309879 0.671782 -0.325980
H9    H     H_    0.920032 0.325889 0.718917 0.135707
H10   H     H_    0.507427 0.270856 0.671068 0.169484
C21   C     C_2   0.779932 0.207424 0.211020 -0.145273
C22   C     C_2   0.614394 0.179445 0.174910 -0.313939
H11   H     H_    0.915992 0.178950 0.189462 0.134204
H12   H     H_    0.476616 0.207231 0.194255 0.127953
C23   C     C_2   0.792465 0.276497 0.279469 -0.142669
C24   C     C_2   0.638853 0.313849 0.318242 -0.308427
H13   H     H_    0.936534 0.296445 0.298809 0.138496
H14   H     H_    0.493682 0.294484 0.300877 0.129444
O11   O     O_R   0.771000 0.074870 0.906030 -0.517465
O12   O     O_R   0.440710 0.088040 0.078970 -0.548832
O13   O     O_R   0.270540 0.911420 0.079570 -0.554774
C25   C     C_R   0.609238 0.110328 0.107469 0.734223
O14   O     O_R   0.441280 0.085700 0.906600 -0.528102
O15   O     O_R   0.271110 0.909060 0.905960 -0.543227
C26   C     C_R   0.610768 0.109641 0.880339 0.691182
O16   O     O_R   0.770430 0.077230 0.079640 -0.539419
O17   O     O_3   0.604340 0.935220 0.992820 -0.376407
V3    V     V_3+5 0.329430 0.003850 0.992770 1.426162
O18   O     O_R   0.941400 0.898110 0.906530 -0.544030
C27   C     C_R   0.110446 0.875585 0.878207 0.671995
O19   O     O_R   0.940830 0.900450 0.078910 -0.531926
C28   C     C_R   0.110103 0.875871 0.105044 0.658216
V4    V     V_3+5 0.829450 0.982250 0.992700 1.439605
O20   O     O_3   0.104410 0.051000 0.992740 -0.355923
O21   O     O_3   0.219448 0.720865 0.149417 -0.585554
C29   C     C_3   0.415943 0.734042 0.129436 0.079506
H15   H     H_    0.500300 0.685521 0.167008 0.143280
H16   H     H_    0.473489 0.802588 0.146210 0.141312
C30   C     C_3   0.448802 0.710278 0.037749 -0.309898
H17   H     H_    0.377139 0.644428 0.022554 0.199925
H18   H     H_    0.383308 0.763480 0.998883 0.195253
C31   C     C_3   0.662728 0.701697 0.016714 -0.793709
H19   H     H_    0.738645 0.766095 0.031602 0.259488
H20   H     H_    0.680167 0.686490 0.949496 0.210318
H21   H     H_    0.729201 0.645739 0.052180 0.227870
O22   O     O_3   0.952823 0.162684 0.796973 -0.569946
C32   C     C_3   0.057897 0.136900 0.725011 0.131410
H22   H     H_    0.202431 0.113966 0.745556 0.168671
H23   H     H_    0.084921 0.194664 0.682986 0.114175
C33   C     C_3   0.961993 0.056888 0.678798 -0.360649
H24   H     H_    0.949588 0.998053 0.720870 0.195374
H25   H     H_    0.814802 0.076330 0.658543 0.184998
C34   C     C_3   0.079626 0.028941 0.602576 -0.855511
H26   H     H_    0.089008 0.086565 0.559162 0.236404
H27   H     H_    0.009204 0.970435 0.570525 0.237721
H28   H     H_    0.227820 0.008838 0.620547 0.222534
O23   O     O_3   0.450255 0.235732 0.811068 -0.588096
C35   C     C_3   0.444800 0.307252 0.870530 0.100894
H29   H     H_    0.578882 0.349117 0.868143 0.113711
H30   H     H_    0.427641 0.279419 0.933883 0.112857
C36   C     C_3   0.272702 0.368660 0.852022 -0.275538
H31   H     H_    0.283187 0.392725 0.787234 0.190075
H32   H     H_    0.136965 0.329103 0.858318 0.211784
C37   C     C_3   0.265638 0.451098 0.910734 -0.871314
H33   H     H_    0.253874 0.428855 0.975960 0.238429
H34   H     H_    0.138012 0.493502 0.896102 0.229119
H35   H     H_    0.397478 0.493246 0.903552 0.231540
O24   O     O_3   0.847428 0.864229 0.237948 -0.589050
C38   C     C_3   0.911827 0.942267 0.282297 0.058349
H36   H     H_    0.883944 0.002342 0.243218 0.146994
H37   H     H_    0.069512 0.942745 0.296845 0.076488
C39   C     C_3   0.796336 0.952260 0.362715 -0.292017
H38   H     H_    0.639635 0.946462 0.349095 0.198021
H39   H     H_    0.836906 0.896668 0.405145 0.182842
C40   C     C_3   0.834355 0.043935 0.405241 -0.854769
H40   H     H_    0.991233 0.053222 0.416120 0.232407
H41   H     H_    0.757495 0.047120 0.465633 0.235523
H42   H     H_    0.780886 0.100010 0.366256 0.246723

loop_
_geom_bond_atom_site_label_1
_geom_bond_atom_site_label_2
_ccdc_geom_bond_type
O19   V4    S    
C36   H31   S    
C6    C7    S    
C15   C16   D    
C1    O6    A    
C39   H39   S    
C16   O21   S    
C23   H13   S    
C34   H26   S    
C18   O23   S    
C38   H36   S    
C31   H20   S    
C5    C12   S    
C7    C8    S    
O5    C3    A    
O13   C28   A    
V2    O10   S    
C37   H35   S    
C5    H2    S    
C6    H1    S    
O11   V4    S    
C9    C12   S    
C10   H5    S    
O12   V3    S    
O8    V2    S    
C1    C20   S    
O12   C25   A    
C29   H15   S    
C31   H21   S    
C37   H34   S    
C40   H40   S    
C13   H7    S    
O11   C26   A    
O7    V1    S    
C20   H10   S    
V3    O20   S    
O17   V3    S    
C38   H37   S    
O9    C4    A    
C3    C14   S    
C40   H41   S    
C6    C11   S    
C39   H38   S    
O13   V3    S    
C22   H12   S    
C34   H27   S    
C31   H19   S    
O21   C29   S    
C10   C11   S    
C19   H9    S    
C19   C20   D    
C30   H18   S    
O22   C32   S    
C11   C12   S    
C32   H22   S    
C14   H8    S    
O2    C1    A    
C21   C22   D    
C17   C18   D    
O18   V4    S    
C32   C33   S    
C18   C26   S    
O16   V4    S    
C35   H30   S    
C23   C24   D    
C9    C10   S    
C37   H33   S    
C5    C6    S    
C9    H4    S    
C4    C12   S    
C21   H11   S    
C7    C27   S    
O3    C4    A    
O1    V2    S    
C29   H16   S    
C33   H24   S    
C36   C37   S    
C33   H25   S    
C8    H3    S    
O14   C26   A    
C40   H42   S    
C13   C15   S    
C15   O24   S    
O2    V1    S    
C35   C36   S    
O4    C2    A    
C25   O16   A    
C34   H28   S    
C11   H6    S    
O1    C2    A    
C13   C14   D    
O5    V1    S    
C30   C31   S    
O8    C3    A    
O6    V2    S    
C33   C34   S    
C17   O22   S    
C32   H23   S    
C5    C8    S    
C2    C24   S    
O9    V2    S    
O7    V2    S    
O4    V1    S    
C17   C19   S    
O3    V1    S    
C16   C28   S    
O17   V4    S    
C35   H29   S    
C29   C30   S    
C24   H14   S    
O24   C38   S    
O15   C27   A    
O18   C27   A    
O19   C28   A    
C22   C25   S    
C30   H17   S    
O15   V3    S    
C36   H32   S    
V4    O20   S    
C7    C10   S    
C8    C9    S    
V1    O10   S    
C38   C39   S    
O23   C35   S    
O14   V3    S    
C21   C23   S    
C39   C40   S    
