data_mof_unit_58049.cif
_audit_creation_date              2012-10-26T18:51:14-0400
_audit_creation_method            fapswitch 2.2
_symmetry_space_group_name_H-M    P1
_symmetry_Int_Tables_number       1
_space_group_crystal_system       triclinic
_cell_length_a                    15.057507
_cell_length_b                    13.993607
_cell_length_c                    23.505691
_cell_angle_alpha                 90.622192
_cell_angle_beta                  85.807321
_cell_angle_gamma                 89.731953
_cell_volume                      4939.23646654

loop_
_atom_site_label
_atom_site_type_symbol
_atom_type_description
_atom_site_fract_x
_atom_site_fract_y
_atom_site_fract_z
_atom_type_partial_charge
C1    C     C_R   0.328475 0.500135 0.500973 0.642074
C2    C     C_R   0.592711 0.448888 0.693945 0.164851
C3    C     C_R   0.449205 0.545506 0.236817 0.381516
C4    C     C_R   0.600044 0.451111 0.753418 0.400003
C5    C     C_R   0.521538 0.497391 0.208685 0.136053
C6    C     C_R   0.535578 0.496466 0.789980 0.130491
C7    C     C_R   0.824601 0.438759 0.463423 0.199352
C8    C     C_R   0.174825 0.541055 0.542194 0.175758
C9    C     C_R   0.770412 0.501930 0.497955 0.050095
C10   C     C_R   0.231139 0.501093 0.497798 0.032139
C11   C     C_R   0.810870 0.573598 0.529515 0.433913
C12   C     C_R   0.671759 0.499807 0.499265 0.614443
C13   C     C_R   0.193960 0.465814 0.448676 0.417077
C14   C     C_R   0.904683 0.579527 0.529404 -0.005177
C15   C     C_R   0.100426 0.465697 0.445686 -0.001299
C16   C     C_R   0.496901 0.500052 0.391378 0.639037
C17   C     C_R   0.506858 0.499836 0.608567 0.651987
C18   C     C_R   0.955836 0.523629 0.487884 -0.093379
C19   C     C_R   0.048921 0.522560 0.486410 -0.088405
C20   C     C_R   0.913989 0.463018 0.450162 -0.026266
C21   C     C_R   0.090708 0.572928 0.528653 -0.011393
C22   C     C_R   0.949364 0.640715 0.567297 0.204297
C23   C     C_R   0.584584 0.452574 0.240109 0.451948
C24   C     C_R   0.056743 0.415114 0.402938 0.258422
C25   C     C_R   0.043624 0.643227 0.561882 0.255982
C26   C     C_R   0.963563 0.424791 0.401880 0.265297
C27   C     C_R   0.463631 0.799635 0.545773 0.342091
C28   C     C_R   0.511068 0.203645 0.448404 0.326881
C29   C     C_R   0.545640 0.793511 0.455122 0.329485
C30   C     C_R   0.463431 0.202904 0.546701 0.310370
C31   C     C_R   0.532443 0.894954 0.448615 -0.047738
C32   C     C_R   0.463883 0.101067 0.543670 -0.036691
C33   C     C_R   0.477451 0.900262 0.546755 -0.017684
C34   C     C_R   0.463225 0.541252 0.767848 0.440431
C35   C     C_R   0.534320 0.102842 0.448226 -0.035307
C36   C     C_R   0.506865 0.948621 0.497041 -0.076994
C37   C     C_R   0.506250 0.051506 0.496822 -0.070365
C38   C     C_R   0.549923 0.945438 0.396773 0.264535
C39   C     C_R   0.413243 0.044465 0.582652 0.283768
C40   C     C_R   0.452456 0.957817 0.594557 0.278678
C41   C     C_R   0.561034 0.047526 0.397719 0.242107
C42   C     C_R   0.562425 0.576818 0.878563 0.511762
C43   C     C_R   0.514979 0.411719 0.119335 0.498469
C44   C     C_R   0.526141 0.411249 0.878805 0.506311
C45   C     C_R   0.574601 0.454309 0.299427 0.402362
C46   C     C_R   0.551982 0.577052 0.119054 0.508498
C47   C     C_R   0.530634 0.406967 0.938488 -0.005146
C48   C     C_R   0.551875 0.580454 0.059076 -0.006913
C49   C     C_R   0.544237 0.493225 0.968663 -0.106478
C50   C     C_R   0.538716 0.493859 0.028965 -0.105309
C51   C     C_R   0.566866 0.577939 0.938433 -0.003198
C52   C     C_R   0.515309 0.409131 0.059147 -0.008935
C53   C     C_R   0.517641 0.320548 0.968955 0.244627
C54   C     C_R   0.566866 0.666547 0.028363 0.231207
C55   C     C_R   0.495486 0.324765 0.028206 0.242891
C56   C     C_R   0.455510 0.542272 0.709328 0.397106
C57   C     C_R   0.588788 0.661594 0.969097 0.245524
C58   C     C_R   0.501342 0.500680 0.328581 -0.070738
C59   C     C_R   0.519730 0.497932 0.670946 -0.062049
C60   C     C_R   0.438262 0.549095 0.296629 0.176490
Cu1   Cu    Cu3+1 0.500000 0.597420 0.500000 1.265324
Cu2   Cu    Cu3+1 0.500000 0.402580 0.500000 1.265427
F1    F     F_    0.656274 0.408065 0.213061 -0.487956
F2    F     F_    0.399089 0.583183 0.803453 -0.485027
F3    F     F_    0.638361 0.412721 0.328680 -0.481536
F4    F     F_    0.382528 0.584509 0.691061 -0.504313
F5    F     F_    0.388949 0.588746 0.205142 -0.540605
F6    F     F_    0.670402 0.410160 0.776921 -0.492200
F7    F     F_    0.756836 0.632405 0.562682 -0.521158
F8    F     F_    0.249411 0.436014 0.404025 -0.497416
H1    H     H_    0.588654 0.068674 0.964753 0.388046
H2    H     H_    0.222524 0.947458 0.514067 0.403329
H3    H     H_    0.599627 0.057675 0.695526 0.404233
H4    H     H_    0.738385 0.074139 0.285001 0.405579
H5    H     H_    0.344755 0.118490 0.030288 0.392708
H6    H     H_    0.641423 0.878366 0.887331 0.390138
H7    H     H_    0.237172 0.585739 0.271023 0.398135
H8    H     H_    0.648198 0.251087 0.614747 0.381638
H9    H     H_    0.848831 0.187595 0.416862 0.400928
H10   H     H_    0.267400 0.454858 0.672608 0.425068
H11   H     H_    0.866145 0.818693 0.569795 0.360660
H12   H     H_    0.503234 0.920753 0.031441 0.390742
H13   H     H_    0.145530 0.364675 0.272018 0.385811
H14   H     H_    0.081714 0.896395 0.592803 0.408433
H15   H     H_    0.956412 0.454605 0.247991 0.400827
H16   H     H_    0.285524 0.663372 0.618886 0.436524
H17   H     H_    0.318989 0.245753 0.456003 0.369848
H18   H     H_    0.716955 0.808734 0.499122 0.357864
H19   H     H_    0.494470 0.231244 0.678115 0.387129
H20   H     H_    0.442179 0.907078 0.264338 0.408396
N1    N     N_R   0.542682 0.494620 0.850594 -0.361562
N2    N     N_R   0.530415 0.495041 0.147418 -0.362695
N3    N     N_R   0.500000 0.743810 0.500000 -0.272334
N4    N     N_R   0.500000 0.256190 0.500000 -0.271297
O1    O     O_R   0.370260 0.582280 0.500010 -0.446811
O2    O     O_2   0.503374 0.331412 0.149990 -0.322659
O3    O     O_2   0.499763 0.334785 0.849172 -0.352724
O4    O     O_2   0.577961 0.653124 0.149184 -0.340676
O5    O     O_2   0.472296 0.167367 0.906643 -0.140827
O6    O     O_2   0.626960 0.221315 0.893776 -0.175927
O7    O     O_3   0.578776 0.130053 0.985710 -0.441518
O8    O     O_2   0.460423 0.770667 0.103082 -0.173124
O9    O     O_2   0.617009 0.818459 0.089746 -0.144037
O10   O     O_3   0.511435 0.858944 0.010733 -0.436295
O11   O     O_2   0.129734 0.731920 0.644188 -0.143462
O12   O     O_R   0.629740 0.417720 0.499990 -0.442527
O13   O     O_2   0.187763 0.754544 0.545211 -0.258611
O14   O     O_3   0.043219 0.844330 0.580055 -0.484956
O15   O     O_2   0.881632 0.324304 0.321099 -0.126310
O16   O     O_2   0.835250 0.490418 0.338237 -0.181664
O17   O     O_3   0.988134 0.458216 0.283404 -0.494333
O18   O     O_2   0.462396 0.733489 0.651468 -0.150573
O19   O     O_2   0.333097 0.827471 0.630412 -0.186034
O20   O     O_3   0.340364 0.657088 0.593335 -0.425642
O21   O     O_2   0.473579 0.279686 0.346109 -0.156080
O22   O     O_2   0.396477 0.133761 0.374126 -0.202355
O23   O     O_R   0.629740 0.582280 0.499990 -0.427559
O24   O     O_3   0.345898 0.287814 0.425891 -0.389774
O25   O     O_2   0.650946 0.658943 0.395816 -0.195065
O26   O     O_2   0.697685 0.823739 0.386109 -0.203651
O27   O     O_3   0.718693 0.744480 0.480945 -0.450143
O28   O     O_2   0.350177 0.336535 0.595043 -0.185819
O29   O     O_2   0.344403 0.188500 0.643968 -0.182578
O30   O     O_3   0.479466 0.289486 0.657239 -0.511574
O31   O     O_2   0.613717 0.889162 0.290331 -0.130484
O32   O     O_2   0.506429 0.783140 0.340068 -0.227334
O33   O     O_3   0.447777 0.941164 0.301048 -0.407860
O34   O     O_R   0.370260 0.417720 0.500010 -0.452089
O35   O     O_2   0.244716 0.014132 0.623610 -0.141990
O36   O     O_2   0.265924 0.125757 0.543999 -0.235311
O37   O     O_3   0.286068 0.944756 0.522266 -0.489461
O38   O     O_2   0.461711 0.934309 0.706406 -0.128939
O39   O     O_2   0.590748 0.879981 0.644120 -0.193417
O40   O     O_3   0.567498 0.062385 0.660361 -0.552298
O41   O     O_2   0.559163 0.098109 0.287224 -0.123634
O42   O     O_2   0.638500 0.204068 0.348675 -0.158297
O43   O     O_3   0.712182 0.042718 0.319823 -0.443470
O44   O     O_2   0.482184 0.164215 0.090720 -0.146755
O45   O     O_R   0.499980 0.582290 0.417880 -0.463162
O46   O     O_2   0.356491 0.276748 0.101051 -0.190709
O47   O     O_3   0.374000 0.172705 0.009814 -0.430970
O48   O     O_2   0.708664 0.803272 0.981034 -0.181811
O49   O     O_2   0.726797 0.705309 0.894579 -0.177663
O50   O     O_3   0.598232 0.830384 0.902822 -0.389443
O51   O     O_2   0.339127 0.621980 0.390145 -0.221563
O52   O     O_2   0.344302 0.712232 0.302098 -0.163601
O53   O     O_3   0.250950 0.557687 0.307879 -0.390494
O54   O     O_2   0.737024 0.463147 0.622424 -0.215026
O55   O     O_2   0.736154 0.329594 0.687153 -0.128044
O56   O     O_R   0.500020 0.417710 0.582120 -0.414113
O57   O     O_3   0.639712 0.317135 0.601327 -0.456977
O58   O     O_2   0.748894 0.277899 0.504865 -0.225871
O59   O     O_2   0.723294 0.322438 0.407117 -0.140360
O60   O     O_3   0.876441 0.248539 0.427869 -0.459442
O61   O     O_2   0.108012 0.531560 0.652355 -0.180889
O62   O     O_2   0.150176 0.382737 0.602275 -0.189208
O63   O     O_3   0.275008 0.489580 0.636062 -0.434389
O64   O     O_2   0.829450 0.632560 0.657876 -0.100855
O65   O     O_2   0.951141 0.741931 0.668347 -0.121502
O66   O     O_3   0.829228 0.791558 0.602217 -0.385651
O67   O     O_R   0.500020 0.582290 0.582120 -0.437300
O68   O     O_2   0.169124 0.265184 0.396117 -0.145947
O69   O     O_2   0.047168 0.257750 0.334522 -0.190950
O70   O     O_3   0.177685 0.373081 0.306976 -0.359205
O71   O     O_R   0.499980 0.417710 0.417880 -0.433392
O72   O     O_2   0.572654 0.657818 0.848389 -0.322575
S1    S     S_3+6 0.548843 0.207970 0.936524 0.158625
S2    S     S_3+6 0.298832 0.034786 0.568893 0.111217
S3    S     S_3+6 0.519345 0.955232 0.653135 0.112651
S4    S     S_3+6 0.616409 0.102044 0.336930 0.163830
S5    S     S_3+6 0.426390 0.232936 0.059659 0.156606
S6    S     S_3+6 0.659464 0.751318 0.936829 0.163350
S7    S     S_3+6 0.343392 0.613318 0.326483 0.180017
S8    S     S_3+6 0.678996 0.389072 0.651201 0.143496
S9    S     S_3+6 0.790498 0.319661 0.450789 0.112636
S10   S     S_3+6 0.175041 0.485762 0.609882 0.100077
S11   S     S_3+6 0.890513 0.701744 0.626285 0.219678
S12   S     S_3+6 0.538979 0.780466 0.060254 0.164005
S13   S     S_3+6 0.112276 0.324039 0.359818 0.201802
S14   S     S_3+6 0.104558 0.744200 0.584002 0.104237
S15   S     S_3+6 0.913336 0.422711 0.335408 0.154065
S16   S     S_3+6 0.399362 0.754076 0.606491 0.186641
S17   S     S_3+6 0.432638 0.225953 0.396218 0.157039
S18   S     S_3+6 0.653327 0.753246 0.426531 0.117947
S19   S     S_3+6 0.406426 0.254451 0.610726 0.119054
S20   S     S_3+6 0.531879 0.885750 0.330824 0.171238

loop_
_geom_bond_atom_site_label_1
_geom_bond_atom_site_label_2
_ccdc_geom_bond_type
O61   S10   D    
O42   S4    D    
C30   C32   A    
H13   O70   S    
O22   S17   D    
C34   C56   A    
C23   C45   A    
C29   S18   S    
O13   S14   D    
C14   C18   A    
C2    C4    A    
C17   O56   A    
C1    O34   A    
O17   S15   S    
O25   S18   D    
O33   S20   S    
C25   S14   S    
C47   C49   A    
O24   S17   S    
C27   C33   A    
C15   C19   A    
O60   S9    S    
O6    S1    D    
Cu1   O67   S    
C36   C37   A    
C19   C21   A    
O64   S11   D    
C24   C26   A    
O49   S6    D    
O55   S8    D    
O30   S19   S    
C11   C14   A    
Cu1   N3    S    
C43   C52   A    
O41   S4    D    
C46   N2    A    
C13   F8    S    
C58   C60   A    
C6    N1    S    
O52   S7    D    
O47   S5    S    
C33   C36   A    
O14   S14   S    
C28   N4    A    
C18   C19   A    
C32   C39   A    
C42   O72   S    
C39   S2    S    
O7    S1    S    
O39   S3    D    
H5    O47   S    
O58   S9    D    
C53   S1    S    
O10   S12   S    
O16   S15   D    
C49   C51   A    
C22   C25   A    
C7    S9    S    
C50   C52   A    
H20   O33   S    
C51   C57   A    
H7    O53   S    
C18   C20   A    
C44   C47   A    
C42   C51   A    
C47   C53   A    
C57   S6    S    
C3    C60   A    
C48   C50   A    
C46   O4    S    
H11   O66   S    
C60   S7    S    
Cu1   Cu2   S    
O65   S11   D    
C22   S11   S    
C55   S5    S    
C40   S3    S    
C29   N3    A    
H8    O57   S    
C8    C21   A    
O5    S1    D    
C53   C55   A    
H4    O43   S    
C46   C48   A    
C45   C58   A    
C33   C40   A    
Cu1   O23   S    
C30   S19   S    
O32   S20   D    
C28   C35   A    
C38   C41   A    
C4    C6    A    
C39   C40   A    
C4    F6    S    
C2    C59   A    
Cu1   O45   S    
O28   S19   D    
O18   S16   D    
C3    C5    A    
O20   S16   S    
O40   S3    S    
O54   S8    D    
C54   S12   S    
O31   S20   D    
O29   S19   D    
C48   C54   A    
O36   S2    D    
O26   S18   D    
C44   O3    S    
O19   S16   D    
C5    C23   A    
C16   O71   A    
C1    O1    A    
C24   S13   S    
Cu1   O1    S    
C43   O2    S    
O43   S4    S    
C16   C58   S    
C32   C37   A    
C9    C11   A    
O68   S13   D    
C44   N1    A    
C17   O67   A    
H17   O24   S    
O27   S18   S    
H6    O50   S    
C15   C24   A    
C17   C59   S    
O37   S2    S    
C49   C50   A    
O46   S5    D    
Cu2   N4    S    
C45   F3    S    
C11   F7    S    
O8    S12   D    
C27   N3    A    
C16   O45   A    
O38   S3    D    
O11   S14   D    
H2    O37   S    
O48   S6    D    
O15   S15   D    
C7    C9    A    
C21   C25   A    
O62   S10   D    
Cu2   O56   S    
O35   S2    D    
C35   C37   A    
O44   S5    D    
C28   S17   S    
C3    F5    S    
C1    C10   S    
O51   S7    D    
H18   O27   S    
H15   O17   S    
C10   C13   A    
O21   S17   D    
C8    S10   S    
C31   C38   A    
Cu2   O12   S    
H19   O30   S    
Cu2   O34   S    
C41   S4    S    
O50   S6    S    
C43   N2    A    
C56   C59   A    
H16   O20   S    
O9    S12   D    
C14   C22   A    
C13   C15   A    
C27   S16   S    
C29   C31   A    
C38   S20   S    
C2    S8    S    
H9    O60   S    
C12   O12   A    
C52   C55   A    
H10   O63   S    
C20   C26   A    
C56   F4    S    
C23   F1    S    
H14   O14   S    
O59   S9    D    
O70   S13   S    
H1    O7    S    
O53   S7    S    
C35   C41   A    
C9    C12   S    
O66   S11   S    
C5    N2    S    
O63   S10   S    
C12   O23   A    
C26   S15   S    
C6    C34   A    
Cu2   O71   S    
H3    O40   S    
C8    C10   A    
C7    C20   A    
C30   N4    A    
O57   S8    S    
H12   O10   S    
C31   C36   A    
O69   S13   D    
C34   F2    S    
C42   N1    A    
C54   C57   A    
