data_mof_unit_33369.cif
_audit_creation_date              2012-12-10T17:53:16-0500
_audit_creation_method            fapswitch 2.2
_symmetry_space_group_name_H-M    P1
_symmetry_Int_Tables_number       1
_space_group_crystal_system       triclinic
_cell_length_a                    23.426747
_cell_length_b                    10.621101
_cell_length_c                    9.908113
_cell_angle_alpha                 89.97386
_cell_angle_beta                  89.675881
_cell_angle_gamma                 91.661053
_cell_volume                      2464.23949247

loop_
_atom_site_label
_atom_site_type_symbol
_atom_type_description
_atom_site_fract_x
_atom_site_fract_y
_atom_site_fract_z
_atom_type_partial_charge
C1    C     C_R   0.501335 0.260708 0.500062 0.869224
C2    C     C_R   0.120683 0.596263 0.472321 0.508238
C3    C     C_R   0.234947 0.525146 0.609326 -0.104164
C4    C     C_R   0.389299 0.499956 0.500605 0.870447
C5    C     C_R   0.294288 0.531404 0.615562 -0.018908
C6    C     C_R   0.326717 0.495988 0.501142 -0.080586
C7    C     C_R   0.298487 0.454638 0.383644 -0.208010
C8    C     C_R   0.239346 0.448865 0.379036 -0.078978
C9    C     C_R   0.207768 0.484597 0.491509 0.294994
C10   C     C_R   0.761844 0.508433 0.374074 -0.103201
C11   C     C_R   0.702719 0.512207 0.375857 -0.205784
C12   C     C_R   0.966259 0.257468 0.509663 -0.155172
C13   C     C_R   0.672752 0.497046 0.498180 -0.036125
C14   C     C_R   0.702627 0.477625 0.618505 -0.241711
C15   C     C_R   0.761815 0.473501 0.616252 -0.106122
C16   C     C_R   0.501528 0.739460 0.499926 0.876782
C17   C     C_R   0.791270 0.489141 0.494123 0.325907
C18   C     C_R   0.597538 0.137484 0.620860 -0.172977
C19   C     C_R   0.642630 0.074663 0.679360 -0.110842
C20   C     C_R   0.642671 0.943643 0.679287 -0.117357
C21   C     C_R   0.597642 0.875008 0.620622 -0.186464
C22   C     C_R   0.551235 0.937317 0.562143 0.097036
C23   C     C_R   0.025690 0.256623 0.507518 -0.150923
C24   C     C_R   0.551171 0.069267 0.562285 0.096251
C25   C     C_R   0.505142 0.128688 0.499881 -0.085741
C26   C     C_R   0.461547 0.061862 0.434489 -0.146192
C27   C     C_R   0.461616 0.933252 0.434364 -0.157569
C28   C     C_R   0.610591 0.499876 0.499568 0.836740
C29   C     C_R   0.505278 0.872002 0.499606 -0.105565
C30   C     C_R   0.425330 0.334300 0.140709 -0.259053
C31   C     C_R   0.388454 0.252916 0.070910 -0.285125
C32   C     C_R   0.388380 0.252820 0.930785 0.482656
C33   C     C_R   0.425284 0.335036 0.860722 -0.250339
C34   C     C_R   0.057663 0.369940 0.495285 -0.022254
C35   C     C_R   0.463179 0.418549 0.928186 0.108487
C36   C     C_R   0.463208 0.418412 0.072693 0.194431
C37   C     C_R   0.535250 0.577977 0.070999 -0.104815
C38   C     C_R   0.535242 0.577933 0.927832 -0.090533
C39   C     C_R   0.881882 0.599448 0.478780 0.502887
C40   C     C_R   0.878279 0.375100 0.502344 0.503797
C41   C     C_R   0.937842 0.371632 0.499493 -0.015158
C42   C     C_R   0.969557 0.485781 0.486125 -0.020411
C43   C     C_R   0.941465 0.600877 0.475450 -0.014777
C44   C     C_1   0.319943 0.577917 0.738850 0.245210
C45   C     C_R   0.029509 0.484941 0.484099 -0.020597
C46   C     C_R   0.061172 0.599233 0.471752 -0.016819
C47   C     C_R   0.032783 0.713294 0.460397 -0.150362
C48   C     C_R   0.973401 0.714109 0.462235 -0.157719
C49   C     C_R   0.117323 0.371879 0.495482 0.519573
H1    H     H_    0.942726 0.168624 0.519686 0.194066
H2    H     H_    0.426956 0.881083 0.385751 0.165685
H3    H     H_    0.564051 0.641666 0.124362 0.144545
H4    H     H_    0.046440 0.167169 0.516103 0.194211
H5    H     H_    0.422765 0.328549 0.247736 0.221405
H6    H     H_    0.359876 0.190061 0.126979 0.211412
H7    H     H_    0.422974 0.330969 0.753750 0.231252
H8    H     H_    0.564025 0.641625 0.873552 0.140670
H9    H     H_    0.056302 0.802187 0.450692 0.197211
H10   H     H_    0.952669 0.803594 0.453744 0.192605
H11   H     H_    0.209458 0.553093 0.695373 0.141814
H12   H     H_    0.680602 0.527453 0.281811 0.160352
H13   H     H_    0.322079 0.426223 0.295005 0.170825
H14   H     H_    0.217964 0.417843 0.287776 0.152128
H15   H     H_    0.784920 0.520680 0.279740 0.137938
H16   H     H_    0.286604 0.989631 0.886424 0.396951
H17   H     H_    0.680365 0.465050 0.713880 0.161214
H18   H     H_    0.784884 0.458872 0.709091 0.138665
H19   H     H_    0.426836 0.109550 0.385966 0.150975
H20   H     H_    0.599918 0.239225 0.620350 0.150330
H21   H     H_    0.677903 0.127859 0.723675 0.151665
H22   H     H_    0.677971 0.895020 0.723587 0.150250
H23   H     H_    0.600095 0.773512 0.619848 0.142210
N1    N     N_R   0.851912 0.487786 0.492106 -0.360836
N2    N     N_R   0.147172 0.483944 0.485056 -0.360898
N3    N     N_R   0.499460 0.498800 0.142780 -0.111622
N4    N     N_R   0.499440 0.498720 0.857170 -0.107821
N5    N     N_1   0.340382 0.615149 0.837713 -0.163572
O1    O     O_R   0.500000 0.316780 0.614690 -0.630484
O2    O     O_R   0.583850 0.500050 0.614640 -0.638331
O3    O     O_R   0.583840 0.500030 0.385310 -0.616507
O4    O     O_2   0.853934 0.708476 0.469523 -0.550692
O5    O     O_2   0.296627 0.227087 0.775390 -0.284322
O6    O     O_2   0.375048 0.084359 0.733371 -0.304923
O7    O     O_3   0.310868 0.043862 0.945387 -0.543522
O8    O     O_2   0.846828 0.267149 0.514545 -0.551126
O9    O     O_2   0.145407 0.263296 0.507521 -0.517945
O10   O     O_2   0.152023 0.704438 0.460566 -0.534715
O11   O     O_R   0.500000 0.316750 0.385360 -0.634226
O12   O     O_R   0.416160 0.499970 0.614690 -0.623607
O13   O     O_R   0.416150 0.499950 0.385360 -0.633611
O14   O     O_R   0.500000 0.683250 0.614640 -0.605314
O15   O     O_R   0.500000 0.683220 0.385310 -0.611867
S1    S     S_3+6 0.341847 0.150715 0.840916 0.026876
Zn1   Zn    Zn3+2 0.500000 0.500020 0.653130 0.956221
Zn2   Zn    Zn3+2 0.500000 0.499980 0.346870 0.952161

loop_
_geom_bond_atom_site_label_1
_geom_bond_atom_site_label_2
_ccdc_geom_bond_type
C1    C25   S    
C22   C29   A    
C27   C29   A    
C41   C42   A    
C35   C36   A    
N3    Zn2   S    
C7    C8    A    
C38   N4    A    
C45   C46   A    
C2    C46   A    
C30   H5    S    
C12   C23   A    
C26   C27   A    
C37   C38   A    
C18   C24   A    
C44   N5    T    
O1    Zn1   S    
C30   C31   A    
C10   C17   A    
O6    S1    D    
C40   N1    A    
C18   C19   A    
O12   Zn1   S    
C28   O2    A    
N4    Zn1   S    
C47   C48   A    
C8    C9    A    
C13   C28   S    
C43   C48   A    
C2    N2    A    
C3    H11   S    
C18   H20   S    
C32   S1    S    
C37   N3    A    
O11   Zn2   S    
O5    S1    D    
C13   C14   A    
C17   N1    S    
C1    O1    A    
C27   H2    S    
C23   H4    S    
C4    O13   A    
C35   N4    A    
C21   H23   S    
O13   Zn2   S    
C24   C25   A    
C39   O4    S    
O2    Zn1   S    
C4    C6    S    
C37   H3    S    
H16   O7    S    
C39   C43   A    
C1    O11   A    
C3    C5    A    
C25   C26   A    
O15   Zn2   S    
C42   C45   A    
C40   O8    S    
C7    H13   S    
C12   C41   A    
C3    C9    A    
C36   N3    A    
C38   H8    S    
C31   C32   A    
C23   C34   A    
C15   H18   S    
C14   H17   S    
C2    O10   S    
C20   H22   S    
C34   C45   A    
O3    Zn2   S    
C40   C41   A    
C5    C44   S    
C16   O15   A    
C22   C24   A    
C9    N2    S    
C48   H10   S    
C4    O12   A    
C15   C17   A    
C46   C47   A    
C34   C49   A    
C49   N2    A    
C49   O9    S    
C10   H15   S    
C11   H12   S    
C12   H1    S    
C6    C7    A    
C30   C36   A    
C26   H19   S    
C32   C33   A    
C19   C20   A    
C16   C29   S    
C47   H9    S    
C11   C13   A    
C5    C6    A    
C33   H7    S    
C33   C35   A    
O7    S1    S    
C39   N1    A    
C28   O3    A    
C10   C11   A    
C8    H14   S    
C20   C21   A    
C16   O14   A    
C42   C43   A    
C14   C15   A    
C19   H21   S    
C31   H6    S    
C21   C22   A    
O14   Zn1   S    
