data_mof_unit_56816.cif
_audit_creation_date              2012-12-11T15:46:46-0500
_audit_creation_method            fapswitch 2.2
_symmetry_space_group_name_H-M    P1
_symmetry_Int_Tables_number       1
_space_group_crystal_system       triclinic
_cell_length_a                    11.530612
_cell_length_b                    11.604727
_cell_length_c                    19.574395
_cell_angle_alpha                 90.299272
_cell_angle_beta                  90.012148
_cell_angle_gamma                 59.982601
_cell_volume                      2267.89270144

loop_
_atom_site_label
_atom_site_type_symbol
_atom_type_description
_atom_site_fract_x
_atom_site_fract_y
_atom_site_fract_z
_atom_type_partial_charge
C1    C     C_R   0.640476 0.116651 0.599374 0.546189
C2    C     C_1   0.641337 0.704037 0.668042 0.003946
C3    C     C_1   0.126200 0.199777 0.859238 0.005621
C4    C     C_1   0.171732 0.170191 0.727755 -0.029674
C5    C     C_1   0.149945 0.182931 0.798949 -0.029659
C6    C     C_1   0.195775 0.160354 0.667459 0.005456
C7    C     C_1   0.678366 0.192023 0.860697 0.005986
C8    C     C_1   0.658873 0.166608 0.729036 -0.029566
C9    C     C_1   0.665671 0.181148 0.800302 -0.029293
C10   C     C_1   0.653393 0.148652 0.668720 0.004766
C11   C     C_R   0.657509 0.687742 0.187336 0.030997
C12   C     C_R   0.612545 0.746048 0.598670 0.554862
C13   C     C_R   0.526683 0.755046 0.213597 -0.096297
C14   C     C_R   0.505011 0.786342 0.282229 0.072701
C15   C     C_R   0.743261 0.689844 0.299715 -0.109160
C16   C     C_R   0.766350 0.664086 0.230594 0.235763
C17   C     C_3   0.420525 0.716262 0.210388 -0.152037
C18   C     C_3   0.404306 0.740817 0.286139 0.446190
C19   C     C_R   0.612853 0.751966 0.325528 -0.028906
C20   C     C_R   0.123472 0.204945 0.196786 -0.005278
C21   C     C_R   0.153401 0.291777 0.230609 0.044260
C22   C     C_R   0.179527 0.278643 0.299035 0.013858
C23   C     C_R   0.241565 0.144866 0.598259 0.544857
C24   C     C_R   0.112296 0.114697 0.308205 -0.057761
C25   C     C_R   0.097107 0.117817 0.237037 0.218625
C26   C     C_3   0.260529 0.324119 0.215315 -0.275023
C27   C     C_3   0.290373 0.309042 0.290996 -0.218641
C28   C     C_R   0.171886 0.181143 0.337678 -0.032945
C29   C     C_R   0.685781 0.195732 0.199198 -0.065871
C30   C     C_R   0.784772 0.082402 0.231268 0.156618
C31   C     C_R   0.783706 0.064528 0.300452 -0.074781
C32   C     C_R   0.590019 0.284285 0.311470 0.217578
C33   C     C_R   0.592406 0.300845 0.240392 -0.113151
C34   C     C_R   0.647157 0.114147 0.403901 0.523186
C35   C     C_3   0.831271 0.939764 0.215426 0.473128
C36   C     C_3   0.832628 0.919056 0.291985 -0.206509
C37   C     C_R   0.678905 0.158876 0.340722 -0.032462
C38   C     C_R   0.081083 0.231845 0.928508 0.540003
C39   C     C_R   0.683930 0.604326 0.929465 0.546852
C40   C     C_R   0.708389 0.207163 0.930056 0.546712
C41   C     C_R   0.079654 0.237047 0.126347 0.545153
C42   C     C_R   0.682637 0.613485 0.124638 0.571509
C43   C     C_R   0.709956 0.213143 0.128165 0.571602
C44   C     C_R   0.585657 0.794522 0.395141 0.561624
C45   C     C_R   0.241175 0.143290 0.402634 0.538176
C46   C     C_1   0.670424 0.646303 0.860090 0.007122
C47   C     C_1   0.654846 0.683747 0.728451 -0.030455
C48   C     C_1   0.663497 0.666579 0.799681 -0.029695
Cr1   Cr    Cr6+3 0.404720 0.198220 0.499960 1.033165
Cr2   Cr    Cr6+3 0.698290 0.897110 0.500380 1.025853
Cr3   Cr    Cr6+3 0.396970 0.904720 0.499610 1.045672
Cr4   Cr    Cr6+3 0.926290 0.152010 0.028150 1.077511
Cr5   Cr    Cr6+3 0.921440 0.451830 0.027490 1.053924
Cr6   Cr    Cr6+3 0.626370 0.446880 0.028730 1.025932
H1    H     H_    0.520689 0.394343 0.217701 0.162262
H2    H     H_    0.755657 0.896309 0.309587 0.113325
H3    H     H_    0.332940 0.788032 0.179954 0.117126
H4    H     H_    0.090791 0.050403 0.338977 0.183288
O1    O     O_R   0.267750 0.231960 0.575440 -0.501860
O2    O     O_R   0.685950 0.784660 0.430010 -0.518679
O3    O     O_R   0.502510 0.767000 0.423980 -0.479150
O4    O     O_R   0.288320 0.026340 0.429250 -0.491643
O5    O     O_3   0.499990 0.000020 0.499980 -0.281251
O6    O     O_R   0.821590 0.119350 0.952850 -0.500100
O7    O     O_R   0.037230 0.162540 0.957390 -0.499686
O8    O     O_R   0.056530 0.344750 0.951370 -0.507309
O9    O     O_R   0.798000 0.560370 0.957490 -0.494414
O10   O     O_R   0.596230 0.579400 0.952760 -0.505868
O11   O     O_R   0.639160 0.321170 0.958690 -0.496528
O12   O     O_R   0.527290 0.186640 0.570530 -0.493860
O13   O     O_R   0.821370 0.124220 0.104400 -0.425880
O14   O     O_R   0.037020 0.167050 0.097880 -0.496748
O15   O     O_R   0.056310 0.349620 0.102920 -0.492741
O16   O     O_R   0.797790 0.564880 0.097980 -0.480956
O17   O     O_R   0.596000 0.584270 0.104310 -0.540611
O18   O     O_R   0.638950 0.325690 0.099180 -0.523051
O19   O     O_3   0.824700 0.350240 0.028120 -0.268639
O20   O     O_R   0.728110 0.003450 0.576380 -0.502711
O21   O     O_R   0.682980 0.789190 0.570500 -0.488076
O22   O     O_R   0.499300 0.771880 0.575540 -0.502803
O23   O     O_R   0.285350 0.030870 0.569740 -0.496860
O24   O     O_R   0.270960 0.227070 0.423890 -0.510535
O25   O     O_R   0.530270 0.182120 0.430040 -0.495019
O26   O     O_R   0.731320 0.998570 0.424830 -0.524876
H5    H     H_    0.828065 0.663885 0.332870 0.162172
H6    H     H_    0.342992 0.246668 0.183556 0.121975
H7    H     H_    0.389726 0.221835 0.303062 0.155744
H8    H     H_    0.266485 0.404170 0.316540 0.203014
O27   O     O_3   0.493395 0.387616 0.349490 -0.674089
H9    H     H_    0.528311 0.381168 0.396430 0.343607
O28   O     O_3   0.958516 0.874500 0.185113 -0.611640
H10   H     H_    0.995734 0.778055 0.192972 0.322006
O29   O     O_3   0.737440 0.920436 0.178438 -0.696163
H11   H     H_    0.649680 0.968412 0.202382 0.284832
H12   H     H_    0.934222 0.856326 0.313936 0.140454
O30   O     O_3   0.897391 0.605490 0.208903 -0.695129
H13   H     H_    0.898154 0.650508 0.166256 0.360227
H14   H     H_    0.456660 0.610626 0.197675 0.161912
O31   O     O_3   0.276376 0.840502 0.305312 -0.714718
H15   H     H_    0.215745 0.804331 0.296676 0.335965
O32   O     O_3   0.450662 0.623104 0.323487 -0.652683
H16   H     H_    0.400237 0.645898 0.367205 0.370878
O33   O     O_3   0.063608 0.030027 0.208948 -0.638670
H17   H     H_    0.125346 0.985468 0.170113 0.346084
H18   H     H_    0.219024 0.428028 0.197187 0.169838

loop_
_geom_bond_atom_site_label_1
_geom_bond_atom_site_label_2
_ccdc_geom_bond_type
C33   H1    S    
C21   C26   S    
O29   H11   S    
Cr1   O5    S    
C34   C37   S    
C39   O10   A    
C14   C18   S    
C45   O24   A    
Cr3   O3    S    
C2    C12   S    
Cr2   O21   S    
C20   C41   S    
Cr2   O26   S    
C23   O1    A    
C26   C27   S    
O32   H16   S    
C30   C35   S    
C36   H2    S    
C30   C31   A    
Cr6   O10   S    
C20   C25   A    
C15   C16   A    
C12   O21   A    
C29   C33   A    
C45   O4    A    
C11   C42   S    
Cr3   O22   S    
C15   C19   A    
O31   H15   S    
C3    C38   S    
C8    C9    S    
C7    C40   S    
C17   H14   S    
Cr3   O23   S    
C15   H5    S    
Cr6   O19   S    
C22   C28   A    
C21   C22   A    
C29   C43   S    
Cr2   O5    S    
Cr3   O4    S    
C34   O26   A    
Cr2   O20   S    
C26   H18   S    
C35   O29   S    
C46   C48   T    
C28   C45   S    
C16   O30   S    
C42   O16   A    
C40   O11   A    
C1    O20   A    
C38   O8    A    
Cr3   O5    S    
C24   C25   A    
C4    C6    T    
Cr4   O6    S    
O28   H10   S    
C25   O33   S    
C31   C37   A    
C18   O32   S    
Cr1   O24   S    
Cr5   O19   S    
C29   C30   A    
Cr4   O14   S    
C11   C16   A    
C47   C48   S    
C38   O7    A    
C26   H6    S    
O30   H13   S    
C17   C18   S    
C42   O17   A    
C32   C37   A    
C27   H7    S    
Cr5   O8    S    
C39   C46   S    
Cr6   O18   S    
C24   H4    S    
Cr1   O12   S    
C41   O14   A    
C32   O27   S    
C2    C47   T    
C18   O31   S    
Cr4   O19   S    
C19   C44   S    
C43   O18   A    
C7    C9    T    
C43   O13   A    
C23   O23   A    
C39   O9    A    
C14   C19   A    
Cr5   O15   S    
C1    C10   S    
C24   C28   A    
C4    C5    S    
C3    C5    T    
Cr1   O1    S    
C44   O3    A    
C1    O12   A    
C40   O6    A    
C13   C17   S    
C22   C27   S    
Cr2   O2    S    
C32   C33   A    
Cr1   O25   S    
Cr4   O13   S    
C11   C13   A    
C36   H12   S    
Cr6   O11   S    
C44   O2    A    
C6    C23   S    
C12   O22   A    
C27   H8    S    
Cr5   O9    S    
C41   O15   A    
Cr6   O17   S    
C20   C21   A    
C8    C10   T    
C34   O25   A    
O33   H17   S    
C31   C36   S    
C35   C36   S    
O27   H9    S    
C13   C14   A    
Cr4   O7    S    
C17   H3    S    
Cr5   O16   S    
C35   O28   S    
