data_mof_unit_38120.cif
_audit_creation_date              2012-12-10T20:37:29-0500
_audit_creation_method            fapswitch 2.2
_symmetry_space_group_name_H-M    P1
_symmetry_Int_Tables_number       1
_space_group_crystal_system       triclinic
_cell_length_a                    15.70762
_cell_length_b                    10.674179
_cell_length_c                    9.872832
_cell_angle_alpha                 89.329142
_cell_angle_beta                  89.087907
_cell_angle_gamma                 90.570587
_cell_volume                      1654.92933992

loop_
_atom_site_label
_atom_site_type_symbol
_atom_type_description
_atom_site_fract_x
_atom_site_fract_y
_atom_site_fract_z
_atom_type_partial_charge
C1    C     C_R   0.504880 0.260122 0.500330 0.894240
C2    C     C_3   0.083460 0.504683 0.504955 0.041128
C3    C     C_3   0.970064 0.584616 0.586396 0.036549
C4    C     C_3   0.917145 0.504269 0.491376 0.067979
C5    C     C_3   0.031184 0.621841 0.469450 -0.332774
C6    C     C_3   0.978569 0.538239 0.374744 0.567819
C7    C     C_1   0.174077 0.503104 0.506815 -0.005315
C8    C     C_1   0.826299 0.504212 0.490970 0.003741
C9    C     C_R   0.513345 0.061486 0.621125 0.016726
C10   C     C_R   0.522843 0.129380 0.500916 -0.118284
C11   C     C_R   0.552877 0.067947 0.383146 0.034976
C12   C     C_R   0.338016 0.500090 0.501147 0.896072
C13   C     C_R   0.552157 0.936129 0.381947 0.048845
C14   C     C_R   0.521021 0.870831 0.498026 -0.155640
C15   C     C_R   0.510098 0.934761 0.618104 -0.056085
C16   C     C_3   0.449145 0.925680 0.736720 0.376046
C17   C     C_3   0.453108 0.068472 0.740245 -0.557174
C18   C     C_R   0.427759 0.470158 0.073333 0.203277
C19   C     C_R   0.567691 0.545285 0.070674 -0.179644
C20   C     C_R   0.567744 0.547323 0.926289 0.143529
C21   C     C_R   0.427425 0.471657 0.931131 0.140030
C22   C     C_3   0.376561 0.353670 0.927314 -0.588317
C23   C     C_R   0.505079 0.739648 0.498963 0.903104
C24   C     C_3   0.378699 0.350028 0.081650 0.303221
C25   C     C_R   0.662075 0.500696 0.498766 0.895856
C26   C     C_3   0.969886 0.387095 0.527356 -0.383856
C27   C     C_3   0.032000 0.421702 0.407682 -0.317702
C28   C     C_1   0.249278 0.501598 0.504486 -0.172408
C29   C     C_1   0.750989 0.502768 0.494785 -0.173087
C30   C     C_3   0.022989 0.470240 0.622957 0.558382
H1    H     H_    0.059558 0.356095 0.332773 0.151987
H2    H     H_    0.479773 0.882080 0.826198 0.099642
H3    H     H_    0.392544 0.116566 0.717147 0.199155
H4    H     H_    0.486197 0.102624 0.831544 0.167826
H5    H     H_    0.622208 0.580240 0.124736 0.167995
H6    H     H_    0.312202 0.369241 0.885302 0.233212
H7    H     H_    0.412533 0.277132 0.880112 0.176098
H8    H     H_    0.417511 0.272899 0.125310 0.073802
H9    H     H_    0.942102 0.292562 0.547568 0.162160
H10   H     H_    0.057073 0.716995 0.446560 0.164915
N1    N     N_R   0.499430 0.499140 0.142800 -0.146822
N2    N     N_R   0.499430 0.499180 0.857150 -0.108449
O1    O     O_R   0.500010 0.316790 0.614690 -0.615867
O2    O     O_R   0.500000 0.316760 0.385350 -0.606836
O3    O     O_R   0.376780 0.500010 0.614650 -0.601028
O4    O     O_R   0.376770 0.499970 0.385310 -0.591269
O5    O     O_R   0.500000 0.683240 0.614650 -0.616544
O6    O     O_R   0.499990 0.683210 0.385310 -0.597515
O7    O     O_R   0.623230 0.500030 0.614690 -0.597505
O8    O     O_R   0.623220 0.499990 0.385350 -0.615205
Zn1   Zn    Zn3+2 0.500010 0.500020 0.653130 0.969344
Zn2   Zn    Zn3+2 0.499990 0.499980 0.346870 0.970677
N3    N     N_3   0.638701 0.601406 0.853055 -0.399304
H11   H     H_    0.617981 0.685299 0.809730 0.190213
H12   H     H_    0.687581 0.625056 0.919036 0.149907
O9    O     O_3   0.297450 0.369003 0.141485 -0.610475
C31   C     C_3   0.261976 0.254442 0.190525 0.115512
H13   H     H_    0.210311 0.277879 0.263792 0.155529
H14   H     H_    0.308516 0.197630 0.248430 0.113525
C32   C     C_3   0.223292 0.178298 0.075346 -0.384271
H15   H     H_    0.178927 0.238323 0.017772 0.224865
H16   H     H_    0.274466 0.146842 0.005039 0.223674
C33   C     C_3   0.175054 0.062995 0.129359 -0.968130
H17   H     H_    0.219331 0.998935 0.181875 0.272117
H18   H     H_    0.146173 0.012207 0.043702 0.272310
H19   H     H_    0.123414 0.090808 0.200731 0.265576
O10   O     O_3   0.952599 0.575698 0.244399 -0.644283
C34   C     C_3   0.024868 0.591317 0.157843 0.080280
H20   H     H_    0.033975 0.504254 0.098933 0.162899
H21   H     H_    0.085157 0.610559 0.212689 0.143593
C35   C     C_3   0.010387 0.701280 0.060734 -0.335678
H22   H     H_    0.955273 0.680117 0.995391 0.216437
H23   H     H_    0.995539 0.786320 0.120245 0.229136
C36   C     C_3   0.089193 0.728095 0.972016 -0.944041
H24   H     H_    0.144654 0.751350 0.035831 0.271363
H25   H     H_    0.077150 0.809287 0.903918 0.249515
H26   H     H_    0.104619 0.645445 0.909319 0.305721
N4    N     N_3   0.933772 0.673271 0.681639 -0.451492
H27   H     H_    0.984332 0.714582 0.732542 0.206314
H28   H     H_    0.897679 0.622391 0.753383 0.179956
O11   O     O_3   0.053379 0.448938 0.755252 -0.664180
C37   C     C_3   0.015326 0.341364 0.815857 0.066374
H29   H     H_    0.054300 0.316003 0.904648 0.164757
H30   H     H_    0.017394 0.258967 0.747909 0.133229
C38   C     C_3   0.924384 0.367329 0.866793 -0.380242
H31   H     H_    0.924434 0.452590 0.930097 0.236226
H32   H     H_    0.881879 0.383814 0.779751 0.216878
C39   C     C_3   0.888794 0.257503 0.950972 -0.924737
H33   H     H_    0.887519 0.171059 0.889440 0.257930
H34   H     H_    0.822820 0.278513 0.985134 0.270340
H35   H     H_    0.928395 0.241582 0.041709 0.263649
N5    N     N_3   0.581348 0.138413 0.265847 -0.428064
H36   H     H_    0.543449 0.114633 0.183814 0.166587
H37   H     H_    0.644394 0.114932 0.243508 0.179987
N6    N     N_3   0.579985 0.869638 0.263877 -0.431393
H38   H     H_    0.643320 0.894203 0.241969 0.175034
H39   H     H_    0.542378 0.895829 0.182078 0.176156
O12   O     O_3   0.366425 0.872934 0.716575 -0.617346
C40   C     C_3   0.327894 0.903236 0.591563 0.132846
H40   H     H_    0.341964 0.828259 0.517761 0.136807
H41   H     H_    0.349562 0.994255 0.546801 0.123960
C41   C     C_3   0.231496 0.907946 0.614112 -0.328428
H42   H     H_    0.208052 0.815681 0.653640 0.238042
H43   H     H_    0.216367 0.980381 0.690599 0.221318
C42   C     C_3   0.185628 0.939197 0.483119 -1.013003
H44   H     H_    0.206955 0.032256 0.443201 0.265714
H45   H     H_    0.115936 0.942174 0.503211 0.270697
H46   H     H_    0.198563 0.866601 0.405950 0.269083

loop_
_geom_bond_atom_site_label_1
_geom_bond_atom_site_label_2
_ccdc_geom_bond_type
C33   H18   S    
C18   C21   A    
N6    H38   S    
C4    C8    S    
C16   O12   S    
O11   C37   S    
N3    H11   S    
C20   N2    A    
C42   H45   S    
C26   C27   S    
C36   H25   S    
C13   N6    S    
C32   C33   S    
C18   C24   S    
C8    C29   T    
C5    C6    S    
N4    H28   S    
C26   H9    S    
C31   H14   S    
O3    Zn1   S    
C15   C16   S    
O12   C40   S    
O4    Zn2   S    
O9    C31   S    
C41   C42   S    
C32   H16   S    
C25   O8    A    
C2    C7    S    
C11   N5    S    
C1    O1    A    
C40   H40   S    
C34   H20   S    
O7    Zn1   S    
C36   H26   S    
O8    Zn2   S    
C2    C27   S    
C9    C10   A    
N1    Zn2   S    
N2    Zn1   S    
O2    Zn2   S    
C38   H32   S    
C33   H19   S    
C21   C22   S    
C17   H3    S    
N3    H12   S    
C25   C29   S    
C42   H46   S    
C23   O5    A    
C36   H24   S    
C27   H1    S    
O10   C34   S    
C12   O4    A    
C18   N1    A    
C35   H23   S    
N4    H27   S    
C16   C17   S    
C31   C32   S    
O5    Zn1   S    
C38   H31   S    
C22   H7    S    
C7    C28   T    
C21   N2    A    
C32   H15   S    
C14   C23   S    
C3    C30   S    
C1    O2    A    
C24   H8    S    
C6    C27   S    
C39   H35   S    
N5    H37   S    
C41   H43   S    
C4    C6    S    
C6    O10   S    
C40   H41   S    
C39   H34   S    
C26   C30   S    
C37   H30   S    
C22   C24   S    
C2    C5    S    
C16   H2    S    
C17   H4    S    
C3    C4    S    
C38   C39   S    
C9    C17   S    
C23   O6    A    
C1    C10   S    
C20   N3    S    
C3    C5    S    
C35   C36   S    
C4    C26   S    
N6    H39   S    
C12   O3    A    
C24   O9    S    
C37   C38   S    
C22   H6    S    
C42   H44   S    
C2    C30   S    
C19   C20   A    
C9    C15   A    
C35   H22   S    
C19   H5    S    
C11   C13   A    
O1    Zn1   S    
C31   H13   S    
C30   O11   S    
C34   C35   S    
N5    H36   S    
C41   H42   S    
C25   O7    A    
C10   C11   A    
C33   H17   S    
O6    Zn2   S    
C40   C41   S    
C39   H33   S    
C12   C28   S    
C34   H21   S    
C37   H29   S    
C5    H10   S    
C14   C15   A    
C13   C14   A    
C3    N4    S    
C19   N1    A    
