data_mof_unit_45126.cif
_audit_creation_date              2012-12-11T15:15:46-0500
_audit_creation_method            fapswitch 2.2
_symmetry_space_group_name_H-M    P1
_symmetry_Int_Tables_number       1
_space_group_crystal_system       triclinic
_cell_length_a                    20.603313
_cell_length_b                    22.746726
_cell_length_c                    6.942978
_cell_angle_alpha                 89.998869
_cell_angle_beta                  87.092943
_cell_angle_gamma                 90.000151
_cell_volume                      3249.69423515

loop_
_atom_site_label
_atom_site_type_symbol
_atom_type_description
_atom_site_fract_x
_atom_site_fract_y
_atom_site_fract_z
_atom_type_partial_charge
O1    O     O_R   0.387100 0.552640 0.378490 -0.536563
O2    O     O_R   0.612900 0.052640 0.621510 -0.536563
O3    O     O_R   0.249610 0.559600 0.072250 -0.546849
O4    O     O_R   0.750390 0.059600 0.927750 -0.546813
O5    O     O_R   0.249120 0.447360 0.902040 -0.541151
O6    O     O_R   0.750880 0.947360 0.097960 -0.541144
C1    C     C_R   0.226733 0.573167 0.243991 0.688020
C2    C     C_R   0.773263 0.073168 0.756006 0.688006
O7    O     O_R   0.386610 0.559560 0.048860 -0.537423
O8    O     O_R   0.613390 0.059560 0.951140 -0.537432
O9    O     O_R   0.387100 0.447320 0.878470 -0.536492
O10   O     O_R   0.612900 0.947320 0.121530 -0.536495
C3    C     C_R   0.407930 0.574701 0.214400 0.689264
C4    C     C_R   0.592070 0.074701 0.785597 0.689244
O11   O     O_R   0.249120 0.552680 0.402050 -0.543126
O12   O     O_R   0.750880 0.052680 0.597950 -0.543118
O13   O     O_3   0.318110 0.463180 0.223790 -0.367279
O14   O     O_3   0.681890 0.963180 0.776210 -0.367288
V1    V     V_3+5 0.318110 0.506830 0.948930 1.435853
V2    V     V_3+5 0.681890 0.006830 0.051070 1.435892
O15   O     O_R   0.386610 0.440400 0.548840 -0.538555
O16   O     O_R   0.613390 0.940400 0.451160 -0.538557
C5    C     C_R   0.407941 0.425260 0.714388 0.697141
C6    C     C_R   0.592058 0.925259 0.285615 0.697136
O17   O     O_R   0.249610 0.440440 0.572240 -0.543888
O18   O     O_R   0.750390 0.940440 0.427760 -0.543901
C7    C     C_R   0.227011 0.426625 0.743953 0.727247
C8    C     C_R   0.772988 0.926624 0.256050 0.727245
V3    V     V_3+5 0.318110 0.493170 0.448930 1.440326
V4    V     V_3+5 0.681890 0.993170 0.551070 1.440326
O19   O     O_3   0.318110 0.536820 0.723940 -0.371886
O20   O     O_3   0.681890 0.036820 0.276060 -0.371869
C9    C     C_R   0.172433 0.384541 0.757553 -0.128088
C10   C     C_R   0.827563 0.884538 0.242464 -0.128114
C11   C     C_R   0.160711 0.347956 0.600497 -0.142305
C12   C     C_R   0.839285 0.847959 0.399540 -0.142336
C13   C     C_R   0.107357 0.310482 0.606582 0.029232
C14   C     C_R   0.892635 0.810481 0.393468 0.029277
C15   C     C_R   0.064463 0.308370 0.769635 0.053513
C16   C     C_R   0.935524 0.808353 0.230405 0.053408
C17   C     C_R   0.075102 0.345670 0.927872 0.426220
C18   C     C_R   0.924888 0.845653 0.072156 0.426178
C19   C     C_R   0.129667 0.382802 0.921564 -0.244582
C20   C     C_R   0.870328 0.882790 0.078452 -0.244571
C21   C     C_R   0.903803 0.179119 0.897767 -0.113929
C22   C     C_R   0.096008 0.678908 0.102040 -0.113596
C23   C     C_R   0.847088 0.145599 0.904096 -0.152702
C24   C     C_R   0.152725 0.645393 0.095639 -0.152682
C25   C     C_R   0.869667 0.116172 0.571664 -0.154098
C26   C     C_R   0.130492 0.616374 0.428621 -0.154163
C27   C     C_R   0.926886 0.149262 0.566314 -0.105518
C28   C     C_R   0.073273 0.649464 0.434055 -0.105939
C29   C     C_R   0.944509 0.180386 0.729923 0.028046
C30   C     C_R   0.055478 0.680380 0.270215 0.027803
C31   C     C_2   0.006072 0.270607 0.766422 -0.168189
C32   C     C_2   0.993909 0.770582 0.233617 -0.168123
C33   C     C_2   0.006757 0.212347 0.728422 0.379783
C34   C     C_2   0.993230 0.712335 0.271844 0.379532
C35   C     C_R   0.829815 0.113143 0.741943 -0.047228
C36   C     C_R   0.170175 0.613140 0.258042 -0.047182
H1    H     H_    0.192445 0.348708 0.471260 0.146684
H2    H     H_    0.807553 0.848719 0.528782 0.146689
H3    H     H_    0.817374 0.144311 0.037268 0.127470
H4    H     H_    0.182299 0.643950 0.962217 0.127407
H5    H     H_    0.916936 0.202757 0.025567 0.163152
H6    H     H_    0.082738 0.702387 0.974067 0.163016
H7    H     H_    0.959554 0.291919 0.797995 0.162972
H8    H     H_    0.040425 0.791875 0.201811 0.163110
H9    H     H_    0.098652 0.284146 0.480954 0.217155
H10   H     H_    0.901339 0.784154 0.519116 0.217202
H11   H     H_    0.957833 0.150067 0.435444 0.161607
H12   H     H_    0.042455 0.650427 0.565180 0.161573
C37   C     C_R   0.576557 0.361247 0.668329 -0.146315
C38   C     C_R   0.423448 0.861238 0.331848 -0.146322
H13   H     H_    0.535257 0.447410 0.649017 0.115084
H14   H     H_    0.464749 0.947401 0.351165 0.115078
C39   C     C_R   0.461600 0.382044 0.713804 -0.043628
C40   C     C_R   0.538400 0.882043 0.286215 -0.043631
C41   C     C_R   0.474838 0.095171 0.824537 -0.168859
C42   C     C_R   0.525159 0.595178 0.175341 -0.168851
C43   C     C_R   0.421377 0.132547 0.832555 -0.091633
C44   C     C_R   0.578618 0.632556 0.167274 -0.091612
C45   C     C_R   0.429177 0.192853 0.804189 -0.145621
C46   C     C_R   0.570819 0.692859 0.195687 -0.145618
C47   C     C_R   0.491437 0.217717 0.766265 0.070186
C48   C     C_R   0.508563 0.717719 0.233710 0.070184
C49   C     C_R   0.546350 0.178813 0.756753 0.069190
C50   C     C_R   0.453652 0.678811 0.243279 0.069183
C51   C     C_R   0.500990 0.279775 0.737730 0.075670
C52   C     C_R   0.499010 0.779774 0.262288 0.075669
C53   C     C_R   0.565213 0.301011 0.699027 0.131784
C54   C     C_R   0.434791 0.801005 0.301097 0.131783
C55   C     C_R   0.617928 0.262151 0.690497 -0.187341
C56   C     C_R   0.382078 0.762142 0.309683 -0.187328
C57   C     C_R   0.608791 0.202167 0.719122 -0.191001
C58   C     C_R   0.391214 0.702160 0.281011 -0.190985
C59   C     C_R   0.449420 0.321755 0.745485 -0.209470
C60   C     C_R   0.550578 0.821757 0.254477 -0.209470
C61   C     C_R   0.525258 0.401228 0.674769 -0.165372
C62   C     C_R   0.474745 0.901222 0.325361 -0.165371
C63   C     C_R   0.537482 0.117255 0.786529 -0.086273
C64   C     C_R   0.462518 0.617256 0.213452 -0.086288
H15   H     H_    0.399433 0.309159 0.773940 0.101361
H16   H     H_    0.600562 0.809165 0.225944 0.101365
H17   H     H_    0.467299 0.048530 0.848473 0.114428
H18   H     H_    0.532697 0.548538 0.151358 0.114436
H19   H     H_    0.385415 0.218804 0.813028 0.127876
H20   H     H_    0.614579 0.718813 0.186803 0.127877
H21   H     H_    0.373217 0.114588 0.861807 0.151746
H22   H     H_    0.626775 0.614600 0.137943 0.151762
H23   H     H_    0.651293 0.174094 0.711204 0.109649
H24   H     H_    0.348714 0.674086 0.288974 0.109676
H25   H     H_    0.666925 0.278342 0.661266 0.138447
H26   H     H_    0.333083 0.778330 0.338994 0.138453
H27   H     H_    0.625466 0.377518 0.638206 0.131574
H28   H     H_    0.374542 0.877505 0.362056 0.131560
H29   H     H_    0.857800 0.091491 0.444758 0.128764
H30   H     H_    0.142493 0.591859 0.555741 0.128671
S1    S     S_3+6 0.079107 0.170314 0.696711 0.059001
O21   O     O_2   0.102765 0.171702 0.488354 -0.319570
O22   O     O_2   0.131228 0.194385 0.818416 -0.284386
O23   O     O_3   0.064077 0.100203 0.762247 -0.457986
H31   H     H_    0.044938 0.081671 0.649157 0.353996
S2    S     S_3+6 0.920896 0.670300 0.303924 0.059179
O24   O     O_2   0.897328 0.671719 0.512356 -0.319358
O25   O     O_2   0.868716 0.694340 0.182376 -0.284418
O26   O     O_3   0.935902 0.600178 0.238486 -0.457782
H32   H     H_    0.955355 0.581739 0.351236 0.353867
S3    S     S_3+6 0.020150 0.347657 0.132384 -0.007426
O27   O     O_2   0.010094 0.286389 0.209227 -0.323591
O28   O     O_2   0.045540 0.386029 0.287936 -0.347469
O29   O     O_3   0.948266 0.374231 0.067980 -0.478675
H33   H     H_    0.958515 0.413090 0.009660 0.348827
S4    S     S_3+6 0.979841 0.847639 0.867645 -0.007482
O30   O     O_2   0.989891 0.786373 0.790790 -0.323644
O31   O     O_2   0.954457 0.886019 0.712101 -0.347494
O32   O     O_3   0.051727 0.874203 0.932048 -0.478678
H34   H     H_    0.041486 0.913066 0.990361 0.348799
H35   H     H_    0.137732 0.411739 0.041841 0.173410
H36   H     H_    0.862265 0.911725 0.958164 0.173421

loop_
_geom_bond_atom_site_label_1
_geom_bond_atom_site_label_2
_ccdc_geom_bond_type
V4    O20   S    
C50   C58   A    
C13   H9    S    
C17   S3    S    
O13   V3    S    
O4    C2    A    
V1    O19   S    
S4    O32   S    
C14   H10   S    
C56   H26   S    
C15   C17   A    
C7    C9    S    
C58   H24   S    
O9    V1    S    
C27   H11   S    
C44   H22   S    
O16   C6    A    
C45   H19   S    
C11   C13   A    
C46   C48   A    
C22   H6    S    
O3    C1    A    
C2    C35   S    
C23   H3    S    
C48   C50   A    
C24   H4    S    
O12   V4    S    
C42   H18   S    
C31   H7    S    
C41   H17   S    
C38   C54   A    
O7    C3    A    
C9    C11   A    
O5    C7    A    
C21   H5    S    
O7    V1    S    
C15   C31   S    
O8    V2    S    
O29   H33   S    
C25   C27   A    
C49   C57   A    
C40   C60   A    
C26   C28   A    
C19   H35   S    
O14   V4    S    
C51   C53   A    
C10   C12   A    
C33   S1    S    
S3    O29   S    
C21   C23   A    
C8    C10   S    
C2    O12   A    
C49   C63   A    
C17   C19   A    
O10   V2    S    
C24   C36   A    
C18   C20   A    
C12   H2    S    
H13   C61   S    
C43   C45   A    
C28   C30   A    
O11   V3    S    
C47   C49   A    
O17   V3    S    
C22   C24   A    
C23   C35   A    
C9    C19   A    
C10   C20   A    
C37   C53   A    
C42   C44   A    
O8    C4    A    
C41   C43   A    
C29   C33   S    
C4    C63   S    
C38   C62   A    
C1    O11   A    
C16   C32   S    
C32   H8    S    
O15   V3    S    
C51   C59   A    
C27   C29   A    
C40   C62   A    
S4    O31   D    
C28   H12   S    
C53   C55   A    
C52   C54   A    
V3    O19   S    
C38   H28   S    
O3    V1    S    
C22   C30   A    
C54   C56   A    
C11   H1    S    
C55   H25   S    
C5    C39   S    
C56   C58   A    
C59   H15   S    
S1    O22   D    
S2    O26   S    
C6    C40   S    
C45   C47   A    
C43   H21   S    
O18   V4    S    
C44   C46   A    
C31   C33   D    
C48   C52   A    
C30   C34   S    
C25   H29   S    
H14   C62   S    
O26   H32   S    
C1    C36   S    
S2    O25   D    
S3    O27   D    
V2    O20   S    
S1    O23   S    
C37   C61   A    
C20   H36   S    
C47   C51   A    
O16   V4    S    
C26   H30   S    
O18   C8    A    
C16   C18   A    
C37   H27   S    
C50   C64   A    
S1    O21   D    
S4    O30   D    
O5    V1    S    
O17   C7    A    
O6    V2    S    
O32   H34   S    
O10   C6    A    
C34   S2    S    
C25   C35   A    
O2    V4    S    
C18   S4    S    
C26   C36   A    
O15   C5    A    
O23   H31   S    
C13   C15   A    
C57   H23   S    
C12   C14   A    
C14   C16   A    
O1    V3    S    
C60   H16   S    
O9    C5    A    
O13   V1    S    
C32   C34   D    
C39   C61   A    
O14   V2    S    
O2    C4    A    
C21   C29   A    
O4    V2    S    
O6    C8    A    
C46   H20   S    
O1    C3    A    
C55   C57   A    
C42   C64   A    
C41   C63   A    
C39   C59   A    
C3    C64   S    
C52   C60   A    
S2    O24   D    
S3    O28   D    
