data_mof_unit_38993.cif
_audit_creation_date              2012-12-10T18:09:45-0500
_audit_creation_method            fapswitch 2.2
_symmetry_space_group_name_H-M    P1
_symmetry_Int_Tables_number       1
_space_group_crystal_system       triclinic
_cell_length_a                    10.629445
_cell_length_b                    12.593362
_cell_length_c                    13.123875
_cell_angle_alpha                 82.229433
_cell_angle_beta                  90.56505
_cell_angle_gamma                 102.427725
_cell_volume                      1699.51407762

loop_
_atom_site_label
_atom_site_type_symbol
_atom_type_description
_atom_site_fract_x
_atom_site_fract_y
_atom_site_fract_z
_atom_type_partial_charge
C1    C     C_R   0.480894 0.438707 0.691209 0.846842
C2    C     C_3   0.121495 0.499318 0.496826 0.140015
C3    C     C_3   0.096677 0.597736 0.420478 -0.419093
C4    C     C_3   0.075788 0.508581 0.606333 -0.417015
C5    C     C_R   0.404410 0.699270 0.064574 -0.201782
C6    C     C_R   0.501920 0.596842 0.200128 -0.049470
C7    C     C_R   0.505536 0.301244 0.838087 -0.199043
C8    C     C_R   0.519989 0.273538 0.942844 -0.148861
C9    C     C_R   0.505634 0.346582 0.010229 -0.196248
C10   C     C_R   0.470162 0.447143 0.973646 0.085125
C11   C     C_R   0.436230 0.466395 0.869908 0.085931
C12   C     C_R   0.742065 0.500746 0.498390 0.855528
C13   C     C_R   0.467240 0.529329 0.036412 0.075581
C14   C     C_R   0.411395 0.619961 0.000500 0.175789
C15   C     C_R   0.361362 0.628884 0.902051 -0.253418
C16   C     C_R   0.373608 0.553096 0.837332 -0.205837
C17   C     C_R   0.520382 0.524591 0.133675 -0.255933
C18   C     C_R   0.447449 0.686581 0.165207 -0.213829
C19   C     C_R   0.467922 0.399263 0.800920 -0.114494
C20   C     C_R   0.324599 0.089345 0.344112 -0.304783
C21   C     C_R   0.651967 0.799252 0.630331 0.022510
C22   C     C_R   0.683485 0.903829 0.658764 -0.253191
C23   C     C_R   0.513085 0.561125 0.308779 0.866533
C24   C     C_R   0.625939 0.985557 0.609408 -0.211239
C25   C     C_R   0.536190 0.962659 0.530783 0.013273
C26   C     C_R   0.508323 0.854884 0.504141 0.241963
C27   C     C_R   0.473465 0.041868 0.477597 -0.025070
C28   C     C_R   0.386008 0.012171 0.398314 0.199223
C29   C     C_R   0.361229 0.905985 0.373395 -0.308871
C30   C     C_R   0.421529 0.828639 0.425750 -0.227917
C31   C     C_R   0.494133 0.150234 0.499188 -0.065491
C32   C     C_R   0.350135 0.195230 0.368743 -0.000026
C33   C     C_R   0.258210 0.499884 0.498370 0.833507
C34   C     C_3   0.900396 0.390267 0.462961 0.380817
C35   C     C_3   0.044320 0.391471 0.462167 -0.449483
C36   C     C_3   0.952328 0.598300 0.420384 -0.371887
C37   C     C_3   0.931860 0.510017 0.605950 -0.508652
C38   C     C_3   0.878879 0.500049 0.496476 0.114173
H1    H     H_    0.131060 0.585065 0.633079 0.190176
H2    H     H_    0.938667 0.677195 0.443045 0.176618
H3    H     H_    0.151397 0.676635 0.442839 0.188460
H4    H     H_    0.432035 0.743046 0.216680 0.148073
H5    H     H_    0.360878 0.768166 0.038312 0.134548
H6    H     H_    0.527989 0.247885 0.785914 0.148889
H7    H     H_    0.519620 0.321013 0.090557 0.132336
H8    H     H_    0.547813 0.197345 0.971525 0.139006
H9    H     H_    0.852253 0.321977 0.522691 0.042964
H10   H     H_    0.332277 0.562410 0.761830 0.164731
H11   H     H_    0.304301 0.256497 0.327392 0.132028
H12   H     H_    0.294841 0.882442 0.313026 0.150128
H13   H     H_    0.258119 0.068083 0.283232 0.141310
H14   H     H_    0.558271 0.180553 0.557752 0.116820
H15   H     H_    0.695985 0.735180 0.668560 0.137261
H16   H     H_    0.653829 0.065273 0.634258 0.128313
H17   H     H_    0.752123 0.921491 0.718948 0.147445
H18   H     H_    0.398592 0.748728 0.402974 0.209162
H19   H     H_    0.061200 0.318931 0.514814 0.143609
H20   H     H_    0.077483 0.384020 0.383680 0.190219
H21   H     H_    0.914638 0.593482 0.341346 0.192504
H22   H     H_    0.129741 0.592150 0.341522 0.163150
H23   H     H_    0.918191 0.587702 0.631382 0.201021
H24   H     H_    0.878781 0.440915 0.661972 0.160484
H25   H     H_    0.092732 0.438039 0.661613 0.161533
N1    N     N_R   0.433240 0.222190 0.444680 -0.099725
N2    N     N_R   0.566070 0.776970 0.554790 -0.130736
O1    O     O_R   0.468120 0.366740 0.627160 -0.616687
O2    O     O_R   0.510770 0.544830 0.662520 -0.613817
O3    O     O_R   0.663880 0.410950 0.482330 -0.602583
O4    O     O_R   0.706530 0.589040 0.517700 -0.629891
O5    O     O_R   0.489230 0.455170 0.337480 -0.614039
O6    O     O_R   0.531880 0.633260 0.372840 -0.634692
O7    O     O_R   0.293470 0.410960 0.482300 -0.623393
O8    O     O_R   0.336120 0.589050 0.517670 -0.647851
Zn1   Zn    Zn3+2 0.471520 0.381090 0.476390 0.932969
Zn2   Zn    Zn3+2 0.528480 0.618910 0.523610 0.917460
O9    O     O_3   0.849404 0.378541 0.363445 -0.638308
C39   C     C_3   0.812709 0.266744 0.349408 0.101932
H26   H     H_    0.750792 0.217086 0.414315 0.134203
H27   H     H_    0.899973 0.232665 0.342122 0.130247
C40   C     C_3   0.734898 0.258110 0.251236 -0.313850
H28   H     H_    0.645639 0.288843 0.260245 0.229103
H29   H     H_    0.792363 0.309986 0.185216 0.221768
C41   C     C_3   0.698063 0.139827 0.228431 -0.970907
H30   H     H_    0.785926 0.108937 0.214887 0.263025
H31   H     H_    0.638613 0.136135 0.158478 0.259695
H32   H     H_    0.641379 0.086126 0.293658 0.277387
H33   H     H_    0.314715 0.695513 0.874384 0.147725
H34   H     H_    0.572162 0.462001 0.161800 0.144999

loop_
_geom_bond_atom_site_label_1
_geom_bond_atom_site_label_2
_ccdc_geom_bond_type
C2    C35   S    
C21   H15   S    
C12   O4    A    
C9    H7    S    
C17   H34   S    
C31   H14   S    
C36   H21   S    
C16   H10   S    
C37   H24   S    
C7    C8    A    
C39   H26   S    
C12   O3    A    
C4    H25   S    
C11   C19   A    
C29   C30   A    
C35   H20   S    
C28   C29   A    
C20   H13   S    
C18   H4    S    
C24   H16   S    
C15   C16   A    
O1    Zn1   S    
C34   C35   S    
C33   O7    A    
C8    C9    A    
O5    Zn1   S    
C9    C10   A    
C3    H22   S    
C5    H5    S    
C21   C22   A    
O8    Zn2   S    
C23   O5    A    
C40   C41   S    
C29   H12   S    
C39   H27   S    
C6    C18   A    
C1    C19   S    
C27   C31   A    
C23   O6    A    
C36   H2    S    
O9    C39   S    
C32   N1    A    
O7    Zn1   S    
C5    C18   A    
C20   C28   A    
C25   C26   A    
C30   H18   S    
C2    C4    S    
C37   C38   S    
C11   C16   A    
C41   H30   S    
C4    H1    S    
C1    O1    A    
C7    H6    S    
C24   C25   A    
C5    C14   A    
C2    C33   S    
C33   O8    A    
C41   H31   S    
C26   C30   A    
C7    C19   A    
C22   C24   A    
O2    Zn2   S    
C15   H33   S    
C20   C32   A    
C39   C40   S    
C6    C17   A    
C3    H3    S    
C21   N2    A    
C34   C38   S    
C26   N2    A    
C31   N1    A    
C40   H28   S    
C10   C13   A    
C37   H23   S    
C22   H17   S    
C25   C27   A    
N2    Zn2   S    
C13   C17   A    
C35   H19   S    
C36   C38   S    
C2    C3    S    
O6    Zn2   S    
C3    C36   S    
C6    C23   S    
C1    O2    A    
C40   H29   S    
O4    Zn2   S    
C12   C38   S    
C8    H8    S    
C32   H11   S    
C10   C11   A    
C41   H32   S    
C4    C37   S    
C27   C28   A    
N1    Zn1   S    
C14   C15   A    
C34   H9    S    
C13   C14   A    
O3    Zn1   S    
C34   O9    S    
