data_mof_unit_11300.cif
_audit_creation_date              2012-12-11T14:04:14-0500
_audit_creation_method            fapswitch 2.2
_symmetry_space_group_name_H-M    P1
_symmetry_Int_Tables_number       1
_space_group_crystal_system       triclinic
_cell_length_a                    19.167478
_cell_length_b                    10.867532
_cell_length_c                    18.917659
_cell_angle_alpha                 89.603316
_cell_angle_beta                  88.962694
_cell_angle_gamma                 90.362983
_cell_volume                      3939.78606692

loop_
_atom_site_label
_atom_site_type_symbol
_atom_type_description
_atom_site_fract_x
_atom_site_fract_y
_atom_site_fract_z
_atom_type_partial_charge
C1    C     C_R   0.240947 0.465392 0.647565 0.601047
C2    C     C_R   0.038472 0.644859 0.561785 -0.002577
C3    C     C_R   0.458297 0.148096 0.438074 0.027706
C4    C     C_R   0.538471 0.144860 0.561785 -0.002391
C5    C     C_R   0.962252 0.877498 0.444480 -0.024294
C6    C     C_R   0.069239 0.860224 0.538750 -0.087103
C7    C     C_R   0.462247 0.377499 0.444483 -0.024082
C8    C     C_R   0.569234 0.360227 0.538753 -0.087209
C9    C     C_R   0.999240 0.982997 0.462649 -0.075148
C10   C     C_R   0.055048 0.973482 0.507816 -0.103897
C11   C     C_R   0.499231 0.483001 0.462656 -0.074825
C12   C     C_R   0.775803 0.525228 0.359459 0.627734
C13   C     C_R   0.555040 0.473487 0.507822 -0.103926
C14   C     C_R   0.029655 0.754762 0.523959 -0.003592
C15   C     C_R   0.982233 0.759601 0.468617 0.016193
C16   C     C_R   0.529652 0.254763 0.523961 -0.003581
C17   C     C_R   0.482230 0.259601 0.468618 0.016212
C18   C     C_R   0.013450 0.531196 0.532825 -0.020449
C19   C     C_R   0.968580 0.532573 0.474778 0.003078
C20   C     C_R   0.513448 0.031197 0.532825 -0.020360
C21   C     C_R   0.468577 0.032574 0.474779 0.003082
C22   C     C_R   0.032627 0.413353 0.559871 0.388329
C23   C     C_R   0.740947 0.965389 0.647566 0.600979
C24   C     C_R   0.937527 0.415517 0.457006 0.397307
C25   C     C_R   0.532624 0.913354 0.559871 0.388373
C26   C     C_R   0.437521 0.915520 0.457009 0.397421
C27   C     C_R   0.994471 0.308178 0.548117 -0.114950
C28   C     C_R   0.944392 0.311065 0.498342 -0.099925
C29   C     C_R   0.494464 0.808180 0.548122 -0.115029
C30   C     C_R   0.444383 0.811070 0.498350 -0.099866
C31   C     C_2   0.238960 0.899652 0.927489 -0.092683
C32   C     C_2   0.776164 0.854699 0.065865 -0.101017
C33   C     C_2   0.752456 0.425250 0.917485 -0.101053
C34   C     C_R   0.275802 0.025226 0.359459 0.627237
C35   C     C_2   0.276113 0.354938 0.065912 -0.091775
C36   C     C_2   0.249990 0.901117 0.083592 -0.100455
C37   C     C_2   0.753225 0.889740 0.913185 -0.107257
C38   C     C_2   0.755983 0.436610 0.073704 -0.095226
C39   C     C_2   0.253212 0.390141 0.913280 -0.107849
C40   C     C_R   0.228192 0.878254 0.649909 0.543634
C41   C     C_R   0.772860 0.873098 0.352994 0.555390
C42   C     C_R   0.728192 0.378256 0.649910 0.541865
C43   C     C_R   0.272859 0.373100 0.352993 0.554760
C44   C     C_2   0.191119 0.920717 0.048556 -0.159703
C45   C     C_2   0.263791 0.847194 0.529710 0.333645
C46   C     C_2   0.815867 0.897024 0.943944 -0.146560
C47   C     C_2   0.723091 0.516699 0.031009 -0.155328
C48   C     C_2   0.315831 0.397759 0.944067 -0.148817
C49   C     C_2   0.184715 0.895264 0.973559 -0.151324
C50   C     C_2   0.827803 0.858891 0.017397 -0.165782
C51   C     C_2   0.710469 0.494850 0.956830 -0.162695
C52   C     C_2   0.327795 0.359730 0.017512 -0.168095
C53   C     C_2   0.010122 0.655301 0.926367 -0.104344
C54   C     C_2   0.009094 0.665664 0.082545 -0.109149
C55   C     C_2   0.509774 0.155199 0.926229 -0.097651
C56   C     C_2   0.721037 0.822502 0.468338 0.401471
C57   C     C_2   0.508788 0.165451 0.082399 -0.108859
C58   C     C_2   0.023053 0.564942 0.045110 -0.157402
C59   C     C_2   0.037156 0.569639 0.969540 -0.153287
C60   C     C_2   0.522443 0.064602 0.044954 -0.161028
C61   C     C_2   0.536435 0.069120 0.969382 -0.152191
C62   C     C_R   0.061005 0.649022 0.636778 0.593018
C63   C     C_R   0.937872 0.648650 0.362885 0.574521
C64   C     C_R   0.561005 0.149022 0.636778 0.592942
C65   C     C_R   0.437872 0.148650 0.362885 0.574533
C66   C     C_R   0.238935 0.462831 0.849928 0.539115
C67   C     C_2   0.763800 0.347206 0.529714 0.333983
C68   C     C_R   0.762815 0.471064 0.147285 0.546316
C69   C     C_R   0.738945 0.962741 0.849910 0.539312
C70   C     C_R   0.261419 0.964539 0.149829 0.545787
C71   C     C_R   0.225290 0.869943 0.854425 0.548083
C72   C     C_R   0.790875 0.827808 0.139366 0.557969
C73   C     C_R   0.727541 0.374733 0.851930 0.551778
C74   C     C_R   0.290848 0.327892 0.139368 0.561365
C75   C     C_R   0.031038 0.651419 0.852433 0.557156
C76   C     C_R   0.972168 0.653401 0.149799 0.554597
C77   C     C_R   0.530935 0.151411 0.852367 0.559254
C78   C     C_2   0.221036 0.322506 0.468336 0.401466
C79   C     C_R   0.472124 0.153371 0.149779 0.554593
C80   C     C_2   0.249212 0.926160 0.581911 -0.050877
C81   C     C_2   0.752574 0.906677 0.425017 -0.044006
C82   C     C_2   0.749213 0.426167 0.581913 -0.050527
C83   C     C_2   0.252572 0.406681 0.425016 -0.044024
C84   C     C_2   0.273651 0.999672 0.433947 0.382639
C85   C     C_2   0.761441 0.907421 0.580869 0.340354
C86   C     C_2   0.773653 0.499679 0.433948 0.382142
C87   C     C_2   0.261440 0.407426 0.580867 0.340359
C88   C     C_2   0.259134 0.885174 0.456019 -0.046999
C89   C     C_R   0.958299 0.648096 0.438073 0.027737
C90   C     C_2   0.718749 0.833635 0.545760 -0.019503
C91   C     C_2   0.759141 0.385181 0.456023 -0.046992
C92   C     C_2   0.218748 0.333640 0.545758 -0.019487
Cr1   Cr    Cr6+3 0.113970 0.508630 0.747920 1.073373
Cr2   Cr    Cr6+3 0.887700 0.820070 0.250200 1.022430
Cr3   Cr    Cr6+3 0.612300 0.320070 0.749800 1.034341
Cr4   Cr    Cr6+3 0.387700 0.320070 0.250200 1.025104
Cr5   Cr    Cr6+3 0.886030 0.508630 0.252080 1.093709
Cr6   Cr    Cr6+3 0.613970 0.008630 0.747920 1.071967
Cr7   Cr    Cr6+3 0.386030 0.008630 0.252080 1.092513
Cr8   Cr    Cr6+3 0.269200 0.666740 0.749850 1.078153
Cr9   Cr    Cr6+3 0.730800 0.666740 0.250150 1.069350
Cr10  Cr    Cr6+3 0.769200 0.166740 0.749850 1.077532
Cr11  Cr    Cr6+3 0.230800 0.166740 0.250150 1.070271
Cr12  Cr    Cr6+3 0.112300 0.820070 0.749800 1.032927
F1    F     F_    0.270248 0.724541 0.543112 -0.618038
F2    F     F_    0.089964 0.396371 0.596453 -0.660222
F3    F     F_    0.406423 0.888728 0.397386 -0.621650
F4    F     F_    0.589964 0.896371 0.596450 -0.660317
F5    F     F_    0.687332 0.723359 0.441441 -0.621686
F6    F     F_    0.770265 0.224558 0.543117 -0.617879
F7    F     F_    0.187334 0.223359 0.441440 -0.621712
F8    F     F_    0.302124 0.085208 0.477101 -0.683197
F9    F     F_    0.823610 0.943561 0.551095 -0.631076
F10   F     F_    0.802125 0.585219 0.477101 -0.683256
F11   F     F_    0.323608 0.443570 0.551092 -0.631156
F12   F     F_    0.906423 0.388730 0.397386 -0.621746
H1    H     H_    0.245654 0.814766 0.417930 0.120540
H2    H     H_    0.710252 0.838614 0.937621 0.092393
H3    H     H_    0.780336 0.353255 0.054268 0.103454
H4    H     H_    0.210246 0.339047 0.937731 0.098972
H5    H     H_    0.292278 0.913758 0.944163 0.097323
H6    H     H_    0.722236 0.869917 0.051832 0.105966
H7    H     H_    0.801757 0.392373 0.937580 0.111211
H8    H     H_    0.222163 0.369902 0.051878 0.110468
H9    H     H_    0.019983 0.473943 0.069185 0.159183
H10   H     H_    0.068242 0.494530 0.948458 0.155016
H11   H     H_    0.519328 0.973631 0.069064 0.158317
H12   H     H_    0.680848 0.777919 0.574642 0.163846
H13   H     H_    0.567293 0.993702 0.948321 0.153560
H14   H     H_    0.015596 0.757000 0.059538 0.094259
H15   H     H_    0.979382 0.731780 0.945984 0.085155
H16   H     H_    0.515281 0.256740 0.059347 0.103901
H17   H     H_    0.479238 0.231933 0.945840 0.086385
H18   H     H_    0.233934 0.020139 0.570785 0.130258
H19   H     H_    0.773958 0.991771 0.445144 0.154566
H20   H     H_    0.733933 0.520142 0.570786 0.130171
H21   H     H_    0.273955 0.491777 0.445141 0.154548
H22   H     H_    0.985809 0.070999 0.439960 0.131430
H23   H     H_    0.745663 0.314769 0.417935 0.120912
H24   H     H_    0.086577 0.053461 0.519688 0.155688
H25   H     H_    0.485797 0.571005 0.439969 0.131552
H26   H     H_    0.586567 0.553469 0.519695 0.155636
H27   H     H_    0.917736 0.889609 0.412348 0.180954
H28   H     H_    0.113616 0.852090 0.570933 0.150308
H29   H     H_    0.417732 0.389608 0.412350 0.180879
H30   H     H_    0.613613 0.352094 0.570935 0.150539
H31   H     H_    0.007119 0.222409 0.574249 0.149292
H32   H     H_    0.916508 0.227340 0.485677 0.190567
H33   H     H_    0.507111 0.722412 0.574255 0.149075
H34   H     H_    0.180848 0.277922 0.574640 0.164032
H35   H     H_    0.416496 0.727346 0.485687 0.190547
H36   H     H_    0.146500 0.963934 0.074215 0.157070
H37   H     H_    0.859630 0.941268 0.916492 0.155975
H38   H     H_    0.699632 0.599989 0.051916 0.153461
H39   H     H_    0.359569 0.442075 0.916610 0.157230
H40   H     H_    0.131973 0.879759 0.955155 0.152907
H41   H     H_    0.881415 0.845741 0.033493 0.128418
H42   H     H_    0.662793 0.532683 0.935611 0.155101
H43   H     H_    0.381429 0.346945 0.033640 0.128384
H44   H     H_    0.293209 0.851449 0.059556 0.112015
O1    O     O_R   0.043230 0.549300 0.667990 -0.441781
O2    O     O_R   0.832470 0.905110 0.169660 -0.492853
O3    O     O_R   0.667530 0.405110 0.830340 -0.515442
O4    O     O_R   0.332470 0.405110 0.169660 -0.494915
O5    O     O_R   0.054010 0.748440 0.822860 -0.497078
O6    O     O_R   0.945990 0.748440 0.177140 -0.512466
O7    O     O_R   0.554010 0.248440 0.822860 -0.490566
O8    O     O_R   0.445990 0.248440 0.177140 -0.510759
O9    O     O_3   0.165160 0.665150 0.749190 -0.286667
O10   O     O_3   0.834840 0.665150 0.250810 -0.334674
O11   O     O_3   0.665160 0.165150 0.749190 -0.284894
O12   O     O_R   0.956770 0.549300 0.332010 -0.433493
O13   O     O_3   0.334840 0.165150 0.250810 -0.333698
O14   O     O_R   0.178620 0.457600 0.674100 -0.474414
O15   O     O_R   0.821380 0.457600 0.325900 -0.452383
O16   O     O_R   0.678620 0.957600 0.674100 -0.474764
O17   O     O_R   0.321380 0.957600 0.325900 -0.453425
O18   O     O_R   0.284680 0.542100 0.669460 -0.428952
O19   O     O_R   0.715320 0.542100 0.330540 -0.491755
O20   O     O_R   0.784680 0.042100 0.669460 -0.428694
O21   O     O_R   0.215320 0.042100 0.330540 -0.493944
O22   O     O_R   0.262860 0.790390 0.676650 -0.430947
O23   O     O_R   0.543230 0.049300 0.667990 -0.442098
O24   O     O_R   0.737140 0.790390 0.323350 -0.434344
O25   O     O_R   0.762860 0.290390 0.676650 -0.431643
O26   O     O_R   0.237140 0.290390 0.323350 -0.434922
O27   O     O_R   0.167460 0.907030 0.670940 -0.556396
O28   O     O_R   0.832540 0.907030 0.329060 -0.544375
O29   O     O_R   0.667460 0.407030 0.670940 -0.558056
O30   O     O_R   0.332540 0.407030 0.329060 -0.544574
O31   O     O_R   0.053950 0.750220 0.675100 -0.498551
O32   O     O_R   0.946050 0.750220 0.324900 -0.527412
O33   O     O_R   0.553950 0.250220 0.675100 -0.499410
O34   O     O_R   0.456770 0.049300 0.332010 -0.433187
O35   O     O_R   0.446050 0.250220 0.324900 -0.526891
O36   O     O_R   0.043300 0.547370 0.827390 -0.509928
O37   O     O_R   0.956700 0.547370 0.172610 -0.505126
O38   O     O_R   0.543300 0.047370 0.827390 -0.512478
O39   O     O_R   0.456700 0.047370 0.172610 -0.505607
O40   O     O_R   0.178690 0.455820 0.821860 -0.512173
O41   O     O_R   0.821310 0.455820 0.178140 -0.495297
O42   O     O_R   0.678690 0.955820 0.821860 -0.512920
O43   O     O_R   0.321310 0.955820 0.178140 -0.499032
O44   O     O_R   0.284750 0.540170 0.828860 -0.517313
O45   O     O_R   0.262920 0.788600 0.824420 -0.499726
O46   O     O_R   0.715250 0.540170 0.171140 -0.520871
O47   O     O_R   0.784750 0.040170 0.828860 -0.517381
O48   O     O_R   0.215250 0.040170 0.171140 -0.521007
O49   O     O_R   0.737080 0.788600 0.175580 -0.503838
O50   O     O_R   0.762920 0.288600 0.824420 -0.503730
O51   O     O_R   0.237080 0.288600 0.175580 -0.498077
O52   O     O_R   0.167530 0.905110 0.830340 -0.515612

loop_
_geom_bond_atom_site_label_1
_geom_bond_atom_site_label_2
_ccdc_geom_bond_type
C44   C49   S    
C1    C87   S    
C21   C26   A    
C35   C74   S    
C8    C13   A    
Cr5   O15   S    
C37   C69   S    
C2    C18   A    
C43   C83   S    
C57   C79   S    
C49   H40   S    
C42   C82   S    
Cr8   O18   S    
Cr2   O6    S    
C53   C59   D    
C56   C81   D    
C32   C72   S    
C40   O27   A    
C53   C75   S    
C59   H10   S    
C7    C11   A    
Cr7   O34   S    
Cr1   O9    S    
C44   H36   S    
Cr5   O12   S    
C10   H24   S    
Cr9   O19   S    
C35   H8    S    
Cr2   O28   S    
Cr7   O17   S    
C48   C52   S    
Cr3   O3    S    
C86   C91   D    
C76   O37   A    
C54   C58   D    
C55   C77   S    
C5    H27   S    
C62   O1    A    
C15   C89   A    
C20   C25   A    
C70   O48   A    
C63   O32   A    
Cr1   O14   S    
Cr11  O13   S    
C80   H18   S    
C34   O21   A    
C18   C19   A    
C1    O18   A    
Cr4   O30   S    
Cr6   O23   S    
C46   H37   S    
C57   H16   S    
Cr12  O5    S    
C64   O23   A    
C78   C83   D    
Cr4   O35   S    
C37   H2    S    
C43   O30   A    
C36   C70   S    
C16   C17   A    
C7    C17   A    
Cr4   O8    S    
C41   O24   A    
C76   O6    A    
C78   F7    S    
C53   H15   S    
C79   O8    A    
Cr8   O22   S    
Cr10  O47   S    
Cr2   O2    S    
C87   F11   S    
C61   H13   S    
C66   O44   A    
C75   O36   A    
C52   H43   S    
C56   C90   S    
C68   O41   A    
C69   O42   A    
Cr3   O33   S    
C18   C22   A    
C87   C92   D    
C63   C89   S    
C3    C65   S    
Cr11  O26   S    
C34   C84   S    
C31   C49   D    
Cr8   O44   S    
C45   F1    S    
C81   H19   S    
C40   O22   A    
C50   H41   S    
C25   C29   A    
C54   H14   S    
C1    O14   A    
C69   O47   A    
Cr10  O25   S    
C79   O39   A    
Cr4   O13   S    
Cr6   O38   S    
Cr5   O37   S    
C73   O50   A    
Cr1   O40   S    
Cr11  O48   S    
C31   H5    S    
Cr11  O51   S    
C36   H44   S    
Cr10  O50   S    
C57   C60   D    
C47   C51   S    
C23   O16   A    
C43   O26   A    
Cr9   O49   S    
C58   C59   S    
C55   H17   S    
Cr12  O31   S    
Cr5   O10   S    
Cr4   O4    S    
C41   O28   A    
C60   C61   S    
C4    C16   A    
C5    C9    A    
C29   C30   A    
C19   C89   A    
C32   H6    S    
C6    C14   A    
Cr6   O16   S    
C9    H22   S    
C67   F6    S    
C72   O49   A    
Cr7   O13   S    
Cr1   O1    S    
C85   C90   D    
C41   C81   S    
C64   O33   A    
C45   C88   S    
C67   C91   S    
C23   O20   A    
Cr9   O10   S    
C75   O5    A    
C40   C80   S    
C84   F8    S    
C13   H26   S    
Cr10  O11   S    
C11   H25   S    
C32   C50   D    
C38   C47   D    
Cr9   O24   S    
C58   H9    S    
C12   O15   A    
C54   C76   S    
Cr6   O11   S    
C42   O25   A    
C33   C73   S    
C48   H39   S    
C38   C68   S    
C24   F12   S    
C22   C27   A    
C92   H34   S    
C39   C66   S    
C91   H23   S    
C36   C44   D    
Cr1   O36   S    
C77   O7    A    
Cr12  O52   S    
C6    H28   S    
C56   F5    S    
C83   H21   S    
C24   C28   A    
C38   H3    S    
C65   O34   A    
C9    C10   A    
C70   O43   A    
Cr12  O27   S    
C46   C50   S    
C35   C52   D    
C90   H12   S    
Cr7   O43   S    
Cr8   O9    S    
Cr11  O21   S    
C28   H32   S    
C63   O12   A    
Cr6   O42   S    
C60   H11   S    
C8    H30   S    
C84   C88   D    
C77   O38   A    
Cr5   O41   S    
Cr3   O7    S    
C26   F3    S    
C6    C10   A    
Cr8   O45   S    
C26   C30   A    
C62   O31   A    
C47   H38   S    
C33   C51   D    
C4    C64   S    
C51   H42   S    
C12   C86   S    
C74   O51   A    
C86   F10   S    
C78   C92   S    
C85   F9    S    
C19   C24   A    
C37   C46   D    
C73   O3    A    
C27   H31   S    
C22   F2    S    
Cr2   O10   S    
C74   O4    A    
C11   C13   A    
C42   O29   A    
C30   H35   S    
C68   O46   A    
Cr10  O20   S    
C55   C61   D    
C31   C71   S    
C3    C17   A    
C45   C80   D    
C82   H20   S    
C2    C14   A    
Cr2   O32   S    
C5    C15   A    
C3    C21   A    
Cr9   O46   S    
Cr3   O29   S    
C29   H33   S    
C4    C20   A    
C2    C62   S    
C71   O45   A    
C12   O19   A    
C20   C21   A    
C67   C82   D    
C8    C16   A    
C71   O52   A    
C23   C85   S    
Cr7   O39   S    
C27   C28   A    
C33   H7    S    
C72   O2    A    
C14   C15   A    
C39   C48   D    
C34   O17   A    
C7    H29   S    
C88   H1    S    
Cr3   O11   S    
C66   O40   A    
C39   H4    S    
C25   F4    S    
Cr12  O9    S    
C65   O35   A    
