data_mof_unit_6332.cif
_audit_creation_date              2012-12-10T20:28:47-0500
_audit_creation_method            fapswitch 2.2
_symmetry_space_group_name_H-M    P1
_symmetry_Int_Tables_number       1
_space_group_crystal_system       triclinic
_cell_length_a                    10.617716
_cell_length_b                    10.658348
_cell_length_c                    9.87225
_cell_angle_alpha                 89.766122
_cell_angle_beta                  90.078286
_cell_angle_gamma                 89.951381
_cell_volume                      1117.20523876

loop_
_atom_site_label
_atom_site_type_symbol
_atom_type_description
_atom_site_fract_x
_atom_site_fract_y
_atom_site_fract_z
_atom_type_partial_charge
C1    C     C_R   0.503400 0.260078 0.500435 0.853160
C2    C     C_R   0.066228 0.380204 0.497333 0.049507
C3    C     C_R   0.128465 0.496706 0.499664 -0.133446
C4    C     C_R   0.065038 0.611715 0.501791 0.041175
C5    C     C_R   0.934394 0.611469 0.501794 0.040502
C6    C     C_R   0.871660 0.496201 0.500148 -0.123492
C7    C     C_R   0.505685 0.063129 0.622853 0.144892
C8    C     C_R   0.523916 0.128980 0.502878 -0.127623
C9    C     C_R   0.570420 0.067448 0.388276 -0.297951
C10   C     C_R   0.573589 0.937055 0.386858 0.089977
C11   C     C_R   0.527992 0.871504 0.501282 -0.112661
C12   C     C_R   0.260748 0.500119 0.499926 0.930905
C13   C     C_R   0.507143 0.935544 0.621842 0.084894
C14   C     C_3   0.401108 0.926280 0.720988 -0.466947
C15   C     C_3   0.399786 0.068525 0.722262 -0.491842
C16   C     C_R   0.434841 0.410503 0.071473 0.212505
C17   C     C_R   0.573733 0.580681 0.071676 -0.125980
C18   C     C_R   0.573543 0.580898 0.927740 -0.132620
C19   C     C_R   0.434821 0.410528 0.929009 0.212452
C20   C     C_3   0.296377 0.387747 0.923291 -0.507977
C21   C     C_3   0.296475 0.387504 0.077155 -0.500503
C22   C     C_R   0.506178 0.739933 0.499728 0.925433
C23   C     C_R   0.739295 0.499315 0.500048 0.921065
C24   C     C_R   0.131935 0.264545 0.494553 -0.166481
C25   C     C_R   0.066667 0.151025 0.492919 -0.150967
C26   C     C_R   0.935608 0.150752 0.493740 -0.135538
C27   C     C_R   0.869723 0.264002 0.496175 -0.148567
C28   C     C_R   0.934653 0.379935 0.497901 0.045638
H1    H     H_    0.431550 0.884269 0.818982 0.206928
H2    H     H_    0.312396 0.109726 0.678689 0.196048
H3    H     H_    0.429829 0.108705 0.820887 0.203886
H4    H     H_    0.631715 0.647176 0.125674 0.162515
H5    H     H_    0.630970 0.647954 0.873263 0.149481
H6    H     H_    0.243523 0.468034 0.878705 0.226505
H7    H     H_    0.273451 0.294774 0.879127 0.199926
H8    H     H_    0.243533 0.467541 0.121285 0.225542
H9    H     H_    0.273980 0.294281 0.121811 0.203211
H10   H     H_    0.233673 0.260926 0.493499 0.118599
H11   H     H_    0.117915 0.063151 0.491007 0.128139
H12   H     H_    0.884824 0.062672 0.492415 0.132113
H13   H     H_    0.768132 0.260015 0.496757 0.121671
H14   H     H_    0.597690 0.119240 0.298268 0.174211
H15   H     H_    0.314614 0.884724 0.676201 0.202302
N1    N     N_R   0.499160 0.499140 0.142800 -0.107458
N2    N     N_R   0.499160 0.499180 0.857150 -0.105677
O1    O     O_R   0.500020 0.316790 0.614690 -0.618513
O2    O     O_R   0.500000 0.316760 0.385350 -0.626699
O3    O     O_R   0.316770 0.500020 0.614690 -0.620562
O4    O     O_R   0.316760 0.499980 0.385350 -0.620541
O5    O     O_R   0.500000 0.683240 0.614650 -0.624482
O6    O     O_R   0.499980 0.683210 0.385310 -0.593040
O7    O     O_R   0.683240 0.500020 0.614650 -0.619447
O8    O     O_R   0.683230 0.499980 0.385310 -0.618705
Zn1   Zn    Zn3+2 0.500010 0.500020 0.653130 0.945611
Zn2   Zn    Zn3+2 0.499990 0.499980 0.346870 0.952779
N3    N     N_3   0.134775 0.727278 0.503730 -0.476179
H16   H     H_    0.110048 0.777467 0.590449 0.173024
H17   H     H_    0.110389 0.780359 0.418387 0.179882
N4    N     N_3   0.863922 0.726765 0.503161 -0.469497
H18   H     H_    0.887872 0.779716 0.417688 0.179087
H19   H     H_    0.888084 0.777363 0.589828 0.178408
N5    N     N_3   0.617158 0.872996 0.268515 -0.440841
H20   H     H_    0.561821 0.901620 0.186291 0.181675
H21   H     H_    0.709788 0.901344 0.249815 0.170587

loop_
_geom_bond_atom_site_label_1
_geom_bond_atom_site_label_2
_ccdc_geom_bond_type
C24   H10   S    
C24   C25   A    
C19   N2    A    
N4    H18   S    
C12   O4    A    
C16   C21   S    
C1    C8    S    
C2    C24   A    
C9    C10   A    
C16   N1    A    
C11   C22   S    
O6    Zn2   S    
C19   C20   S    
C12   O3    A    
C22   O5    A    
C20   H6    S    
O1    Zn1   S    
C7    C15   S    
C17   C18   A    
C9    H14   S    
C17   N1    A    
C7    C8    A    
C21   H8    S    
O5    Zn1   S    
C13   C14   S    
C4    N3    S    
O3    Zn1   S    
C4    C5    A    
C11   C13   A    
N1    Zn2   S    
C26   H12   S    
C23   O7    A    
N5    H20   S    
C16   C19   A    
C6    C23   S    
C1    O2    A    
C25   C26   A    
O7    Zn1   S    
N2    Zn1   S    
C23   O8    A    
C2    C3    A    
O8    Zn2   S    
C26   C27   A    
C5    C6    A    
C18   H5    S    
C6    C28   A    
C1    O1    A    
C10   N5    S    
N4    H19   S    
C10   C11   A    
C5    N4    S    
C14   H1    S    
N5    H21   S    
C3    C4    A    
C18   N2    A    
C7    C13   A    
C21   H9    S    
N3    H16   S    
C15   H2    S    
O2    Zn2   S    
C27   C28   A    
C17   H4    S    
C27   H13   S    
C14   C15   S    
C8    C9    A    
C2    C28   A    
C3    C12   S    
C20   C21   S    
O4    Zn2   S    
C20   H7    S    
C15   H3    S    
C22   O6    A    
C25   H11   S    
N3    H17   S    
C14   H15   S    
