data_mof_unit_9773.cif
_audit_creation_date              2012-12-10T16:52:05-0500
_audit_creation_method            fapswitch 2.2
_symmetry_space_group_name_H-M    P1
_symmetry_Int_Tables_number       1
_space_group_crystal_system       triclinic
_cell_length_a                    7.771
_cell_length_b                    8.555902
_cell_length_c                    14.922616
_cell_angle_alpha                 91.15198
_cell_angle_beta                  85.926652
_cell_angle_gamma                 93.72244
_cell_volume                      987.459750761

loop_
_atom_site_label
_atom_site_type_symbol
_atom_type_description
_atom_site_fract_x
_atom_site_fract_y
_atom_site_fract_z
_atom_type_partial_charge
C1    C     C_R   0.545818 0.794728 0.498150 0.945759
C2    C     C_R   0.454182 0.205271 0.501849 0.945755
C3    C     C_R   0.645820 0.762065 0.947298 0.198503
C4    C     C_R   0.354136 0.237954 0.052704 0.198504
C5    C     C_2   0.569916 0.958280 0.496494 -0.377447
C6    C     C_2   0.430084 0.041720 0.503504 -0.377449
C7    C     C_R   0.501839 0.497395 0.672564 0.889315
C8    C     C_R   0.498161 0.502606 0.327436 0.889313
C9    C     C_R   0.421884 0.380266 0.189694 -0.314137
C10   C     C_R   0.578101 0.619741 0.810307 -0.314140
C11   C     C_R   0.494519 0.510824 0.232539 -0.050138
C12   C     C_R   0.505479 0.489178 0.767461 -0.050141
C13   C     C_R   0.567419 0.642396 0.185597 0.148291
C14   C     C_R   0.432568 0.357611 0.814403 0.148290
C15   C     C_R   0.569140 0.638088 0.091316 0.071111
C16   C     C_R   0.430825 0.361927 0.908685 0.071109
C17   C     C_R   0.498083 0.502742 0.047012 -0.022908
C18   C     C_R   0.501881 0.497274 0.952989 -0.022908
C19   C     C_R   0.423523 0.372831 0.096764 0.117316
C20   C     C_R   0.576445 0.627183 0.903237 0.117316
C21   C     C_R   0.641296 0.765642 0.040545 -0.213797
C22   C     C_R   0.358651 0.234380 0.959457 -0.213795
H1    H     H_    0.367742 0.283144 0.230369 0.157354
H2    H     H_    0.632245 0.716862 0.769632 0.157354
H3    H     H_    0.695724 0.869858 0.072820 0.167346
H4    H     H_    0.304206 0.130171 0.927183 0.167346
H5    H     H_    0.701931 0.009428 0.489320 0.183071
H6    H     H_    0.298069 0.990572 0.510678 0.183071
H7    H     H_    0.013690 0.382625 0.432085 0.193143
H8    H     H_    0.986310 0.617375 0.567915 0.193142
N1    N     N_2   0.950330 0.457950 0.475660 -0.171073
N2    N     N_2   0.049670 0.542050 0.524340 -0.171073
O1    O     O_R   0.389250 0.738570 0.505970 -0.610368
O2    O     O_R   0.610750 0.261430 0.494030 -0.610370
O3    O     O_R   0.678390 0.711620 0.490370 -0.634342
O4    O     O_R   0.321610 0.288380 0.509630 -0.634335
O5    O     O_R   0.355420 0.513510 0.639950 -0.610350
O6    O     O_R   0.644580 0.486490 0.360050 -0.610358
O7    O     O_R   0.644560 0.486560 0.624350 -0.624569
O8    O     O_R   0.355440 0.513440 0.375650 -0.624566
Zn1   Zn    Zn3+2 0.306940 0.517990 0.510420 0.947691
Zn2   Zn    Zn3+2 0.693060 0.482010 0.489580 0.947688
C23   C     C_3   0.641330 0.785885 0.235149 -0.911122
H9    H     H_    0.573189 0.890385 0.218483 0.227936
H10   H     H_    0.627282 0.776833 0.309099 0.243379
H11   H     H_    0.781511 0.805382 0.215570 0.244897
C24   C     C_3   0.358673 0.214118 0.764850 -0.911101
H12   H     H_    0.426775 0.109611 0.781543 0.227929
H13   H     H_    0.218477 0.194647 0.784398 0.244903
H14   H     H_    0.372791 0.223144 0.690899 0.243362
C25   C     C_3   0.724861 0.903742 0.896856 -0.921988
H15   H     H_    0.771950 0.998429 0.942766 0.245211
H16   H     H_    0.836827 0.870165 0.851818 0.243166
H17   H     H_    0.626824 0.952533 0.856661 0.238759
C26   C     C_3   0.275099 0.096276 0.103146 -0.921990
H18   H     H_    0.228001 0.001593 0.057236 0.245210
H19   H     H_    0.373141 0.047481 0.143337 0.238759
H20   H     H_    0.163140 0.129854 0.148189 0.243166

loop_
_geom_bond_atom_site_label_1
_geom_bond_atom_site_label_2
_ccdc_geom_bond_type
N2    Zn1   S    
C14   C24   S    
N1    Zn2   S    
O7    Zn2   S    
C11   C13   A    
C24   H12   S    
O2    Zn2   S    
C15   C21   A    
C26   H18   S    
C25   H17   S    
O1    Zn1   S    
C2    O2    A    
C13   C15   A    
C17   C18   A    
C7    O5    A    
C1    O1    A    
C3    C20   A    
H7    N1    S    
H8    N2    S    
C23   H10   S    
C9    C11   A    
O4    Zn1   S    
C2    C6    S    
C10   C12   A    
C8    O6    A    
C8    C11   S    
C1    C5    S    
C16   C18   A    
O8    Zn1   S    
C17   C19   A    
C12   C14   A    
O6    Zn2   S    
C24   H14   S    
C18   C20   A    
C26   H19   S    
C23   H9    S    
O5    Zn1   S    
C5    C6    D    
C23   H11   S    
C14   C16   A    
C7    C12   S    
C3    C21   A    
C3    C25   S    
C25   H15   S    
C13   C23   S    
C4    C22   A    
C1    O3    A    
C24   H13   S    
C21   H3    S    
C22   H4    S    
C26   H20   S    
C2    O4    A    
C4    C26   S    
C15   C17   A    
O3    Zn2   S    
C7    O7    A    
C9    H1    S    
C16   C22   A    
C8    O8    A    
C10   H2    S    
C5    H5    S    
C4    C19   A    
C9    C19   A    
C6    H6    S    
N1    N2    D    
C10   C20   A    
C25   H16   S    
