data_mof_unit_26355.cif
_audit_creation_date              2012-12-10T20:28:42-0500
_audit_creation_method            fapswitch 2.2
_symmetry_space_group_name_H-M    P1
_symmetry_Int_Tables_number       1
_space_group_crystal_system       triclinic
_cell_length_a                    10.918527
_cell_length_b                    11.086357
_cell_length_c                    10.364124
_cell_angle_alpha                 91.788097
_cell_angle_beta                  89.40488
_cell_angle_gamma                 95.529908
_cell_volume                      1248.06190714

loop_
_atom_site_label
_atom_site_type_symbol
_atom_type_description
_atom_site_fract_x
_atom_site_fract_y
_atom_site_fract_z
_atom_type_partial_charge
C1    C     C_R   0.505326 0.262304 0.497784 0.898973
C2    C     C_R   0.071417 0.571914 0.616437 -0.058216
C3    C     C_R   0.134336 0.541586 0.503535 -0.202514
C4    C     C_R   0.076876 0.561976 0.389105 0.428328
C5    C     C_R   0.948029 0.547349 0.381341 -0.013856
C6    C     C_R   0.877723 0.530825 0.496887 -0.143611
C7    C     C_R   0.580703 0.076710 0.587325 0.031798
C8    C     C_R   0.522464 0.132263 0.490306 -0.099030
C9    C     C_R   0.462783 0.058131 0.396550 -0.266221
C10   C     C_R   0.460725 0.932793 0.396964 0.467357
C11   C     C_R   0.516424 0.874599 0.498102 -0.196904
C12   C     C_R   0.262981 0.511236 0.501271 0.888150
C13   C     C_R   0.585256 0.950142 0.589980 -0.099324
C14   C     C_3   0.562309 0.956337 0.733081 0.272327
C15   C     C_3   0.546308 0.088250 0.724641 0.341262
C16   C     C_R   0.453277 0.401303 0.067483 0.037274
C17   C     C_R   0.543335 0.597386 0.071875 0.500210
C18   C     C_R   0.528295 0.600113 0.934251 0.407973
C19   C     C_R   0.453837 0.400696 0.928313 -0.051135
C20   C     C_3   0.325508 0.334064 0.927317 -0.142042
C21   C     C_3   0.326344 0.336531 0.073661 0.473049
C22   C     C_R   0.505177 0.739736 0.500968 0.847262
C23   C     C_R   0.740467 0.506609 0.498771 0.842797
C24   C     C_R   0.129423 0.642273 0.720069 0.127315
C25   C     C_R   0.065308 0.643216 0.839543 0.005347
C26   C     C_R   0.939627 0.602168 0.837189 0.299691
C27   C     C_R   0.881443 0.607950 0.721178 0.138451
C28   C     C_R   0.941179 0.561361 0.613508 -0.038207
H1    H     H_    0.323391 0.241777 0.893707 0.236974
H2    H     H_    0.404360 0.096554 0.331759 0.186982
H3    H     H_    0.474625 0.904101 0.754565 0.207612
N1    N     N_R   0.499160 0.499140 0.142800 -0.155738
N2    N     N_R   0.499160 0.499180 0.857150 -0.159309
O1    O     O_R   0.500020 0.316790 0.614690 -0.583671
O2    O     O_R   0.500000 0.316760 0.385350 -0.636673
O3    O     O_R   0.316770 0.500020 0.614690 -0.658059
O4    O     O_R   0.316760 0.499980 0.385350 -0.494964
O5    O     O_R   0.500000 0.683240 0.614650 -0.608187
O6    O     O_R   0.499980 0.683210 0.385310 -0.499177
O7    O     O_R   0.683240 0.500020 0.614650 -0.615151
O8    O     O_R   0.683230 0.499980 0.385310 -0.628314
Zn1   Zn    Zn3+2 0.500010 0.500020 0.653130 0.978217
Zn2   Zn    Zn3+2 0.499990 0.499980 0.346870 1.066839
Cl1   Cl    Cl    0.161384 0.660419 0.284007 -0.563111
Cl2   Cl    Cl    0.686044 0.929449 0.836474 -0.616238
Cl3   Cl    Cl    0.384105 0.100619 0.736346 -0.774427
C29   C     C_3   0.631986 0.182693 0.805396 -0.307807
C30   C     C_3   0.761555 0.213794 0.749476 -0.808044
H4    H     H_    0.811140 0.131774 0.734473 0.284815
H5    H     H_    0.756609 0.259496 0.656108 0.245124
H6    H     H_    0.815056 0.277202 0.817567 0.260696
H7    H     H_    0.589884 0.268229 0.812986 0.245841
H8    H     H_    0.640172 0.153241 0.905900 0.237435
Cl4   Cl    Cl    0.605155 0.732228 0.147750 -0.477295
Cl5   Cl    Cl    0.472612 0.728862 0.886275 -0.606074
C31   C     C_3   0.224345 0.389678 0.855341 -0.277344
C32   C     C_3   0.093559 0.331365 0.881425 -0.811451
H9    H     H_    0.035204 0.343489 0.796525 0.232696
H10   H     H_    0.049852 0.375220 0.965031 0.307348
H11   H     H_    0.093297 0.232610 0.896774 0.269111
H12   H     H_    0.232227 0.488856 0.871644 0.237611
H13   H     H_    0.240162 0.365142 0.753528 0.261018
Cl6   Cl    Cl    0.215045 0.423340 0.145544 -0.626712
C33   C     C_3   0.318246 0.209327 0.129699 -0.432634
C34   C     C_3   0.428085 0.137337 0.094182 -0.826740
H14   H     H_    0.448291 0.136982 0.990398 0.274870
H15   H     H_    0.512061 0.175241 0.146460 0.268411
H16   H     H_    0.406180 0.041299 0.117202 0.323690
H17   H     H_    0.308328 0.220417 0.235526 0.238160
H18   H     H_    0.232428 0.156823 0.094742 0.230289
C35   C     C_3   0.221988 0.748699 0.688710 -0.344290
C36   C     C_3   0.161477 0.847371 0.620635 -0.820470
H19   H     H_    0.230792 0.924707 0.602139 0.297382
H20   H     H_    0.125337 0.812785 0.525594 0.278005
H21   H     H_    0.086046 0.880008 0.680967 0.269674
H22   H     H_    0.267842 0.790753 0.775366 0.256886
H23   H     H_    0.293164 0.719690 0.623733 0.238676
C37   C     C_3   0.124542 0.695604 0.961787 -0.297009
C38   C     C_3   0.091432 0.824380 0.992090 -0.731620
H24   H     H_    0.127835 0.855543 0.088297 0.298335
H25   H     H_    0.132596 0.887735 0.919269 0.257442
H26   H     H_    0.990262 0.827872 0.992917 0.271388
H27   H     H_    0.094051 0.635571 0.040171 0.284091
H28   H     H_    0.225754 0.695057 0.957854 0.255519
Cl7   Cl    Cl    0.841739 0.586168 0.969263 -0.753715
C39   C     C_3   0.811451 0.719419 0.711943 -0.244716
C40   C     C_3   0.825874 0.788621 0.586388 -0.882367
H29   H     H_    0.818193 0.886553 0.605292 0.282930
H30   H     H_    0.916330 0.781485 0.539966 0.260908
H31   H     H_    0.751621 0.754140 0.520121 0.242957
H32   H     H_    0.712839 0.695874 0.734499 0.289004
H33   H     H_    0.849050 0.785485 0.787593 0.259611
C41   C     C_3   0.894525 0.580895 0.256241 -0.261828
C42   C     C_3   0.871853 0.715279 0.261167 -0.663993
H34   H     H_    0.861510 0.749559 0.163431 0.308263
H35   H     H_    0.787126 0.727355 0.316526 0.264870
H36   H     H_    0.948891 0.772932 0.307244 0.249293
H37   H     H_    0.961193 0.563916 0.179316 0.259852
H38   H     H_    0.814259 0.520656 0.223006 0.257588
Cl8   Cl    Cl    0.372665 0.856985 0.274217 -0.505786

loop_
_geom_bond_atom_site_label_1
_geom_bond_atom_site_label_2
_ccdc_geom_bond_type
C40   H29   S    
C16   C21   S    
C1    C8    S    
O3    Zn1   S    
C19   C20   S    
O1    Zn1   S    
C15   C29   S    
C14   H3    S    
C20   C31   S    
C7    C8    A    
C26   C27   A    
C41   C42   S    
N2    Zn1   S    
O5    Zn1   S    
C39   H32   S    
C16   C19   A    
C5    C6    A    
C32   H10   S    
C6    C23   S    
C23   O7    A    
C22   O5    A    
C31   C32   S    
C12   O4    A    
C21   C33   S    
C3    C12   S    
C37   H27   S    
C30   H6    S    
C6    C28   A    
C8    C9    A    
C34   H15   S    
C33   H18   S    
C12   O3    A    
O2    Zn2   S    
C9    C10   A    
C41   H38   S    
C29   H8    S    
C30   H5    S    
C13   C14   S    
O8    Zn2   S    
C36   H21   S    
C1    O1    A    
C14   Cl2   S    
C20   H1    S    
C25   C37   S    
C24   C25   A    
C36   H20   S    
C19   N2    A    
C38   H25   S    
C37   C38   S    
C4    C5    A    
C32   H11   S    
O6    Zn2   S    
C4    Cl1   S    
C42   H36   S    
C25   C26   A    
O4    Zn2   S    
C27   C39   S    
C42   H35   S    
O7    Zn1   S    
C29   C30   S    
C14   C15   S    
C34   H16   S    
C17   C18   A    
C33   H17   S    
C10   Cl8   S    
C9    H2    S    
C18   Cl5   S    
C30   H4    S    
C40   H30   S    
C2    C24   A    
C31   H13   S    
C3    C4    A    
C35   H23   S    
C1    O2    A    
C39   C40   S    
C36   H19   S    
C38   H26   S    
C5    C41   S    
C29   H7    S    
C16   N1    A    
C11   C22   S    
C23   O8    A    
C33   C34   S    
C2    C3    A    
C35   C36   S    
C39   H33   S    
C11   C13   A    
C32   H9    S    
C35   H22   S    
C26   Cl7   S    
C22   O6    A    
C17   Cl4   S    
C7    C15   S    
N1    Zn2   S    
C42   H34   S    
C18   N2    A    
C21   Cl6   S    
C10   C11   A    
C38   H24   S    
C37   H28   S    
C7    C13   A    
C20   C21   S    
C34   H14   S    
C40   H31   S    
C27   C28   A    
C17   N1    A    
C31   H12   S    
C2    C28   A    
C15   Cl3   S    
C41   H37   S    
C24   C35   S    
