data_mof_unit_60616.cif
_audit_creation_date              2013-03-05T15:42:49-0500
_audit_creation_method            fapswitch 2.2
_symmetry_space_group_name_H-M    P1
_symmetry_Int_Tables_number       1
_space_group_crystal_system       triclinic
_cell_length_a                    21.725863
_cell_length_b                    21.725868
_cell_length_c                    55.735316
_cell_angle_alpha                 89.999975
_cell_angle_beta                  90.000013
_cell_angle_gamma                 89.999968
_cell_volume                      26307.8066263

loop_
_atom_site_label
_atom_site_type_symbol
_atom_site_description
_atom_site_fract_x
_atom_site_fract_y
_atom_site_fract_z
_atom_type_partial_charge
O1    O     O_R   0.499960 0.590510 0.020150 -0.556626
O2    O     O_R   0.409490 0.499960 0.020150 -0.556628
O3    O     O_R   0.500040 0.409490 0.020150 -0.556631
O4    O     O_R   0.590510 0.500040 0.020150 -0.556625
O5    O     O_R   0.999960 0.090510 0.520150 -0.556626
O6    O     O_R   0.909490 0.999960 0.520150 -0.556627
O7    O     O_R   0.000040 0.909490 0.520150 -0.556628
O8    O     O_R   0.090510 0.000040 0.520150 -0.556627
O9    O     O_R   0.499990 0.590510 0.979930 -0.640544
O10   O     O_R   0.409490 0.499990 0.979930 -0.640544
O11   O     O_R   0.500010 0.409490 0.979930 -0.640543
O12   O     O_R   0.590510 0.500010 0.979930 -0.640545
O13   O     O_R   0.999990 0.090510 0.479930 -0.640545
O14   O     O_R   0.909490 0.999990 0.479930 -0.640544
O15   O     O_R   0.000010 0.909490 0.479930 -0.640544
O16   O     O_R   0.090510 0.000010 0.479930 -0.640544
C1    C     C_R   0.502294 0.619196 0.000249 0.832591
C2    C     C_R   0.380804 0.502294 0.000249 0.832591
C3    C     C_R   0.497707 0.380804 0.000249 0.832599
C4    C     C_R   0.619196 0.497706 0.000249 0.832593
C5    C     C_R   0.002294 0.119196 0.500249 0.832592
C6    C     C_R   0.880804 0.002294 0.500249 0.832593
C7    C     C_R   0.997706 0.880804 0.500249 0.832593
C8    C     C_R   0.119196 0.997706 0.500249 0.832593
C9    C     C_R   0.500000 0.000000 0.123674 0.296328
C10   C     C_R   1.000000 0.500000 0.123674 0.296328
C11   C     C_R   0.000000 0.500000 0.623674 0.296327
C12   C     C_R   0.500000 1.000000 0.623674 0.296328
Zn1   Zn    Zn3+2 0.500000 0.500000 0.026890 1.165027
Zn2   Zn    Zn3+2 0.000000 0.000000 0.526890 1.165028
Zn3   Zn    Zn3+2 0.500000 0.500000 0.973180 0.968403
Zn4   Zn    Zn3+2 0.000000 0.000000 0.473180 0.968402
C13   C     C_2   0.783582 0.455559 0.985220 -0.106042
C14   C     C_2   0.544441 0.783582 0.985220 -0.106044
C15   C     C_2   0.216418 0.544441 0.985221 -0.106044
C16   C     C_2   0.455554 0.216418 0.985223 -0.106046
C17   C     C_2   0.283582 0.955559 0.485220 -0.106044
C18   C     C_2   0.044441 0.283582 0.485220 -0.106044
C19   C     C_2   0.716418 0.044441 0.485220 -0.106044
C20   C     C_2   0.955559 0.716418 0.485220 -0.106044
C21   C     C_2   0.815990 0.503206 0.993558 -0.258218
C22   C     C_2   0.496794 0.815990 0.993558 -0.258215
C23   C     C_2   0.184010 0.496794 0.993558 -0.258216
C24   C     C_2   0.503206 0.184009 0.993557 -0.258218
C25   C     C_2   0.315990 0.003206 0.493558 -0.258216
C26   C     C_2   0.996794 0.315990 0.493558 -0.258215
C27   C     C_2   0.684010 0.996794 0.493558 -0.258215
C28   C     C_2   0.003206 0.684010 0.493558 -0.258215
H1    H     H_    0.805711 0.413166 0.979546 0.173362
H2    H     H_    0.586833 0.805711 0.979545 0.173361
H3    H     H_    0.194289 0.586834 0.979546 0.173361
H4    H     H_    0.413158 0.194290 0.979552 0.173365
H5    H     H_    0.305711 0.913167 0.479545 0.173361
H6    H     H_    0.086833 0.305711 0.479545 0.173361
H7    H     H_    0.694289 0.086833 0.479545 0.173361
H8    H     H_    0.913166 0.694289 0.479546 0.173361
H9    H     H_    0.793639 0.547292 0.996709 0.172441
H10   H     H_    0.452708 0.793639 0.996709 0.172441
H11   H     H_    0.206361 0.452708 0.996709 0.172440
H12   H     H_    0.547294 0.206359 0.996704 0.172443
H13   H     H_    0.293639 0.047292 0.496709 0.172442
H14   H     H_    0.952708 0.293639 0.496709 0.172441
H15   H     H_    0.706361 0.952708 0.496709 0.172441
H16   H     H_    0.047292 0.706361 0.496709 0.172442
C29   C     C_2   0.716427 0.461248 0.984035 -0.286333
C30   C     C_2   0.538751 0.716427 0.984035 -0.286335
C31   C     C_2   0.283573 0.538752 0.984035 -0.286336
C32   C     C_2   0.461244 0.283573 0.984037 -0.286335
C33   C     C_2   0.216427 0.961249 0.484035 -0.286335
C34   C     C_2   0.038751 0.216427 0.484035 -0.286336
C35   C     C_2   0.783572 0.038751 0.484035 -0.286336
C36   C     C_2   0.961249 0.783573 0.484035 -0.286337
C37   C     C_2   0.685126 0.488399 0.002001 0.152211
C38   C     C_2   0.511602 0.685126 0.002001 0.152206
C39   C     C_2   0.314874 0.511601 0.002001 0.152206
C40   C     C_2   0.488405 0.314874 0.002001 0.152214
C41   C     C_2   0.185126 0.988398 0.502001 0.152205
C42   C     C_2   0.011602 0.185126 0.502001 0.152206
C43   C     C_2   0.814874 0.011602 0.502001 0.152206
C44   C     C_2   0.988398 0.814874 0.502001 0.152209
H17   H     H_    0.692751 0.443668 0.968295 0.164784
H18   H     H_    0.556330 0.692752 0.968295 0.164784
H19   H     H_    0.307248 0.556333 0.968295 0.164783
H20   H     H_    0.443652 0.307250 0.968300 0.164778
H21   H     H_    0.192752 0.943670 0.468295 0.164784
H22   H     H_    0.056331 0.192752 0.468295 0.164784
H23   H     H_    0.807248 0.056331 0.468295 0.164784
H24   H     H_    0.943669 0.807248 0.468295 0.164784
O17   O     O_R   0.999980 0.448970 0.964420 -0.632627
O18   O     O_R   0.551030 0.999980 0.964420 -0.632629
O19   O     O_R   0.000020 0.551030 0.964420 -0.632628
O20   O     O_R   0.448970 0.000020 0.964420 -0.632627
O21   O     O_R   0.499980 0.948970 0.464420 -0.632627
O22   O     O_R   0.051030 0.499980 0.464420 -0.632628
O23   O     O_R   0.500020 0.051030 0.464420 -0.632628
O24   O     O_R   0.948970 0.500020 0.464420 -0.632627
C45   C     C_R   0.000000 0.500000 0.952914 0.852918
C46   C     C_R   0.500000 0.000000 0.952914 0.852918
C47   C     C_R   0.500000 0.000000 0.452914 0.852918
C48   C     C_R   0.000000 0.500000 0.452914 0.852918
O25   O     O_R   0.909490 0.448990 0.000040 -0.608871
O26   O     O_R   0.551010 0.909490 0.000040 -0.608871
O27   O     O_R   0.090510 0.551010 0.000040 -0.608872
O28   O     O_R   0.448990 0.090510 0.000040 -0.608880
O29   O     O_R   0.409490 0.948990 0.500040 -0.608871
O30   O     O_R   0.051010 0.409490 0.500040 -0.608871
O31   O     O_R   0.590510 0.051010 0.500040 -0.608871
O32   O     O_R   0.948990 0.590510 0.500040 -0.608871
O33   O     O_R   0.909510 0.551130 0.000040 -0.620056
O34   O     O_R   0.448870 0.909510 0.000040 -0.620056
O35   O     O_R   0.090490 0.448870 0.000040 -0.620056
O36   O     O_R   0.551130 0.090490 0.000040 -0.620052
O37   O     O_R   0.409510 0.051130 0.500040 -0.620056
O38   O     O_R   0.948870 0.409510 0.500040 -0.620056
O39   O     O_R   0.590490 0.948870 0.500040 -0.620056
O40   O     O_R   0.051130 0.590490 0.500040 -0.620056
C49   C     C_R   0.881115 0.500366 0.998135 0.948144
C50   C     C_R   0.499634 0.881115 0.998135 0.948142
C51   C     C_R   0.118885 0.499634 0.998135 0.948143
C52   C     C_R   0.500366 0.118885 0.998134 0.948151
C53   C     C_R   0.381115 0.000366 0.498135 0.948142
C54   C     C_R   0.999634 0.381115 0.498135 0.948142
C55   C     C_R   0.618885 0.999634 0.498135 0.948142
C56   C     C_R   0.000366 0.618885 0.498135 0.948142
Zn5   Zn    Zn3+2 0.999950 0.431840 0.000040 0.995417
Zn6   Zn    Zn3+2 0.568160 0.999950 0.000040 0.995421
Zn7   Zn    Zn3+2 0.000050 0.568160 0.000040 0.995417
Zn8   Zn    Zn3+2 0.431840 0.000050 0.000040 0.995412
Zn9   Zn    Zn3+2 0.499950 0.931840 0.500040 0.995417
Zn10  Zn    Zn3+2 0.068160 0.499950 0.500040 0.995417
Zn11  Zn    Zn3+2 0.500050 0.068160 0.500040 0.995417
Zn12  Zn    Zn3+2 0.931840 0.500050 0.500040 0.995417
O41   O     O_R   0.999930 0.448970 0.035660 -0.614338
O42   O     O_R   0.551030 0.999930 0.035660 -0.614336
O43   O     O_R   0.000070 0.551030 0.035660 -0.614337
O44   O     O_R   0.448970 0.000070 0.035660 -0.614339
O45   O     O_R   0.499930 0.948970 0.535660 -0.614338
O46   O     O_R   0.051030 0.499930 0.535660 -0.614338
O47   O     O_R   0.500070 0.051030 0.535660 -0.614337
O48   O     O_R   0.948970 0.500070 0.535660 -0.614337
C57   C     C_R   1.000000 0.500000 0.047164 0.916002
C58   C     C_R   0.500000 0.000000 0.047164 0.916004
C59   C     C_R   0.500000 1.000000 0.547164 0.916002
C60   C     C_R   0.000000 0.500000 0.547164 0.916002
C61   C     C_R   0.041576 0.538763 0.762747 0.045060
C62   C     C_R   0.461237 0.041575 0.762747 0.045060
C63   C     C_R   0.958424 0.461237 0.762747 0.045060
C64   C     C_R   0.538763 0.958424 0.762747 0.045061
C65   C     C_R   0.541575 0.038763 0.262746 0.045060
C66   C     C_R   0.961237 0.541575 0.262746 0.045060
C67   C     C_R   0.458424 0.961237 0.262746 0.045060
C68   C     C_R   0.038763 0.458424 0.262747 0.045060
C69   C     C_R   1.000000 0.500000 0.775327 0.073256
C70   C     C_R   0.500000 1.000000 0.775327 0.073256
C71   C     C_R   0.500000 0.000000 0.275327 0.073256
C72   C     C_R   1.000000 0.500000 0.275327 0.073256
C73   C     C_R   0.084881 0.573241 0.776119 -0.210465
C74   C     C_R   0.426758 0.084881 0.776119 -0.210464
C75   C     C_R   0.915119 0.426759 0.776119 -0.210465
C76   C     C_R   0.573241 0.915119 0.776119 -0.210466
C77   C     C_R   0.584881 0.073242 0.276119 -0.210465
C78   C     C_R   0.926758 0.584881 0.276119 -0.210465
C79   C     C_R   0.415119 0.926759 0.276119 -0.210465
C80   C     C_R   0.073241 0.415119 0.276119 -0.210466
C81   C     C_R   0.085405 0.571762 0.801012 -0.133700
C82   C     C_R   0.428238 0.085405 0.801012 -0.133700
C83   C     C_R   0.914595 0.428238 0.801012 -0.133700
C84   C     C_R   0.571761 0.914595 0.801012 -0.133700
C85   C     C_R   0.585405 0.071762 0.301012 -0.133700
C86   C     C_R   0.928238 0.585405 0.301012 -0.133700
C87   C     C_R   0.414595 0.928238 0.301012 -0.133700
C88   C     C_R   0.071762 0.414595 0.301012 -0.133700
C89   C     C_R   0.042820 0.535972 0.813544 -0.021735
C90   C     C_R   0.464028 0.042820 0.813544 -0.021735
C91   C     C_R   0.957179 0.464028 0.813544 -0.021734
C92   C     C_R   0.535972 0.957179 0.813544 -0.021734
C93   C     C_R   0.542820 0.035972 0.313544 -0.021735
C94   C     C_R   0.964028 0.542821 0.313544 -0.021734
C95   C     C_R   0.457179 0.964028 0.313544 -0.021734
C96   C     C_R   0.035972 0.457179 0.313544 -0.021734
C97   C     C_R   1.000000 0.500000 0.800788 -0.051266
C98   C     C_R   0.500000 1.000000 0.800788 -0.051266
C99   C     C_R   0.500000 0.000000 0.300788 -0.051266
C100  C     C_R   1.000000 0.500000 0.300788 -0.051266
C101  C     C_R   0.042433 0.534837 0.838687 0.505092
C102  C     C_R   0.465163 0.042433 0.838687 0.505091
C103  C     C_R   0.957567 0.465163 0.838687 0.505091
C104  C     C_R   0.534837 0.957567 0.838687 0.505091
C105  C     C_R   0.542433 0.034837 0.338687 0.505092
C106  C     C_R   0.965163 0.542433 0.338687 0.505091
C107  C     C_R   0.457567 0.965163 0.338687 0.505091
C108  C     C_R   0.034837 0.457567 0.338687 0.505091
N1    N     N_R   1.000000 0.500000 0.850704 -0.354287
N2    N     N_R   0.500000 1.000000 0.850704 -0.354287
N3    N     N_R   0.500000 0.000000 0.350704 -0.354287
N4    N     N_R   1.000000 0.500000 0.350704 -0.354287
H25   H     H_    0.120208 0.600861 0.767886 0.146135
H26   H     H_    0.399139 0.120207 0.767886 0.146135
H27   H     H_    0.879792 0.399139 0.767886 0.146136
H28   H     H_    0.600861 0.879792 0.767886 0.146136
H29   H     H_    0.620208 0.100861 0.267886 0.146135
H30   H     H_    0.899139 0.620207 0.267886 0.146136
H31   H     H_    0.379792 0.899139 0.267886 0.146135
H32   H     H_    0.100861 0.379792 0.267886 0.146135
H33   H     H_    0.119482 0.599047 0.810411 0.191381
H34   H     H_    0.400952 0.119482 0.810411 0.191381
H35   H     H_    0.880517 0.400953 0.810411 0.191381
H36   H     H_    0.599047 0.880517 0.810411 0.191381
H37   H     H_    0.619482 0.099048 0.310411 0.191381
H38   H     H_    0.900952 0.619482 0.310411 0.191381
H39   H     H_    0.380517 0.900953 0.310411 0.191381
H40   H     H_    0.099047 0.380517 0.310411 0.191381
O49   O     O_2   0.084414 0.567892 0.851048 -0.561153
O50   O     O_2   0.432108 0.084414 0.851048 -0.561152
O51   O     O_2   0.915585 0.432108 0.851048 -0.561152
O52   O     O_2   0.567892 0.915585 0.851048 -0.561152
O53   O     O_2   0.584414 0.067892 0.351048 -0.561152
O54   O     O_2   0.932108 0.584414 0.351048 -0.561152
O55   O     O_2   0.415585 0.932108 0.351048 -0.561152
O56   O     O_2   0.067892 0.415585 0.351048 -0.561152
C109  C     C_R   0.538940 0.041410 0.237334 0.044008
C110  C     C_R   0.958590 0.538940 0.237334 0.044008
C111  C     C_R   0.461060 0.958590 0.237334 0.044008
C112  C     C_R   0.041410 0.461060 0.237334 0.044008
C113  C     C_R   0.038940 0.541410 0.737334 0.044008
C114  C     C_R   0.458590 0.038940 0.737334 0.044008
C115  C     C_R   0.961060 0.458590 0.737334 0.044008
C116  C     C_R   0.541410 0.961060 0.737334 0.044008
C117  C     C_R   0.500000 0.000000 0.224753 0.074312
C118  C     C_R   1.000000 0.500000 0.224753 0.074312
C119  C     C_R   0.000000 0.500000 0.724753 0.074312
C120  C     C_R   0.500000 1.000000 0.724753 0.074312
C121  C     C_R   0.426398 0.915432 0.223962 -0.209519
C122  C     C_R   0.084568 0.426398 0.223962 -0.209518
C123  C     C_R   0.573602 0.084568 0.223962 -0.209518
C124  C     C_R   0.915432 0.573602 0.223962 -0.209519
C125  C     C_R   0.926398 0.415432 0.723962 -0.209518
C126  C     C_R   0.584568 0.926398 0.723962 -0.209518
C127  C     C_R   0.073602 0.584568 0.723962 -0.209518
C128  C     C_R   0.415432 0.073602 0.723962 -0.209519
C129  C     C_R   0.427875 0.914901 0.199068 -0.125912
C130  C     C_R   0.085098 0.427875 0.199068 -0.125912
C131  C     C_R   0.572125 0.085099 0.199068 -0.125912
C132  C     C_R   0.914901 0.572125 0.199068 -0.125912
C133  C     C_R   0.927875 0.414902 0.699068 -0.125912
C134  C     C_R   0.585098 0.927875 0.699068 -0.125912
C135  C     C_R   0.072125 0.585098 0.699068 -0.125912
C136  C     C_R   0.414901 0.072124 0.699068 -0.125912
C137  C     C_R   0.463846 0.957333 0.186536 -0.024632
C138  C     C_R   0.042667 0.463846 0.186536 -0.024632
C139  C     C_R   0.536154 0.042667 0.186536 -0.024632
C140  C     C_R   0.957333 0.536154 0.186536 -0.024632
C141  C     C_R   0.963846 0.457333 0.686536 -0.024633
C142  C     C_R   0.542667 0.963846 0.686536 -0.024632
C143  C     C_R   0.036154 0.542667 0.686536 -0.024632
C144  C     C_R   0.457333 0.036153 0.686536 -0.024632
C145  C     C_R   0.500000 0.000000 0.199293 -0.050078
C146  C     C_R   1.000000 0.500000 0.199293 -0.050078
C147  C     C_R   0.000000 0.500000 0.699293 -0.050078
C148  C     C_R   0.500000 1.000000 0.699293 -0.050078
C149  C     C_R   0.535017 0.042284 0.161394 0.511834
C150  C     C_R   0.957716 0.535017 0.161394 0.511834
C151  C     C_R   0.464983 0.957716 0.161394 0.511834
C152  C     C_R   0.042284 0.464983 0.161394 0.511834
C153  C     C_R   0.035017 0.542284 0.661394 0.511834
C154  C     C_R   0.457716 0.035017 0.661394 0.511834
C155  C     C_R   0.964983 0.457716 0.661394 0.511834
C156  C     C_R   0.542284 0.964983 0.661394 0.511834
N5    N     N_R   0.500000 0.000000 0.149377 -0.355989
N6    N     N_R   1.000000 0.500000 0.149377 -0.355989
N7    N     N_R   0.000000 0.500000 0.649377 -0.355989
N8    N     N_R   0.500000 1.000000 0.649377 -0.355989
H41   H     H_    0.398628 0.880223 0.232195 0.147063
H42   H     H_    0.119777 0.398628 0.232195 0.147062
H43   H     H_    0.601371 0.119777 0.232195 0.147062
H44   H     H_    0.880223 0.601371 0.232195 0.147062
H45   H     H_    0.898629 0.380223 0.732195 0.147062
H46   H     H_    0.619777 0.898628 0.732195 0.147062
H47   H     H_    0.101372 0.619777 0.732195 0.147062
H48   H     H_    0.380223 0.101371 0.732195 0.147062
H49   H     H_    0.400445 0.880940 0.189670 0.195189
H50   H     H_    0.119060 0.400444 0.189670 0.195188
H51   H     H_    0.599555 0.119060 0.189670 0.195189
H52   H     H_    0.880940 0.599555 0.189670 0.195189
H53   H     H_    0.900445 0.380940 0.689670 0.195189
H54   H     H_    0.619060 0.900444 0.689670 0.195189
H55   H     H_    0.099555 0.619060 0.689670 0.195189
H56   H     H_    0.380940 0.099555 0.689670 0.195189
O57   O     O_2   0.568251 0.084124 0.149033 -0.543733
O58   O     O_2   0.915875 0.568251 0.149033 -0.543733
O59   O     O_2   0.431749 0.915876 0.149033 -0.543734
O60   O     O_2   0.084124 0.431749 0.149033 -0.543734
O61   O     O_2   0.068251 0.584124 0.649033 -0.543733
O62   O     O_2   0.415875 0.068251 0.649033 -0.543734
O63   O     O_2   0.931749 0.415876 0.649033 -0.543734
O64   O     O_2   0.584124 0.931749 0.649033 -0.543734
C157  C     C_R   0.011985 0.445487 0.888979 -0.098676
C158  C     C_R   0.554513 0.011985 0.888979 -0.098675
C159  C     C_R   0.988014 0.554513 0.888979 -0.098675
C160  C     C_R   0.445487 0.988014 0.888979 -0.098676
C161  C     C_R   0.511985 0.945487 0.388979 -0.098676
C162  C     C_R   0.054513 0.511985 0.388979 -0.098675
C163  C     C_R   0.488014 0.054513 0.388979 -0.098675
C164  C     C_R   0.945487 0.488014 0.388979 -0.098676
H57   H     H_    0.021626 0.403263 0.879362 0.149491
H58   H     H_    0.596737 0.021626 0.879362 0.149491
H59   H     H_    0.978374 0.596738 0.879362 0.149491
H60   H     H_    0.403262 0.978374 0.879362 0.149491
H61   H     H_    0.521626 0.903263 0.379362 0.149491
H62   H     H_    0.096737 0.521626 0.379362 0.149491
H63   H     H_    0.478374 0.096738 0.379362 0.149491
H64   H     H_    0.903262 0.478374 0.379362 0.149491
C165  C     C_R   0.011696 0.445370 0.913951 -0.214745
C166  C     C_R   0.554630 0.011696 0.913951 -0.214746
C167  C     C_R   0.988303 0.554630 0.913951 -0.214745
C168  C     C_R   0.445370 0.988303 0.913951 -0.214744
C169  C     C_R   0.511696 0.945370 0.413951 -0.214745
C170  C     C_R   0.054630 0.511696 0.413951 -0.214746
C171  C     C_R   0.488303 0.054630 0.413951 -0.214745
C172  C     C_R   0.945370 0.488304 0.413951 -0.214745
H65   H     H_    0.021109 0.402727 0.923322 0.166421
H66   H     H_    0.597273 0.021109 0.923322 0.166421
H67   H     H_    0.978891 0.597273 0.923322 0.166421
H68   H     H_    0.402727 0.978891 0.923322 0.166421
H69   H     H_    0.521109 0.902727 0.423322 0.166421
H70   H     H_    0.097273 0.521109 0.423322 0.166421
H71   H     H_    0.478891 0.097273 0.423322 0.166421
H72   H     H_    0.902727 0.478891 0.423322 0.166421
C173  C     C_R   0.000000 0.500000 0.926617 -0.037399
C174  C     C_R   0.500000 1.000000 0.926617 -0.037398
C175  C     C_R   0.500000 0.000000 0.426617 -0.037399
C176  C     C_R   1.000000 0.500000 0.426617 -0.037399
C177  C     C_R   1.000000 0.500000 0.876407 0.306208
C178  C     C_R   0.500000 1.000000 0.876407 0.306208
C179  C     C_R   0.500000 0.000000 0.376407 0.306208
C180  C     C_R   1.000000 0.500000 0.376407 0.306208
C181  C     C_R   0.445539 0.012221 0.111102 -0.082588
C182  C     C_R   0.987779 0.445539 0.111102 -0.082587
C183  C     C_R   0.554460 0.987779 0.111102 -0.082586
C184  C     C_R   0.012221 0.554460 0.111102 -0.082587
C185  C     C_R   0.945539 0.512221 0.611102 -0.082587
C186  C     C_R   0.487779 0.945539 0.611102 -0.082587
C187  C     C_R   0.054460 0.487779 0.611102 -0.082587
C188  C     C_R   0.512221 0.054460 0.611102 -0.082587
H73   H     H_    0.403357 0.022045 0.120718 0.153354
H74   H     H_    0.977955 0.403357 0.120718 0.153355
H75   H     H_    0.596643 0.977955 0.120718 0.153355
H76   H     H_    0.022045 0.596643 0.120718 0.153354
H77   H     H_    0.903357 0.522045 0.620718 0.153355
H78   H     H_    0.477955 0.903357 0.620718 0.153355
H79   H     H_    0.096643 0.477955 0.620718 0.153355
H80   H     H_    0.522045 0.096643 0.620718 0.153355
C189  C     C_R   0.445420 0.011932 0.086129 -0.184705
C190  C     C_R   0.988068 0.445420 0.086129 -0.184704
C191  C     C_R   0.554580 0.988068 0.086129 -0.184703
C192  C     C_R   0.011932 0.554579 0.086129 -0.184704
C193  C     C_R   0.945420 0.511932 0.586129 -0.184704
C194  C     C_R   0.488068 0.945420 0.586129 -0.184704
C195  C     C_R   0.054579 0.488068 0.586129 -0.184704
C196  C     C_R   0.511931 0.054579 0.586129 -0.184704
H81   H     H_    0.402819 0.021531 0.076759 0.172210
H82   H     H_    0.978469 0.402819 0.076759 0.172212
H83   H     H_    0.597181 0.978469 0.076759 0.172212
H84   H     H_    0.021531 0.597181 0.076759 0.172212
H85   H     H_    0.902819 0.521531 0.576759 0.172212
H86   H     H_    0.478469 0.902819 0.576759 0.172212
H87   H     H_    0.097181 0.478469 0.576759 0.172212
H88   H     H_    0.521531 0.097181 0.576759 0.172212
C197  C     C_R   0.500000 0.000000 0.073463 -0.050197
C198  C     C_R   1.000000 0.500000 0.073463 -0.050197
C199  C     C_R   0.000000 0.500000 0.573463 -0.050197
C200  C     C_R   0.500000 1.000000 0.573463 -0.050197
N9    N     N_R   0.713619 0.500489 0.024951 0.221713
O65   O     O_R   0.701076 0.551091 0.036449 -0.355625
O66   O     O_R   0.745078 0.457662 0.035747 -0.340311
N10   N     N_R   0.499513 0.713618 0.024951 0.221715
O67   O     O_R   0.448911 0.701076 0.036450 -0.355625
O68   O     O_R   0.542340 0.745078 0.035747 -0.340316
N11   N     N_R   0.286381 0.499510 0.024951 0.221714
O69   O     O_R   0.298924 0.448907 0.036449 -0.355631
O70   O     O_R   0.254922 0.542336 0.035748 -0.340317
N12   N     N_R   0.500512 0.286380 0.024950 0.221709
O71   O     O_R   0.551121 0.298926 0.036443 -0.355630
O72   O     O_R   0.457693 0.254920 0.035750 -0.340319
N13   N     N_R   0.213618 0.000487 0.524951 0.221714
O73   O     O_R   0.201076 0.051088 0.536450 -0.355624
O74   O     O_R   0.245078 0.957659 0.535747 -0.340316
N14   N     N_R   0.999513 0.213618 0.524951 0.221715
O75   O     O_R   0.948911 0.201076 0.536450 -0.355624
O76   O     O_R   0.042340 0.245078 0.535747 -0.340317
N15   N     N_R   0.786381 0.999513 0.524951 0.221713
O77   O     O_R   0.798924 0.948911 0.536450 -0.355624
O78   O     O_R   0.754922 0.042340 0.535747 -0.340316
N16   N     N_R   0.000488 0.786381 0.524951 0.221713
O79   O     O_R   0.051090 0.798924 0.536449 -0.355624
O80   O     O_R   0.957661 0.754922 0.535747 -0.340316

loop_
_geom_bond_atom_site_label_1
_geom_bond_atom_site_label_2
_geom_bond_distance
_ccdc_geom_bond_type
C17   C33   1.465717 S    
C14   C22   1.335389 D    
C163  C179  1.400513 A    
C22   H10   1.088131 S    
C140  C146  1.407754 A    
O15   Zn4   2.002074 S    
O17   Zn5   2.019868 S    
C141  C155  1.401551 A    
C92   C98   1.407755 A    
C79   H31   1.076886 S    
O19   Zn7   2.019869 S    
C26   H14   1.088130 S    
O2    Zn1   2.001968 S    
C163  H63   1.082912 S    
C157  C177  1.400511 A    
O23   C47   1.280789 A    
C193  H85   1.083006 S    
C195  H87   1.083004 S    
C152  O60   1.349921 S    
C157  H57   1.082912 S    
C111  C121  1.414837 A    
O33   Zn7   2.001556 S    
C68   C72   1.420133 A    
C95   C107  1.401551 A    
O35   Zn5   2.001556 S    
C84   H36   1.083492 S    
O3    C3    1.273278 A    
C67   C71   1.420134 A    
C103  N1    1.367963 A    
O34   C50   1.268153 A    
O32   C56   1.279539 A    
C44   N16   1.445117 S    
C105  O53   1.349921 S    
C92   C104  1.401551 A    
C78   H30   1.076883 S    
C143  C147  1.407754 A    
C72   C100  1.419055 A    
C82   C90   1.395873 A    
O39   C55   1.268154 A    
C133  H53   1.083496 S    
C129  C137  1.395872 A    
C137  C145  1.407755 A    
O36   C52   1.268156 A    
C25   C53   1.439023 S    
C61   C113  1.418697 A    
C124  H44   1.076884 S    
C195  C199  1.404144 A    
C17   H5    1.086025 S    
C116  C126  1.414835 A    
C30   H18   1.086311 S    
C61   C73   1.414836 A    
C27   C55   1.439021 S    
C62   C70   1.420134 A    
C142  C156  1.401551 A    
O12   C4    1.293629 A    
O1    Zn1   2.001967 S    
O18   Zn6   2.019868 S    
O13   C5    1.293625 A    
C161  C179  1.400511 A    
C137  C151  1.401551 A    
C123  C131  1.387861 A    
C39   N11   1.445124 S    
C135  H55   1.083496 S    
O6    Zn2   2.001970 S    
C86   C94   1.395870 A    
C15   H3    1.086026 S    
C113  C127  1.414840 A    
C16   C24   1.335392 D    
N1    C177  1.432565 S    
C17   C25   1.335390 D    
Zn10  O46   2.019879 S    
N3    C179  1.432565 S    
C19   C27   1.335391 D    
C20   C28   1.335391 D    
C63   C115  1.418697 A    
C151  O59   1.349920 S    
C12   C188  1.400514 A    
C16   C32   1.465714 S    
C119  C147  1.419055 A    
C93   C105  1.401551 A    
C164  C180  1.400513 A    
N9    O66   1.301915 A    
C65   C71   1.420134 A    
O25   C49   1.279539 A    
C12   C186  1.400513 A    
C159  H59   1.082911 S    
C181  C189  1.391889 A    
C160  C168  1.391883 A    
C114  C120  1.420132 A    
C161  C169  1.391883 A    
C74   H26   1.076886 S    
C75   C83   1.387861 A    
C4    C37   1.449879 S    
C172  H72   1.083006 S    
C63   C69   1.420134 A    
N16   O79   1.301370 A    
O4    C4    1.273280 A    
C60   C199  1.465783 S    
C8    C41   1.449880 S    
Zn9   O45   2.019880 S    
C168  H68   1.083005 S    
C164  H64   1.082909 S    
C159  C177  1.400513 A    
C26   C54   1.439021 S    
C129  H49   1.083494 S    
C84   C92   1.395870 A    
C81   H33   1.083495 S    
C130  H50   1.083496 S    
C9    N5    1.432570 S    
C96   C100  1.407755 A    
O34   Zn8   2.001556 S    
N13   O74   1.301912 A    
C115  C119  1.420135 A    
C31   H19   1.086310 S    
C2    C39   1.449878 S    
C12   N8    1.432570 S    
O13   Zn4   2.002073 S    
C33   C41   1.346513 D    
C64   C116  1.418703 A    
C14   C30   1.465717 S    
C35   C43   1.346514 D    
C169  C175  1.404128 A    
C48   C176  1.465683 S    
C89   C101  1.401551 A    
O22   Zn10  2.019868 S    
C171  C175  1.404128 A    
C162  C170  1.391883 A    
O10   C2    1.293629 A    
C64   C76   1.414837 A    
C71   C99   1.419055 A    
C190  C198  1.404144 A    
C138  C152  1.401551 A    
C30   C38   1.346515 D    
C40   N12   1.445122 S    
C170  H70   1.083004 S    
O35   C51   1.268154 A    
O3    Zn1   2.001969 S    
C186  H78   1.082911 S    
C196  C200  1.404144 A    
O47   C59   1.280738 A    
C166  H66   1.083003 S    
C156  N8    1.367961 A    
N14   O75   1.301371 A    
O25   Zn5   2.000327 S    
C15   C31   1.465717 S    
O27   Zn7   2.000327 S    
C149  N5    1.367961 A    
C16   H4    1.086027 S    
C23   H11   1.088129 S    
C91   C97   1.407756 A    
C189  H81   1.083006 S    
C76   C84   1.387866 A    
C62   C114  1.418703 A    
C182  C190  1.391889 A    
C87   C95   1.395871 A    
C85   C93   1.395871 A    
N10   O68   1.301912 A    
C131  C139  1.395874 A    
C132  H52   1.083492 S    
C73   C81   1.387866 A    
O30   Zn10  2.000328 S    
C102  O50   1.349921 S    
C46   C174  1.465683 S    
C187  H79   1.082913 S    
C156  O64   1.349921 S    
O9    C1    1.293630 A    
C127  H47   1.076885 S    
C57   C198  1.465783 S    
C86   H38   1.083495 S    
O22   C48   1.280788 A    
O30   C54   1.279539 A    
C153  O61   1.349923 S    
O40   Zn10  2.001556 S    
C155  O63   1.349920 S    
Zn6   O42   2.019879 S    
C122  C130  1.387866 A    
C187  C195  1.391889 A    
C139  C149  1.401551 A    
C158  C178  1.400512 A    
O12   Zn3   2.002072 S    
C80   C88   1.387866 A    
C31   C39   1.346514 D    
C185  C193  1.391889 A    
C83   C91   1.395871 A    
O5    Zn2   2.001968 S    
C169  H69   1.083005 S    
N15   O78   1.301914 A    
O21   C47   1.280790 A    
C152  N6    1.367961 A    
C20   C36   1.465717 S    
C102  N2    1.367963 A    
C171  H71   1.083006 S    
O26   Zn6   2.000328 S    
C62   C74   1.414836 A    
C32   C40   1.346521 D    
C183  H75   1.082913 S    
O1    C1    1.273280 A    
C190  H82   1.083005 S    
O14   C6    1.293629 A    
C36   C44   1.346516 D    
C37   N9    1.445120 S    
O46   C60   1.280736 A    
C9    C181  1.400514 A    
C106  N4    1.367962 A    
O7    C7    1.273276 A    
C144  C148  1.407753 A    
C168  C174  1.404128 A    
O8    C8    1.273275 A    
C101  O49   1.349920 S    
C107  N3    1.367963 A    
C18   C26   1.335391 D    
C194  C200  1.404144 A    
C91   C103  1.401551 A    
O43   C57   1.280738 A    
O37   C53   1.268154 A    
C110  C118  1.420132 A    
C110  C124  1.414836 A    
C45   C173  1.465683 S    
C21   C49   1.439022 S    
C23   C51   1.439023 S    
C34   H22   1.086311 S    
C18   C34   1.465718 S    
N12   O71   1.301374 A    
C123  H43   1.076885 S    
C11   N7    1.432570 S    
O31   C55   1.279539 A    
C158  C166  1.391883 A    
C104  O52   1.349922 S    
C33   H21   1.086311 S    
N11   O69   1.301370 A    
C41   N13   1.445124 S    
O11   C3    1.293627 A    
C108  N4    1.367963 A    
C3    C40   1.449872 S    
Zn7   O43   2.019879 S    
C6    C43   1.449879 S    
Zn8   O44   2.019879 S    
C27   H15   1.088129 S    
C94   C106  1.401551 A    
C28   H16   1.088128 S    
C34   C42   1.346514 D    
C24   C52   1.439023 S    
C13   H1    1.086027 S    
O6    C6    1.273275 A    
C127  C135  1.387861 A    
C165  C173  1.404128 A    
C112  C122  1.414835 A    
O44   C58   1.280738 A    
C10   N6    1.432570 S    
C155  N7    1.367963 A    
O10   Zn3   2.002074 S    
C19   H7    1.086027 S    
C20   H8    1.086026 S    
C149  O57   1.349922 S    
C5    C42   1.449880 S    
C128  H48   1.076884 S    
C7    C44   1.449880 S    
C79   C87   1.387861 A    
C167  C173  1.404128 A    
O36   Zn6   2.001556 S    
O4    Zn1   2.001967 S    
C88   C96   1.395868 A    
C75   H27   1.076884 S    
C89   C97   1.407755 A    
O7    Zn2   2.001970 S    
C109  C123  1.414838 A    
O23   Zn11  2.019869 S    
C66   C110  1.418703 A    
C90   C98   1.407754 A    
C64   C70   1.420133 A    
O21   Zn9   2.019868 S    
C106  O54   1.349921 S    
C188  C196  1.391889 A    
C161  H61   1.082912 S    
C66   C78   1.414838 A    
C114  C128  1.414836 A    
O20   C46   1.280790 A    
C32   H20   1.086315 S    
C165  H65   1.083005 S    
C196  H88   1.083004 S    
Zn11  O47   2.019879 S    
C22   C50   1.439021 S    
C134  C142  1.395872 A    
C126  H46   1.076886 S    
C93   C99   1.407755 A    
C117  C145  1.419055 A    
O5    C5    1.273280 A    
C184  C192  1.391889 A    
O33   C49   1.268154 A    
C28   C56   1.439021 S    
C112  C118  1.420136 A    
C150  N6    1.367963 A    
C105  N3    1.367963 A    
C29   H17   1.086309 S    
C18   H6    1.086024 S    
C142  C148  1.407756 A    
C121  H41   1.076883 S    
C126  C134  1.387866 A    
O19   C45   1.280789 A    
N16   O80   1.301914 A    
C35   H23   1.086311 S    
C69   C97   1.419055 A    
C68   C112  1.418703 A    
C193  C199  1.404144 A    
O16   Zn4   2.002072 S    
C116  C120  1.420136 A    
C74   C82   1.387866 A    
C9    C183  1.400513 A    
N13   O73   1.301370 A    
C42   N14   1.445124 S    
O40   C56   1.268153 A    
O48   C60   1.280738 A    
O14   Zn4   2.002074 S    
C182  H74   1.082911 S    
Zn12  O48   2.019879 S    
C143  C153  1.401551 A    
O41   C57   1.280737 A    
C154  O62   1.349921 S    
O8    Zn2   2.001968 S    
C153  N7    1.367961 A    
C130  C138  1.395872 A    
C21   H9    1.088129 S    
C154  N8    1.367963 A    
C139  C145  1.407754 A    
C162  C180  1.400512 A    
C133  C141  1.395871 A    
C24   H12   1.088131 S    
C25   H13   1.088129 S    
C73   H25   1.076885 S    
C164  C172  1.391883 A    
C157  C165  1.391883 A    
N14   O76   1.301910 A    
C120  C148  1.419055 A    
C109  C117  1.420135 A    
C128  C136  1.387866 A    
C82   H34   1.083495 S    
C111  C117  1.420135 A    
O28   C52   1.279538 A    
C135  C143  1.395873 A    
C188  H80   1.082912 S    
O2    C2    1.273280 A    
C58   C197  1.465783 S    
C125  H45   1.076885 S    
C63   C75   1.414839 A    
C15   C23   1.335390 D    
C13   C29   1.465717 S    
N15   O77   1.301373 A    
C76   H28   1.076884 S    
C11   C187  1.400513 A    
C113  C119  1.420134 A    
C77   H29   1.076885 S    
C192  H84   1.083004 S    
C163  C171  1.391883 A    
N11   O70   1.301912 A    
O42   C58   1.280736 A    
C81   C89   1.395871 A    
C115  C125  1.414836 A    
O24   C48   1.280790 A    
C29   C37   1.346521 D    
C78   C86   1.387866 A    
C141  C147  1.407755 A    
C59   C200  1.465783 S    
C10   C184  1.400512 A    
C131  H51   1.083493 S    
C185  H77   1.082911 S    
C118  C146  1.419055 A    
C67   C111  1.418697 A    
O28   Zn8   2.000328 S    
N4    C180  1.432565 S    
C38   N10   1.445125 S    
O26   C50   1.279539 A    
C159  C167  1.391883 A    
O24   Zn12  2.019869 S    
C181  H73   1.082911 S    
C160  H60   1.082909 S    
O15   C7    1.293629 A    
O45   C59   1.280737 A    
O11   Zn3   2.002074 S    
O16   C8    1.293629 A    
C19   C35   1.465717 S    
C170  C176  1.404130 A    
C65   C109  1.418697 A    
O20   Zn8   2.019869 S    
C36   H24   1.086309 S    
C95   C99   1.407756 A    
C172  C176  1.404127 A    
C103  O51   1.349921 S    
C14   H2    1.086026 S    
O32   Zn12  2.000328 S    
C125  C133  1.387866 A    
C192  C198  1.404145 A    
C13   C21   1.335390 D    
O31   Zn11  2.000327 S    
C96   C108  1.401551 A    
C107  O55   1.349921 S    
C136  H56   1.083492 S    
O29   Zn9   2.000327 S    
C47   C175  1.465683 S    
C150  O58   1.349921 S    
O17   C45   1.280790 A    
C83   H35   1.083495 S    
O37   Zn11  2.001556 S    
C87   H39   1.083495 S    
C151  N5    1.367962 A    
C85   H37   1.083495 S    
C162  H62   1.082910 S    
O29   C53   1.279539 A    
C68   C80   1.414836 A    
C158  H58   1.082910 S    
C121  C129  1.387866 A    
C67   C79   1.414839 A    
C1    C38   1.449878 S    
C80   H32   1.076885 S    
C108  O56   1.349922 S    
C186  C194  1.391889 A    
C43   N15   1.445120 S    
N10   O67   1.301369 A    
C166  C174  1.404130 A    
O39   Zn9   2.001556 S    
Zn5   O41   2.019880 S    
C61   C69   1.420136 A    
C11   C185  1.400514 A    
C144  C154  1.401551 A    
N12   O72   1.301915 A    
C132  C140  1.395869 A    
O38   Zn12  2.001556 S    
O27   C51   1.279539 A    
C101  N1    1.367963 A    
C88   H40   1.083493 S    
C191  C197  1.404144 A    
C136  C144  1.395869 A    
C140  C150  1.401551 A    
C66   C72   1.420134 A    
C191  H83   1.083004 S    
C122  H42   1.076886 S    
C124  C132  1.387866 A    
C160  C178  1.400513 A    
C77   C85   1.387866 A    
C10   C182  1.400515 A    
N9    O65   1.301369 A    
C90   C102  1.401551 A    
N2    C178  1.432565 S    
C70   C98   1.419055 A    
C138  C146  1.407756 A    
C194  H86   1.083005 S    
O9    Zn3   2.002073 S    
C104  N2    1.367961 A    
O38   C54   1.268153 A    
C65   C77   1.414836 A    
C134  H54   1.083496 S    
C183  C191  1.391889 A    
C184  H76   1.082912 S    
C189  C197  1.404144 A    
O18   C46   1.280788 A    
C94   C100  1.407756 A    
C167  H67   1.083006 S    
