data_mof_unit_5896.cif
_audit_creation_date              2012-12-11T15:37:38-0500
_audit_creation_method            fapswitch 2.2
_symmetry_space_group_name_H-M    P1
_symmetry_Int_Tables_number       1
_space_group_crystal_system       triclinic
_cell_length_a                    17.41217
_cell_length_b                    24.287805
_cell_length_c                    14.856519
_cell_angle_alpha                 89.955001
_cell_angle_beta                  125.902406
_cell_angle_gamma                 89.991377
_cell_volume                      5089.23041081

loop_
_atom_site_label
_atom_site_type_symbol
_atom_type_description
_atom_site_fract_x
_atom_site_fract_y
_atom_site_fract_z
_atom_type_partial_charge
C1    C     C_R   0.810446 0.627121 0.906169 -0.124561
C2    C     C_R   0.190420 0.374416 0.092526 -0.124939
C3    C     C_R   0.190461 0.625480 0.092374 -0.120502
C4    C     C_R   0.810397 0.373002 0.906183 -0.124107
C5    C     C_R   0.349408 0.152276 0.908049 -0.135232
C6    C     C_R   0.648964 0.847229 0.091935 -0.138368
C7    C     C_R   0.649014 0.152699 0.091863 -0.136631
C8    C     C_R   0.349309 0.847821 0.908083 -0.137681
C9    C     C_3   0.410083 0.499207 0.435384 -0.034272
C10   C     C_3   0.593075 0.501263 0.559564 -0.013230
C11   C     C_3   0.918816 0.999953 0.407249 -0.059628
C12   C     C_3   0.080693 0.000057 0.601279 -0.046631
C13   C     C_R   0.660368 0.310391 0.897385 -0.152946
C14   C     C_R   0.341261 0.686056 0.099530 -0.146028
C15   C     C_R   0.340579 0.312947 0.100292 -0.094843
C16   C     C_R   0.660767 0.690173 0.897196 -0.086057
C17   C     C_R   0.286786 0.733327 0.899390 -0.144017
C18   C     C_R   0.707688 0.268078 0.098329 -0.142751
C19   C     C_R   0.707275 0.731675 0.098197 -0.156467
C20   C     C_R   0.288032 0.267188 0.899924 -0.154977
C21   C     C_R   0.239095 0.687559 0.898464 -0.141189
C22   C     C_R   0.758874 0.311673 0.098567 -0.143288
C23   C     C_R   0.758614 0.688174 0.098359 -0.148625
C24   C     C_R   0.240085 0.312815 0.899172 -0.145200
C25   C     C_R   0.609539 0.266656 0.897116 -0.157589
C26   C     C_R   0.388370 0.732264 0.100582 -0.157552
C27   C     C_R   0.388166 0.267124 0.101124 -0.131116
C28   C     C_R   0.609588 0.733642 0.897004 -0.138111
C29   C     C_R   0.259374 0.667662 0.998649 0.133280
C30   C     C_R   0.742105 0.328582 0.998379 0.133578
C31   C     C_R   0.742203 0.671648 0.998204 0.113061
C32   C     C_R   0.259445 0.331988 0.999308 0.120453
C33   C     C_R   0.640040 0.241574 0.997834 0.128373
C34   C     C_R   0.354977 0.759235 0.000601 0.127711
C35   C     C_R   0.355577 0.240805 0.000931 0.112657
C36   C     C_R   0.639768 0.758392 0.997795 0.114025
C37   C     C_R   0.889373 0.450249 0.464186 -0.079973
C38   C     C_R   0.915784 0.549947 0.392820 -0.158833
C39   C     C_R   0.915544 0.450157 0.392760 -0.181168
C40   C     C_R   0.889650 0.549917 0.464266 -0.145423
C41   C     C_R   0.608081 0.950161 0.631283 -0.176619
C42   C     C_R   0.607765 0.049796 0.537829 -0.123017
C43   C     C_R   0.607809 0.950120 0.537999 -0.123610
C44   C     C_R   0.608004 0.049777 0.631087 -0.174714
C45   C     C_R   0.939323 0.500027 0.367344 0.138346
C46   C     C_R   0.890038 0.500083 0.511898 0.173453
C47   C     C_R   0.597213 0.999955 0.484089 0.189910
C48   C     C_R   0.596322 0.999977 0.669436 0.135625
C49   C     C_R   0.906633 0.370308 0.092025 -0.116216
C50   C     C_R   0.095989 0.623766 0.905866 -0.117976
C51   C     C_R   0.095970 0.376039 0.905997 -0.110395
C52   C     C_R   0.906709 0.629797 0.091980 -0.116380
C53   C     C_R   0.442914 0.849146 0.093570 -0.115779
C54   C     C_R   0.554003 0.151702 0.906770 -0.144251
C55   C     C_R   0.553894 0.848314 0.906845 -0.148349
C56   C     C_R   0.443095 0.150821 0.093547 -0.118199
C57   C     C_R   0.008692 0.546028 0.278128 -0.099822
C58   C     C_R   0.943480 0.454136 0.692241 -0.124898
C59   C     C_R   0.943477 0.545924 0.692208 -0.132770
C60   C     C_R   0.008610 0.453952 0.278104 -0.116790
C61   C     C_R   0.547347 0.046117 0.303963 -0.073725
C62   C     C_R   0.519859 0.953663 0.751873 -0.061860
C63   C     C_R   0.519906 0.046334 0.751897 -0.063140
C64   C     C_R   0.547373 0.953833 0.304022 -0.073543
C65   C     C_R   0.741693 0.454880 0.697378 -0.132342
C66   C     C_R   0.259980 0.545303 0.300584 -0.118243
C67   C     C_R   0.259533 0.454175 0.300206 -0.161057
C68   C     C_R   0.742191 0.545882 0.698196 -0.145720
C69   C     C_R   0.230263 0.954064 0.738806 -0.041667
C70   C     C_R   0.769904 0.045985 0.266021 -0.044543
C71   C     C_R   0.769931 0.953961 0.266084 -0.049295
C72   C     C_R   0.230241 0.045988 0.738810 -0.042183
C73   C     C_R   0.815749 0.642388 0.999126 0.042952
C74   C     C_R   0.186543 0.362118 0.998866 0.042056
C75   C     C_R   0.186588 0.637614 0.998594 0.043764
C76   C     C_R   0.815646 0.357798 0.999191 0.042715
C77   C     C_R   0.380370 0.183294 0.001295 0.052650
C78   C     C_R   0.615706 0.815753 0.998679 0.058931
C79   C     C_R   0.615879 0.184203 0.998583 0.056407
C80   C     C_R   0.380048 0.816758 0.001303 0.049943
C81   C     C_R   0.987199 0.499993 0.313955 0.054783
C82   C     C_R   0.922184 0.500051 0.626723 0.054306
C83   C     C_R   0.562768 0.999961 0.367675 0.089284
C84   C     C_R   0.551466 0.999993 0.727259 0.024136
C85   C     C_R   0.692757 0.500708 0.638495 0.162648
C86   C     C_R   0.310194 0.499520 0.357978 0.169453
C87   C     C_R   0.173521 0.000041 0.703600 0.077849
C88   C     C_R   0.826662 0.999958 0.303905 0.076782
C89   C     C_3   0.533045 0.477829 0.596058 -0.328529
C90   C     C_3   0.469993 0.522665 0.398732 -0.329668
C91   C     C_3   0.472056 0.447367 0.483530 -0.328318
C92   C     C_3   0.531117 0.553116 0.511351 -0.302656
C93   C     C_3   0.006595 0.954428 0.561102 -0.288298
C94   C     C_3   0.992885 0.045568 0.447407 -0.315228
C95   C     C_3   0.992938 0.954277 0.447954 -0.367703
C96   C     C_3   0.006540 0.045751 0.560563 -0.316260
C97   C     C_3   0.470004 0.529151 0.545447 0.599636
C98   C     C_3   0.533246 0.471361 0.449522 0.580727
C99   C     C_3   0.931832 0.000119 0.518508 0.706167
C100  C     C_3   0.067594 0.999896 0.489911 0.611272
H1    H     H_    0.752159 0.632375 0.820206 0.100156
H2    H     H_    0.248408 0.367865 0.178157 0.087289
H3    H     H_    0.248468 0.632126 0.177952 0.094191
H4    H     H_    0.752146 0.367808 0.820180 0.094635
H5    H     H_    0.310635 0.166251 0.823048 0.092975
H6    H     H_    0.688373 0.833430 0.177127 0.090788
H7    H     H_    0.688336 0.166437 0.177025 0.093975
H8    H     H_    0.310694 0.833924 0.823111 0.096568
H9    H     H_    0.937260 0.357418 0.175681 0.085988
H10   H     H_    0.067928 0.628512 0.819505 0.096123
H11   H     H_    0.067910 0.371165 0.819670 0.093968
H12   H     H_    0.937360 0.642693 0.175599 0.087538
H13   H     H_    0.489044 0.835749 0.179057 0.086513
H14   H     H_    0.505734 0.165455 0.821796 0.094892
H15   H     H_    0.505511 0.834635 0.821905 0.100317
H16   H     H_    0.489404 0.164110 0.179021 0.091128
H17   H     H_    0.015504 0.587580 0.306743 0.091987
H18   H     H_    0.924597 0.411988 0.664707 0.098967
H19   H     H_    0.924594 0.588095 0.664625 0.087400
H20   H     H_    0.015340 0.412385 0.306748 0.086396
H21   H     H_    0.564218 0.088363 0.331440 0.097689
H22   H     H_    0.530502 0.911042 0.741763 0.089599
H23   H     H_    0.530623 0.088954 0.741820 0.089450
H24   H     H_    0.564268 0.911569 0.331592 0.094871
H25   H     H_    0.724533 0.412543 0.670335 0.139338
H26   H     H_    0.277719 0.587660 0.327061 0.140953
H27   H     H_    0.275805 0.411706 0.326653 0.101055
H28   H     H_    0.726787 0.588393 0.671819 0.097527
H29   H     H_    0.208500 0.911684 0.715710 0.103242
H30   H     H_    0.791096 0.088357 0.290169 0.104455
H31   H     H_    0.791150 0.911567 0.290272 0.104288
H32   H     H_    0.208457 0.088395 0.715734 0.102961
H33   H     H_    0.561499 0.459851 0.678874 0.157703
H34   H     H_    0.441294 0.540516 0.315755 0.174070
H35   H     H_    0.446914 0.404212 0.471872 0.160954
H36   H     H_    0.556334 0.596252 0.522977 0.160690
H37   H     H_    0.013366 0.917951 0.610368 0.170859
H38   H     H_    0.986102 0.082051 0.398145 0.175972
H39   H     H_    0.986180 0.917632 0.399170 0.164223
H40   H     H_    0.013264 0.082370 0.609386 0.175718
H41   H     H_    0.640578 0.325544 0.818052 0.113274
H42   H     H_    0.363684 0.668837 0.178550 0.112851
H43   H     H_    0.361956 0.329126 0.179510 0.117264
H44   H     H_    0.641481 0.675562 0.817820 0.145173
H45   H     H_    0.263028 0.750792 0.820139 0.115289
H46   H     H_    0.728448 0.252226 0.177628 0.114267
H47   H     H_    0.727779 0.747312 0.177488 0.109960
H48   H     H_    0.265023 0.250176 0.820655 0.111803
H49   H     H_    0.180422 0.671910 0.819000 0.114213
H50   H     H_    0.816743 0.328140 0.177715 0.108238
H51   H     H_    0.816329 0.671481 0.177456 0.107734
H52   H     H_    0.181944 0.328942 0.819772 0.112010
H53   H     H_    0.553470 0.249446 0.817828 0.111968
H54   H     H_    0.444766 0.749174 0.180061 0.111030
H55   H     H_    0.443964 0.249829 0.180586 0.120858
H56   H     H_    0.553678 0.751020 0.817726 0.123610
H57   H     H_    0.881422 0.411015 0.492240 0.117956
H58   H     H_    0.924255 0.589213 0.365344 0.106160
H59   H     H_    0.923832 0.410881 0.365220 0.108584
H60   H     H_    0.882013 0.589177 0.492436 0.107199
H61   H     H_    0.606868 0.910892 0.664655 0.117513
H62   H     H_    0.606648 0.089116 0.503077 0.122942
H63   H     H_    0.606715 0.910799 0.503364 0.119922
H64   H     H_    0.606702 0.089051 0.664285 0.118631
N1    N     N_R   0.892620 0.603790 0.941800 -0.043606
N2    N     N_R   0.107380 0.396210 0.058200 -0.041551
N3    N     N_R   0.107380 0.603790 0.058200 -0.043169
N4    N     N_R   0.892620 0.396210 0.941800 -0.042526
N5    N     N_R   0.392620 0.103790 0.941800 -0.046756
N6    N     N_R   0.607380 0.896210 0.058200 -0.046794
N7    N     N_R   0.607380 0.103790 0.058200 -0.046777
N8    N     N_R   0.392620 0.896210 0.941800 -0.046334
N9    N     N_R   0.952210 0.397600 0.057910 -0.042126
N10   N     N_R   0.047790 0.602400 0.942090 -0.043788
N11   N     N_R   0.047790 0.397600 0.942090 -0.043286
N12   N     N_R   0.952210 0.602400 0.057910 -0.041960
N13   N     N_R   0.452210 0.897600 0.057910 -0.043760
N14   N     N_R   0.547790 0.102400 0.942090 -0.046333
N15   N     N_R   0.547790 0.897600 0.942090 -0.046119
N16   N     N_R   0.452210 0.102400 0.057910 -0.043781
N17   N     N_R   0.026300 0.529110 0.206760 -0.040242
N18   N     N_R   0.973700 0.470890 0.793240 -0.040528
N19   N     N_R   0.973700 0.529110 0.793240 -0.039087
N20   N     N_R   0.026300 0.470890 0.206760 -0.040229
N21   N     N_R   0.526300 0.029110 0.206760 -0.050355
N22   N     N_R   0.473700 0.970890 0.793240 -0.035207
N23   N     N_R   0.473700 0.029110 0.793240 -0.035812
N24   N     N_R   0.526300 0.970890 0.206760 -0.050387
N25   N     N_R   0.818530 0.472270 0.792960 -0.050152
N26   N     N_R   0.181470 0.527730 0.207040 -0.051611
N27   N     N_R   0.181470 0.472270 0.207040 -0.044221
N28   N     N_R   0.818530 0.527730 0.792960 -0.044095
N29   N     N_R   0.318530 0.972270 0.792960 -0.041656
N30   N     N_R   0.681470 0.027730 0.207040 -0.044171
N31   N     N_R   0.681470 0.972270 0.207040 -0.044079
N32   N     N_R   0.318530 0.027730 0.792960 -0.042408
Ni1   Ni    Ni4+2 0.934150 0.565840 0.869060 0.216059
Ni2   Ni    Ni4+2 0.065850 0.434160 0.130940 0.225181
Ni3   Ni    Ni4+2 0.065850 0.565840 0.130940 0.237750
Ni4   Ni    Ni4+2 0.934150 0.434160 0.869060 0.227293
Ni5   Ni    Ni4+2 0.434150 0.065840 0.869060 0.243739
Ni6   Ni    Ni4+2 0.565850 0.934160 0.130940 0.226766
Ni7   Ni    Ni4+2 0.565850 0.065840 0.130940 0.229751
Ni8   Ni    Ni4+2 0.434150 0.934160 0.869060 0.246872
S1    S     S_3+6 0.426883 0.566693 0.610312 -0.036404
O1    O     O_2   0.377680 0.617976 0.544543 -0.286244
O2    O     O_2   0.358061 0.531836 0.615093 -0.278758
O3    O     O_3   0.518098 0.584399 0.739769 -0.519777
H65   H     H_    0.549921 0.549239 0.776856 0.334802
S2    S     S_3+6 0.577429 0.434129 0.385438 -0.035634
O4    O     O_2   0.655629 0.466636 0.395726 -0.270210
O5    O     O_2   0.615350 0.379375 0.441918 -0.310914
O6    O     O_3   0.489938 0.424295 0.250129 -0.487737
H66   H     H_    0.431049 0.422196 0.245815 0.309697
S3    S     S_3+6 0.840382 0.000231 0.538509 -0.069973
O7    O     O_2   0.780292 0.050867 0.485931 -0.337288
O8    O     O_2   0.780307 0.949625 0.486278 -0.340485
O9    O     O_3   0.889692 0.000291 0.675376 -0.528321
H67   H     H_    0.835354 0.000307 0.680298 0.375555
S4    S     S_3+6 0.158214 0.999770 0.468227 -0.028883
O10   O     O_2   0.219110 0.050074 0.520575 -0.274247
O11   O     O_2   0.218714 0.949141 0.519212 -0.304920
O12   O     O_3   0.107965 0.000601 0.331117 -0.490768
H68   H     H_    0.066798 0.967588 0.301384 0.332914

loop_
_geom_bond_atom_site_label_1
_geom_bond_atom_site_label_2
_ccdc_geom_bond_type
N8    N13   A    
C16   C28   A    
C14   H42   S    
C10   C85   S    
C60   N20   A    
N26   N27   A    
C41   H61   S    
C49   N9    A    
C19   C23   A    
O12   H68   S    
C59   C82   A    
C50   H10   S    
N16   Ni7   S    
C70   C88   A    
C9    C91   S    
C57   N17   A    
C69   C87   A    
C3    N3    A    
C15   C32   A    
N31   Ni6   S    
C5    H5    S    
S1    O1    D    
C16   C31   A    
C40   C46   A    
C98   S2    S    
N30   Ni7   S    
N2    N11   A    
N19   Ni1   S    
N29   Ni8   S    
C99   S3    S    
C6    N6    A    
C57   H17   S    
C16   H44   S    
C52   N12   A    
C7    N7    A    
C19   C36   A    
S3    O8    D    
C93   H37   S    
C32   C74   S    
C90   H34   S    
C67   N27   A    
C6    C78   A    
C52   H12   S    
C3    H3    S    
C96   C99   S    
C54   H14   S    
C70   H30   S    
C30   C76   S    
C5    N5    A    
C11   C99   S    
C15   C27   A    
C37   H57   S    
C10   C98   S    
C58   H18   S    
N18   N19   A    
C59   N19   A    
C38   C45   A    
C23   H51   S    
C24   H52   S    
C34   C80   S    
C46   C82   S    
C20   C35   A    
C62   C84   A    
C26   C34   A    
C22   H50   S    
C20   C24   A    
C10   C89   S    
C4    N4    A    
O3    H65   S    
N10   Ni1   S    
C92   C97   S    
C9    C97   S    
C20   H48   S    
N7    N14   A    
C47   C83   S    
C89   C91   S    
C3    C75   A    
C93   C99   S    
N5    N16   A    
C2    C74   A    
C71   N31   A    
C62   N22   A    
C21   H49   S    
N30   N31   A    
C10   C92   S    
C93   C95   S    
C68   C85   A    
C41   C43   A    
C13   C25   A    
C92   H36   S    
C42   C44   A    
N8    Ni8   S    
C8    H8    S    
N27   Ni2   S    
S4    O11   D    
S4    O10   D    
C53   H13   S    
N26   Ni3   S    
C72   H32   S    
S1    O2    D    
C27   H55   S    
N4    N9    A    
C45   C81   S    
C89   H33   S    
C51   N11   A    
C25   H53   S    
C13   C30   A    
C53   C80   A    
N18   Ni4   S    
C38   H58   S    
C52   C73   A    
C61   C83   A    
S3    O9    S    
C55   C78   A    
C95   C100  S    
C33   C79   S    
N21   N24   A    
C56   H16   S    
N5    Ni5   S    
C27   C35   A    
C72   N32   A    
O6    H66   S    
C21   C29   A    
C35   C77   S    
C19   H47   S    
C56   C77   A    
C66   H26   S    
C12   C100  S    
C89   C97   S    
N1    N12   A    
C65   H25   S    
N25   N28   A    
C17   H45   S    
S3    O7    D    
C24   C32   A    
C64   C83   A    
C66   C86   A    
N1    Ni1   S    
C9    C86   S    
C48   C84   S    
C60   C81   A    
C90   C92   S    
C2    H2    S    
C94   C100  S    
C11   C88   S    
C70   N30   A    
N29   N32   A    
C28   H56   S    
C69   N29   A    
C6    H6    S    
C49   C76   A    
N22   Ni8   S    
N2    Ni2   S    
N28   Ni1   S    
C14   C26   A    
N20   Ni2   S    
C94   C96   S    
C100  S4    S    
C64   N24   A    
C8    N8    A    
C51   H11   S    
N3    N10   A    
C15   H43   S    
C68   H28   S    
N25   Ni4   S    
C65   N25   A    
C63   N23   A    
C67   H27   S    
C61   N21   A    
C4    C76   A    
C7    H7    S    
C12   C93   S    
C26   H54   S    
C17   C34   A    
C14   C29   A    
C5    C77   A    
N17   Ni3   S    
C1    H1    S    
C62   H22   S    
C72   C87   A    
C11   C94   S    
C7    C79   A    
C54   C79   A    
C56   N16   A    
S1    O3    S    
C11   C95   S    
C2    N2    A    
C67   C86   A    
C59   H19   S    
C22   C30   A    
C12   C87   S    
C39   H59   S    
N9    Ni2   S    
C18   C22   A    
C55   N15   A    
C13   H41   S    
C40   H60   S    
C68   N28   A    
N4    Ni4   S    
C61   H21   S    
C43   C47   A    
C18   H46   S    
C53   N13   A    
C9    C90   S    
C96   H40   S    
C63   H23   S    
C42   H62   S    
C65   C85   A    
C29   C75   S    
S2    O6    S    
N23   Ni5   S    
C95   H39   S    
N12   Ni3   S    
C39   C45   A    
N6    N15   A    
C58   N18   A    
C1    C73   A    
S2    O5    D    
C58   C82   A    
N22   N23   A    
C49   H9    S    
C37   C39   A    
C1    N1    A    
C64   H24   S    
C50   C75   A    
C38   C40   A    
N32   Ni5   S    
N21   Ni7   S    
O9    H67   S    
C55   H15   S    
C94   H38   S    
N17   N20   A    
C4    H4    S    
N24   Ni6   S    
C41   C48   A    
C60   H20   S    
C57   C81   A    
C42   C47   A    
C91   C98   S    
N7    Ni7   S    
C18   C33   A    
C17   C21   A    
N11   Ni4   S    
N6    Ni6   S    
C31   C73   S    
C66   N26   A    
C71   H31   S    
C71   C88   A    
C54   N14   A    
C91   H35   S    
N15   Ni8   S    
C28   C36   A    
C69   H29   S    
S2    O4    D    
N14   Ni5   S    
C25   C33   A    
C8    C80   A    
C51   C74   A    
N3    Ni3   S    
N13   Ni6   S    
C12   C96   S    
C36   C78   S    
C50   N10   A    
C44   H64   S    
C97   S1    S    
C37   C46   A    
C63   C84   A    
C90   C98   S    
S4    O12   S    
C44   C48   A    
C23   C31   A    
C43   H63   S    
