data_mof_unit_50187.cif
_audit_creation_date              2012-12-11T17:05:25-0500
_audit_creation_method            fapswitch 2.2
_symmetry_space_group_name_H-M    P1
_symmetry_Int_Tables_number       1
_space_group_crystal_system       triclinic
_cell_length_a                    6.950101
_cell_length_b                    14.532065
_cell_length_c                    16.00922
_cell_angle_alpha                 90.241168
_cell_angle_beta                  90.003063
_cell_angle_gamma                 89.969031
_cell_volume                      1616.90576364

loop_
_atom_site_label
_atom_site_type_symbol
_atom_type_description
_atom_site_fract_x
_atom_site_fract_y
_atom_site_fract_z
_atom_type_partial_charge
O1    O     O_R   0.494380 0.415640 0.412830 -0.541107
O2    O     O_R   0.823960 0.405540 0.586560 -0.545713
O3    O     O_R   0.994270 0.584360 0.587170 -0.537310
C1    C     C_R   0.655233 0.383520 0.615264 0.696297
O4    O     O_R   0.824090 0.404620 0.413450 -0.547528
O5    O     O_R   0.994400 0.583430 0.412820 -0.527896
C2    C     C_R   0.655317 0.382447 0.384477 0.687664
O6    O     O_R   0.494250 0.416570 0.587180 -0.541245
O7    O     O_3   0.660800 0.558670 0.500000 -0.347598
V1    V     V_3+5 0.935650 0.489120 0.500000 1.423174
O8    O     O_R   0.324110 0.594460 0.413440 -0.531243
C3    C     C_R   0.155031 0.616230 0.384403 0.725196
O9    O     O_R   0.323980 0.595380 0.586550 -0.538759
C4    C     C_R   0.155182 0.617645 0.615501 0.695104
V2    V     V_3+5 0.435660 0.510880 0.500000 1.448196
O10   O     O_3   0.160640 0.441330 0.500000 -0.380312
C5    C     C_3   0.048508 0.644488 0.764637 -0.347939
H1    H     H_    0.901529 0.619666 0.748632 0.105442
H2    H     H_    0.132780 0.583483 0.785156 0.182057
C6    C     C_3   0.034293 0.715829 0.837167 0.525299
H3    H     H_    0.880091 0.725882 0.853640 0.051537
H4    H     H_    0.876676 0.751463 0.642213 0.164723
H5    H     H_    0.858796 0.856548 0.748803 0.143194
C7    C     C_3   0.024696 0.772962 0.660244 -0.311100
C8    C     C_3   0.348351 0.721488 0.712218 -0.323269
C9    C     C_3   0.144680 0.687542 0.686351 0.019897
H6    H     H_    0.421597 0.753610 0.657809 0.162961
H7    H     H_    0.438206 0.662144 0.732376 0.150053
C10   C     C_3   0.123193 0.809530 0.810906 0.017154
C11   C     C_3   0.012535 0.844184 0.732794 -0.455305
C12   C     C_3   0.336018 0.792271 0.784237 -0.290999
H8    H     H_    0.421173 0.766730 0.838284 0.186411
H9    H     H_    0.403062 0.857991 0.763765 0.126331
H10   H     H_    0.091094 0.805759 0.604574 0.167898
H11   H     H_    0.073673 0.911014 0.711925 0.158602
C13   C     C_R   0.268561 0.818065 0.242039 0.050404
C14   C     C_R   0.118279 0.815775 0.183652 -0.100568
C15   C     C_R   0.969048 0.752036 0.197653 -0.131656
H12   H     H_    0.848404 0.748352 0.155147 0.131659
C16   C     C_R   0.980467 0.687976 0.263381 -0.114350
H13   H     H_    0.867952 0.637045 0.269513 0.127360
C17   C     C_R   0.141055 0.685935 0.317263 -0.137306
C18   C     C_R   0.279614 0.754916 0.307105 0.125261
C19   C     C_3   0.492782 0.747657 0.299763 0.119467
C20   C     C_3   0.480858 0.816964 0.228838 -0.428990
H14   H     H_    0.540030 0.677998 0.279584 0.095624
H15   H     H_    0.520038 0.787436 0.167002 0.157372
H16   H     H_    0.547666 0.884677 0.243225 0.198056
C21   C     C_R   0.497737 0.318797 0.743720 0.067281
C22   C     C_R   0.647822 0.317432 0.685288 -0.106125
C23   C     C_R   0.796904 0.253210 0.697955 -0.159359
H17   H     H_    0.917458 0.250293 0.655346 0.121049
C24   C     C_R   0.785240 0.187648 0.762316 -0.123277
H18   H     H_    0.897561 0.136410 0.767479 0.120172
C25   C     C_R   0.624544 0.184635 0.816012 -0.137214
C26   C     C_R   0.486471 0.254182 0.807474 0.132414
C27   C     C_3   0.273123 0.247729 0.800203 0.120112
C28   C     C_3   0.285372 0.318726 0.730693 -0.432085
H19   H     H_    0.224966 0.178720 0.778689 0.082383
H20   H     H_    0.219489 0.386306 0.746519 0.201398
H21   H     H_    0.245412 0.290836 0.668340 0.144039
C29   C     C_R   0.493604 0.316498 0.256762 0.108558
C30   C     C_R   0.647417 0.316624 0.313414 -0.113942
C31   C     C_R   0.798727 0.254271 0.298011 -0.171176
H22   H     H_    0.920907 0.251926 0.339665 0.132983
C32   C     C_R   0.787561 0.189757 0.232170 -0.161862
H23   H     H_    0.902044 0.139939 0.224974 0.128427
C33   C     C_R   0.624466 0.185402 0.179866 -0.111508
C34   C     C_R   0.482164 0.252442 0.191830 0.140052
C35   C     C_3   0.270763 0.241023 0.203007 -0.398781
C36   C     C_3   0.283090 0.311176 0.273455 -0.411700
H24   H     H_    0.233130 0.170772 0.224719 0.162003
H25   H     H_    0.187965 0.265972 0.148170 0.208035
H26   H     H_    0.251826 0.281874 0.336016 0.171260
H27   H     H_    0.208101 0.376856 0.259213 0.176651
O11   O     O_R   0.771490 0.080820 0.910070 -0.530223
O12   O     O_R   0.441590 0.092730 0.083780 -0.537338
O13   O     O_R   0.271350 0.913900 0.084390 -0.538560
C37   C     C_R   0.610611 0.114842 0.112835 0.711495
O14   O     O_R   0.441780 0.091820 0.910670 -0.535842
O15   O     O_R   0.271540 0.912980 0.910040 -0.542351
C38   C     C_R   0.610796 0.113883 0.881987 0.717305
O16   O     O_R   0.771300 0.081740 0.084420 -0.537990
O17   O     O_3   0.604960 0.938700 0.997240 -0.378018
V3    V     V_3+5 0.330090 0.008230 0.997220 1.467092
O18   O     O_R   0.941820 0.901930 0.910640 -0.553600
C39   C     C_R   0.111060 0.879718 0.881626 0.706069
O19   O     O_R   0.941630 0.902840 0.083750 -0.546134
C40   C     C_R   0.110458 0.880974 0.112700 0.725772
V4    V     V_3+5 0.830090 0.986410 0.997190 1.444127
O20   O     O_3   0.105080 0.055990 0.997200 -0.351301
Br1   Br    Br    0.620580 0.795399 0.398708 -0.568368
Br2   Br    Br    0.146235 0.293503 0.900134 -0.517011
F1    F     F_    0.127254 0.682177 0.907350 -0.687113

loop_
_geom_bond_atom_site_label_1
_geom_bond_atom_site_label_2
_ccdc_geom_bond_type
C8    C12   S    
C32   C33   A    
C25   C26   A    
C1    O6    A    
V3    O20   S    
C24   H18   S    
C8    H7    S    
C10   C11   S    
C11   H11   S    
C5    C9    S    
C13   C14   A    
C15   C16   A    
C14   C15   A    
C7    C9    S    
O5    C3    A    
C15   H12   S    
C27   H19   S    
C28   H20   S    
V2    O10   S    
C5    C6    S    
C26   C27   S    
C20   H15   S    
C3    C17   S    
O8    V2    S    
C33   C34   A    
C12   H9    S    
C35   C36   S    
O1    V2    S    
O7    V1    S    
C19   Br1   S    
C33   C37   S    
O12   C37   A    
C32   H23   S    
O12   V3    S    
C27   Br2   S    
O9    C4    A    
O17   V4    S    
C35   H25   S    
C19   H14   S    
C22   C23   A    
C6    C10   S    
C24   C25   A    
O13   C40   A    
C36   H27   S    
C23   H17   S    
H5    C11   S    
O17   V3    S    
O14   C38   A    
O18   V4    S    
O11   C38   A    
O4    C2    A    
O18   C39   A    
C8    C9    S    
C7    H10   S    
C21   C28   S    
C29   C34   A    
C1    C22   S    
C23   C24   A    
C31   C32   A    
O2    C1    A    
C18   C19   S    
O14   V3    S    
C12   H8    S    
C6    H3    S    
C29   C30   A    
C5    H1    S    
C13   C20   S    
C4    C9    S    
C25   C38   S    
C2    C30   S    
O15   C39   A    
O3    C4    A    
O13   V3    S    
C16   H13   S    
O19   V4    S    
O6    V2    S    
O9    V2    S    
H4    C7    S    
C17   C18   A    
V4    O20   S    
O2    V1    S    
C19   C20   S    
C20   H16   S    
O16   V4    S    
C6    F1    S    
O1    C2    A    
O5    V1    S    
C36   H26   S    
O8    C3    A    
C8    H6    S    
C21   C26   A    
C14   C40   S    
C31   H22   S    
O7    V2    S    
O4    V1    S    
C10   C12   S    
O3    V1    S    
V1    O10   S    
C37   O16   A    
C27   C28   S    
C28   H21   S    
C16   C17   A    
C5    H2    S    
C29   C36   S    
C34   C35   S    
C7    C11   S    
C10   C39   S    
C30   C31   A    
O19   C40   A    
C21   C22   A    
C13   C18   A    
C35   H24   S    
O15   V3    S    
O11   V4    S    
