data_mof_unit_8525.cif
_audit_creation_date              2012-12-11T14:28:28-0500
_audit_creation_method            fapswitch 2.2
_symmetry_space_group_name_H-M    P1
_symmetry_Int_Tables_number       1
_space_group_crystal_system       triclinic
_cell_length_a                    11.054558
_cell_length_b                    18.999162
_cell_length_c                    18.568369
_cell_angle_alpha                 89.415333
_cell_angle_beta                  90.043077
_cell_angle_gamma                 90.216518
_cell_volume                      3899.63323783

loop_
_atom_site_label
_atom_site_type_symbol
_atom_type_description
_atom_site_fract_x
_atom_site_fract_y
_atom_site_fract_z
_atom_type_partial_charge
C1    C     C_R   0.321328 0.969568 0.646270 0.516914
C2    C     C_3   0.153935 0.748846 0.048295 -0.104445
C3    C     C_3   0.002572 0.208176 0.981002 -0.113730
C4    C     C_3   0.440725 0.262583 0.493279 -0.119545
C5    C     C_3   0.499474 0.291181 0.018399 -0.111752
C6    C     C_3   0.519902 0.690743 0.523268 -0.087117
C7    C     C_3   0.524347 0.698769 0.977003 -0.115226
C8    C     C_3   0.157278 0.812530 0.493355 -0.160650
C9    C     C_3   0.114162 0.807514 0.996955 -0.177103
C10   C     C_3   0.139690 0.219467 0.493523 -0.128099
C11   C     C_3   0.133542 0.221602 0.007134 -0.130831
C12   C     C_3   0.550879 0.306090 0.519771 -0.155891
C13   C     C_3   0.140260 0.292587 0.529018 -0.117262
C14   C     C_3   0.630849 0.279480 0.992372 -0.130610
C15   C     C_3   0.657017 0.686160 0.506859 -0.161712
C16   C     C_3   0.661243 0.704913 0.995575 -0.153490
C17   C     C_3   0.139678 0.766194 0.560920 0.054571
C18   C     C_3   0.120141 0.754565 0.935544 0.055121
C19   C     C_3   0.080867 0.253436 0.426893 0.052332
C20   C     C_3   0.082478 0.257191 0.073499 0.054698
C21   C     C_3   0.581624 0.246750 0.573195 0.052740
C22   C     C_3   0.580870 0.242567 0.926230 0.053261
C23   C     C_3   0.640540 0.732850 0.439342 0.055066
C24   C     C_3   0.136488 0.294239 0.969653 -0.079908
C25   C     C_3   0.627512 0.743759 0.064281 0.052918
C26   C     C_3   0.004989 0.763455 0.545378 0.165281
C27   C     C_3   0.988506 0.734516 0.948348 0.148451
C28   C     C_3   0.956269 0.238010 0.456634 0.130029
C29   C     C_3   0.954839 0.246343 0.048394 0.136355
C30   C     C_3   0.474365 0.204036 0.547576 0.132082
C31   C     C_3   0.452814 0.251609 0.951448 0.135563
C32   C     C_3   0.505814 0.735581 0.454673 0.166356
C33   C     C_3   0.494019 0.739149 0.046382 0.149458
C34   C     C_3   0.021372 0.694051 0.504870 -0.113935
C35   C     C_3   0.632921 0.271236 0.463349 -0.095361
C36   C     C_3   0.027190 0.675104 0.000003 -0.100737
C37   C     C_3   0.952875 0.310762 0.492999 -0.128758
C38   C     C_3   0.955190 0.318046 0.008797 -0.112380
C39   C     C_3   0.554689 0.167647 0.492031 -0.115823
C40   C     C_3   0.455747 0.180294 0.991749 -0.112533
C41   C     C_3   0.523156 0.804808 0.495387 -0.112802
C42   C     C_3   0.498557 0.810592 0.006927 -0.104731
C43   C     C_3   0.159206 0.698520 0.518175 -0.107554
C44   C     C_3   0.161116 0.695434 0.986934 -0.099823
C45   C     C_3   0.080580 0.325939 0.462202 -0.140007
C46   C     C_3   0.636127 0.207271 0.030509 -0.082835
C47   C     C_3   0.085264 0.329060 0.036651 -0.142052
C48   C     C_3   0.663577 0.211765 0.517464 -0.102077
C49   C     C_3   0.585948 0.171139 0.963808 -0.142637
C50   C     C_3   0.660933 0.800289 0.482447 -0.106054
C51   C     C_3   0.634469 0.815543 0.026029 -0.127888
C52   C     C_3   0.890382 0.852697 0.612099 -0.276169
C53   C     C_3   0.901018 0.661579 0.852502 -0.286392
C54   C     C_3   0.862187 0.133603 0.402549 -0.289601
C55   C     C_3   0.832174 0.275259 0.153748 -0.285694
C56   C     C_3   0.343385 0.208180 0.653788 -0.298028
C57   C     C_3   0.677374 0.753709 0.550544 -0.113213
C58   C     C_3   0.325534 0.217600 0.849962 -0.290098
C59   C     C_3   0.389906 0.646755 0.387537 -0.277691
C60   C     C_3   0.394889 0.768387 0.161290 -0.286687
C61   C     C_3   0.668446 0.776977 0.956926 -0.093581
C62   C     C_3   0.041114 0.738464 0.436430 0.008201
C63   C     C_3   0.022377 0.728500 0.061313 0.012370
C64   C     C_3   0.014425 0.276870 0.559706 0.028056
C65   C     C_R   0.318549 0.964081 0.855044 0.531166
C66   C     C_3   0.007806 0.280532 0.941758 0.018802
C67   C     C_3   0.524732 0.227098 0.438452 0.034798
C68   C     C_3   0.507191 0.219282 0.058306 0.018542
C69   C     C_3   0.541908 0.760342 0.563778 0.007767
C70   C     C_3   0.533464 0.770713 0.938141 0.027088
C71   C     C_R   0.323642 0.994145 0.423791 -0.045264
C72   C     C_R   0.320165 0.017176 0.070782 -0.028560
C73   C     C_R   0.332899 0.003154 0.574492 -0.040015
C74   C     C_R   0.319920 0.987006 0.927394 -0.031614
C75   C     C_R   0.833764 0.492320 0.422676 -0.050814
C76   C     C_R   0.319318 0.029566 0.352911 0.532163
C77   C     C_R   0.823220 0.513168 0.072417 -0.031709
C78   C     C_R   0.823262 0.501535 0.573416 -0.049044
C79   C     C_R   0.823533 0.479040 0.930237 -0.034662
C80   C     C_R   0.540811 0.972402 0.419752 -0.089686
C81   C     C_R   0.540368 0.986567 0.075286 -0.078750
C82   C     C_R   0.557371 0.996974 0.567128 -0.086220
C83   C     C_R   0.544609 0.004213 0.927355 -0.081857
C84   C     C_R   0.057763 0.501931 0.430283 -0.083097
C85   C     C_R   0.047818 0.495174 0.075219 -0.087623
C86   C     C_R   0.041221 0.524299 0.577725 -0.076421
C87   C     C_R   0.318388 0.037195 0.144194 0.533014
C88   C     C_R   0.045706 0.509246 0.926748 -0.087260
C89   C     C_R   0.652487 0.972379 0.453201 -0.142283
C90   C     C_R   0.650568 0.990164 0.039424 -0.139725
C91   C     C_R   0.661227 0.985182 0.526651 -0.141453
C92   C     C_R   0.652371 0.000218 0.965436 -0.144973
C93   C     C_R   0.161780 0.513621 0.470860 -0.138765
C94   C     C_R   0.155977 0.503733 0.038058 -0.141143
C95   C     C_R   0.153044 0.525423 0.544382 -0.125996
C96   C     C_R   0.154689 0.513511 0.963978 -0.136913
C97   C     C_R   0.441768 0.995390 0.534503 -0.008523
C98   C     C_R   0.819282 0.469405 0.646088 0.527993
C99   C     C_R   0.431822 0.997587 0.962885 -0.016071
C100  C     C_R   0.435338 0.987555 0.458888 -0.016188
C101  C     C_R   0.430447 0.998659 0.037668 -0.017533
C102  C     C_R   0.935607 0.508140 0.538594 -0.008289
C103  C     C_R   0.935287 0.495533 0.963811 -0.024658
C104  C     C_R   0.942326 0.500678 0.463021 -0.002492
C105  C     C_R   0.935340 0.498504 0.038742 -0.024674
C106  C     C_R   0.224039 0.015156 0.537362 0.026669
C107  C     C_R   0.207373 0.990059 0.965602 -0.002199
C108  C     C_R   0.216743 0.995682 0.465246 0.012314
C109  C     C_R   0.818976 0.461224 0.856483 0.531074
C110  C     C_R   0.210538 0.023452 0.029933 -0.005425
C111  C     C_R   0.716138 0.497957 0.531341 0.008416
C112  C     C_R   0.713665 0.476335 0.970436 -0.002367
C113  C     C_R   0.724813 0.478594 0.459139 0.001379
C114  C     C_R   0.713345 0.513576 0.032219 0.001462
C115  C     C_R   0.118197 0.037493 0.572631 -0.069064
C116  C     C_R   0.091478 0.962053 0.944196 -0.081419
C117  C     C_R   0.101988 0.979483 0.436406 -0.081558
C118  C     C_R   0.100936 0.056730 0.051606 -0.084394
C119  C     C_R   0.599934 0.512500 0.559147 -0.083214
C120  C     C_R   0.821321 0.529431 0.352808 0.524944
C121  C     C_R   0.601454 0.444980 0.949715 -0.083844
C122  C     C_R   0.619925 0.455400 0.422625 -0.081223
C123  C     C_R   0.602674 0.547844 0.050067 -0.079903
C124  C     C_R   0.005552 0.023975 0.542735 -0.145572
C125  C     C_R   0.985243 0.981472 0.977457 -0.139205
C126  C     C_R   0.997832 0.992709 0.475665 -0.150016
C127  C     C_R   0.988969 0.034099 0.027465 -0.137520
C128  C     C_R   0.496413 0.496763 0.519553 -0.153224
C129  C     C_R   0.491811 0.470126 0.974914 -0.137400
C130  C     C_R   0.506093 0.465817 0.452273 -0.139585
C131  C     C_R   0.819001 0.536313 0.144705 0.528481
C132  C     C_R   0.493094 0.526061 0.021547 -0.138849
C133  C     C_R   0.182543 0.772097 0.635581 0.547435
C134  C     C_R   0.172890 0.768139 0.864883 0.534590
C135  C     C_R   0.131950 0.242602 0.355650 0.535367
C136  C     C_R   0.133845 0.243026 0.143954 0.534623
C137  C     C_R   0.631283 0.257097 0.644803 0.537021
C138  C     C_R   0.633100 0.256741 0.855768 0.532063
C139  C     C_R   0.683037 0.727746 0.364486 0.547287
C140  C     C_R   0.677712 0.730606 0.135343 0.524963
C141  C     C_R   0.504180 0.783953 0.635743 0.540052
C142  C     C_3   0.176675 0.744852 0.450025 -0.114753
C143  C     C_R   0.498635 0.786901 0.863561 0.553505
C144  C     C_R   0.497538 0.212291 0.362992 0.569430
C145  C     C_R   0.491251 0.210017 0.137614 0.569325
C146  C     C_R   0.993518 0.289262 0.637174 0.571234
C147  C     C_R   0.991237 0.289950 0.862489 0.569472
C148  C     C_R   0.003702 0.715655 0.364109 0.540294
C149  C     C_R   0.994964 0.712148 0.137071 0.543990
C150  C     C_3   0.020112 0.808079 0.476719 -0.085814
C151  C     C_3   0.979757 0.787954 0.010368 -0.107521
C152  C     C_3   0.012407 0.203691 0.524215 -0.086410
Cr1   Cr    Cr6+3 0.488160 0.884660 0.750000 0.973792
Cr2   Cr    Cr6+3 0.333410 0.272740 0.250000 0.995376
Cr3   Cr    Cr6+3 0.833410 0.227260 0.750000 0.990882
Cr4   Cr    Cr6+3 0.833410 0.772740 0.250000 0.986272
Cr5   Cr    Cr6+3 0.488160 0.115340 0.250000 0.974914
Cr6   Cr    Cr6+3 0.988160 0.384660 0.750000 0.980842
Cr7   Cr    Cr6+3 0.988160 0.615340 0.250000 0.970309
Cr8   Cr    Cr6+3 0.173480 0.883120 0.750000 0.970005
Cr9   Cr    Cr6+3 0.173480 0.116880 0.250000 0.975911
Cr10  Cr    Cr6+3 0.673480 0.383120 0.750000 0.982387
Cr11  Cr    Cr6+3 0.673480 0.616880 0.250000 0.968226
Cr12  Cr    Cr6+3 0.333410 0.727260 0.750000 0.992542
H1    H     H_    0.219309 0.858214 0.490874 0.114859
H2    H     H_    0.901694 0.956011 0.962982 0.097156
H3    H     H_    0.471140 0.612760 0.386435 0.189836
H4    H     H_    0.410576 0.667270 0.116934 0.258773
H5    H     H_    0.320355 0.750468 0.197220 0.145323
H6    H     H_    0.373582 0.822082 0.140805 0.131328
H7    H     H_    0.476739 0.771802 0.194991 0.199626
H8    H     H_    0.911609 0.980369 0.452900 0.088478
H9    H     H_    0.906689 0.056113 0.049049 0.100085
H10   H     H_    0.409156 0.506094 0.542480 0.099810
H11   H     H_    0.407392 0.448208 0.955775 0.101100
H12   H     H_    0.426090 0.450165 0.422878 0.109626
H13   H     H_    0.410829 0.552464 0.036456 0.093236
H14   H     H_    0.958233 0.850079 0.457806 0.111901
H15   H     H_    0.904445 0.824968 0.020241 0.110878
H16   H     H_    0.977480 0.156981 0.552964 0.122076
H17   H     H_    0.167259 0.855978 0.003698 0.115882
H18   H     H_    0.964559 0.159755 0.956902 0.134885
H19   H     H_    0.354790 0.286105 0.475626 0.121186
H20   H     H_    0.460057 0.339522 0.041531 0.132799
H21   H     H_    0.458601 0.647824 0.541543 0.110235
H22   H     H_    0.474629 0.653175 0.954709 0.125721
H23   H     H_    0.959472 0.648303 0.508422 0.113121
H24   H     H_    0.981376 0.624312 0.003501 0.127446
H25   H     H_    0.875296 0.347549 0.494554 0.110369
H26   H     H_    0.884555 0.358713 0.010295 0.104591
H27   H     H_    0.557455 0.111944 0.476581 0.146829
H28   H     H_    0.214954 0.181060 0.491760 0.151006
H29   H     H_    0.386569 0.138369 0.991199 0.103578
H30   H     H_    0.461433 0.850300 0.491947 0.115468
H31   H     H_    0.428554 0.852017 0.010226 0.107078
H32   H     H_    0.223099 0.657243 0.535815 0.126316
H33   H     H_    0.238084 0.659263 0.977941 0.126879
H34   H     H_    0.114769 0.373070 0.433769 0.134538
H35   H     H_    0.129264 0.372920 0.064370 0.139618
H36   H     H_    0.753182 0.190150 0.531942 0.153935
H37   H     H_    0.630733 0.127980 0.935807 0.138019
H38   H     H_    0.725302 0.841616 0.464913 0.127161
H39   H     H_    0.206793 0.182606 0.008256 0.106682
H40   H     H_    0.687591 0.859636 0.047820 0.135032
H41   H     H_    0.224828 0.746465 0.398815 0.183854
H42   H     H_    0.207369 0.761373 0.095107 0.179770
H43   H     H_    0.213863 0.320176 0.557771 0.131566
H44   H     H_    0.201587 0.328870 0.941986 0.180494
H45   H     H_    0.694086 0.301094 0.426850 0.133015
H46   H     H_    0.700670 0.172965 0.058375 0.183451
H47   H     H_    0.724568 0.751732 0.602152 0.184138
H48   H     H_    0.736445 0.800424 0.920524 0.164036
H49   H     H_    0.730932 0.960953 0.421210 0.096478
H50   H     H_    0.551409 0.361034 0.537976 0.159259
H51   H     H_    0.734121 0.984525 0.069185 0.103190
H52   H     H_    0.748116 0.985541 0.552690 0.094931
H53   H     H_    0.736074 0.008038 0.936857 0.102128
H54   H     H_    0.248962 0.513733 0.444860 0.091863
H55   H     H_    0.240026 0.501577 0.067434 0.105775
H56   H     H_    0.231796 0.537567 0.576218 0.095354
H57   H     H_    0.237916 0.523633 0.935056 0.106519
H58   H     H_    0.537267 0.958983 0.363260 0.132913
H59   H     H_    0.543369 0.974002 0.132082 0.138035
H60   H     H_    0.569528 0.010548 0.623051 0.131064
H61   H     H_    0.703056 0.319415 0.991603 0.105860
H62   H     H_    0.552201 0.017931 0.870982 0.135111
H63   H     H_    0.070040 0.489382 0.374115 0.129163
H64   H     H_    0.055140 0.483032 0.131955 0.138862
H65   H     H_    0.037827 0.538315 0.634029 0.130124
H66   H     H_    0.049990 0.520523 0.869794 0.136993
H67   H     H_    0.092685 0.955468 0.384025 0.133975
H68   H     H_    0.098499 0.099391 0.087770 0.177310
H69   H     H_    0.122358 0.061277 0.625381 0.133070
H70   H     H_    0.078625 0.919453 0.907353 0.173305
H71   H     H_    0.625936 0.432931 0.369342 0.131031
H72   H     H_    0.716968 0.639717 0.509682 0.116163
H73   H     H_    0.598129 0.592747 0.084159 0.167141
H74   H     H_    0.588544 0.536954 0.611100 0.138378
H75   H     H_    0.595546 0.401956 0.913660 0.173582
H76   H     H_    0.930145 0.749211 0.648247 0.266915
H77   H     H_    0.838653 0.858833 0.662865 0.148724
H78   H     H_    0.833674 0.871669 0.567013 0.134073
H79   H     H_    0.972084 0.886579 0.613787 0.189879
H80   H     H_    0.904592 0.771015 0.854773 0.265118
H81   H     H_    0.836933 0.664666 0.806506 0.149927
H82   H     H_    0.868353 0.619804 0.889661 0.145908
H83   H     H_    0.731037 0.663337 0.991880 0.121884
H84   H     H_    0.992088 0.648198 0.831756 0.171516
H85   H     H_    0.854229 0.236413 0.362309 0.249439
H86   H     H_    0.791867 0.118212 0.363026 0.163527
H87   H     H_    0.839776 0.107929 0.454701 0.141144
H88   H     H_    0.950967 0.114501 0.383414 0.181258
H89   H     H_    0.890621 0.174859 0.125038 0.249345
H90   H     H_    0.766416 0.251614 0.192135 0.182693
H91   H     H_    0.787573 0.320121 0.125795 0.156696
H92   H     H_    0.910985 0.294776 0.184885 0.134835
H93   H     H_    0.429486 0.121167 0.614871 0.247961
H94   H     H_    0.924999 0.037338 0.572332 0.090202
H95   H     H_    0.258755 0.183042 0.673595 0.158854
H96   H     H_    0.323703 0.262704 0.636352 0.165524
H97   H     H_    0.409522 0.210460 0.698587 0.128906
H98   H     H_    0.386752 0.319342 0.872213 0.251416
H99   H     H_    0.264142 0.240048 0.808463 0.177172
H100  H     H_    0.275065 0.176382 0.880355 0.158536
H101  H     H_    0.404141 0.193099 0.822996 0.128950
H102  H     H_    0.430856 0.750422 0.351852 0.261190
H103  H     H_    0.338974 0.640722 0.336391 0.147073
H104  H     H_    0.332068 0.627911 0.432249 0.134525
N1    N     N_2   0.920466 0.779031 0.601885 -0.532041
N2    N     N_2   0.903731 0.728152 0.889250 -0.531669
N3    N     N_2   0.863269 0.209232 0.410352 -0.527905
N4    N     N_2   0.869327 0.222909 0.102134 -0.542569
N5    N     N_2   0.392414 0.167185 0.595636 -0.533540
N6    N     N_2   0.365287 0.272614 0.897991 -0.539727
N7    N     N_2   0.420936 0.720374 0.398061 -0.532872
N8    N     N_2   0.407417 0.719506 0.101618 -0.529106
O1    O     O_R   0.575450 0.828820 0.667950 -0.514580
O2    O     O_R   0.416860 0.942890 0.825320 -0.527485
O3    O     O_R   0.416860 0.057110 0.325320 -0.518825
O4    O     O_R   0.416860 0.057110 0.174680 -0.531044
O5    O     O_R   0.916860 0.442890 0.674680 -0.516431
O6    O     O_R   0.916860 0.442890 0.825320 -0.533487
O7    O     O_R   0.916860 0.557110 0.325320 -0.518649
O8    O     O_R   0.916860 0.557110 0.174680 -0.530255
O9    O     O_R   0.213790 0.953680 0.668330 -0.524693
O10   O     O_R   0.213790 0.953680 0.831670 -0.541398
O11   O     O_R   0.213790 0.046320 0.331670 -0.519745
O12   O     O_R   0.575450 0.828820 0.832050 -0.516194
O13   O     O_R   0.213790 0.046320 0.168330 -0.532064
O14   O     O_R   0.713790 0.453680 0.668330 -0.517987
O15   O     O_R   0.713790 0.453680 0.831670 -0.528394
O16   O     O_R   0.713790 0.546320 0.331670 -0.520676
O17   O     O_R   0.713790 0.546320 0.168330 -0.536056
O18   O     O_R   0.121360 0.817890 0.672660 -0.495420
O19   O     O_R   0.121360 0.817890 0.827340 -0.522568
O20   O     O_R   0.121360 0.182110 0.327340 -0.504059
O21   O     O_R   0.121360 0.182110 0.172660 -0.537563
O22   O     O_R   0.621360 0.317890 0.672660 -0.506471
O23   O     O_R   0.575450 0.171180 0.332050 -0.520682
O24   O     O_R   0.621360 0.317890 0.827340 -0.536121
O25   O     O_R   0.621360 0.682110 0.327340 -0.498548
O26   O     O_R   0.621360 0.682110 0.172660 -0.524392
O27   O     O_R   0.206850 0.711370 0.665820 -0.536390
O28   O     O_R   0.206850 0.711370 0.834180 -0.531400
O29   O     O_R   0.206850 0.288630 0.334180 -0.544910
O30   O     O_R   0.206850 0.288630 0.165820 -0.539795
O31   O     O_R   0.706850 0.211370 0.665820 -0.544274
O32   O     O_R   0.706850 0.211370 0.834180 -0.539708
O33   O     O_R   0.706850 0.788630 0.334180 -0.538341
O34   O     O_R   0.575450 0.171180 0.167950 -0.528528
O35   O     O_R   0.706850 0.788630 0.165820 -0.537344
O36   O     O_R   0.457710 0.733190 0.672630 -0.514596
O37   O     O_R   0.457710 0.733190 0.827370 -0.504148
O38   O     O_R   0.457710 0.266810 0.327370 -0.507012
O39   O     O_R   0.457710 0.266810 0.172630 -0.501228
O40   O     O_R   0.957710 0.233190 0.672630 -0.515121
O41   O     O_R   0.957710 0.233190 0.827370 -0.502199
O42   O     O_R   0.957710 0.766810 0.327370 -0.516500
O43   O     O_R   0.957710 0.766810 0.172630 -0.505726
O44   O     O_3   0.331690 0.831680 0.750000 -0.307254
O45   O     O_R   0.075450 0.328820 0.667950 -0.523011
O46   O     O_3   0.331690 0.168320 0.250000 -0.289520
O47   O     O_3   0.831690 0.331680 0.750000 -0.291598
O48   O     O_3   0.831690 0.668320 0.250000 -0.310505
O49   O     O_R   0.075450 0.328820 0.832050 -0.525767
O50   O     O_R   0.075450 0.671180 0.332050 -0.517122
O51   O     O_R   0.075450 0.671180 0.167950 -0.511177
O52   O     O_R   0.416860 0.942890 0.674680 -0.519909

loop_
_geom_bond_atom_site_label_1
_geom_bond_atom_site_label_2
_ccdc_geom_bond_type
C6    C32   S    
C58   H99   S    
C7    H22   S    
C88   H66   S    
C21   C137  S    
C79   C103  A    
C110  C118  A    
C88   C96   A    
C64   C152  S    
H80   N2    S    
C41   C69   S    
C62   C142  S    
C16   H83   S    
C82   H60   S    
C72   C101  A    
Cr4   O43   S    
C131  O17   A    
Cr12  O44   S    
C113  C122  A    
C38   H26   S    
C54   H87   S    
C76   O11   A    
C12   H50   S    
C4    C12   S    
C117  C126  A    
Cr10  O22   S    
C40   H29   S    
C21   C48   S    
C119  C128  A    
C143  O12   A    
C71   C108  A    
C146  O45   A    
C7    C33   S    
C56   H96   S    
Cr4   O48   S    
C50   H38   S    
H98   N6    S    
C11   C20   S    
C79   C109  S    
C25   C140  S    
C14   H61   S    
Cr10  O15   S    
C121  H75   S    
Cr7   O50   S    
C82   C91   A    
Cr1   O2    S    
C36   H24   S    
C152  H16   S    
C8    C150  S    
C17   C43   S    
C18   C44   S    
C26   N1    S    
C39   H27   S    
Cr2   O39   S    
C90   C92   A    
Cr6   O47   S    
H102  N7    S    
C141  O36   A    
Cr7   O8    S    
C111  C113  A    
C85   H64   S    
C94   C96   A    
C148  O50   A    
C22   C49   S    
C81   C90   A    
C99   C101  A    
C147  O41   A    
C17   C133  S    
C107  C110  A    
C36   C44   S    
C138  O24   A    
C59   H3    S    
C51   H40   S    
C140  O26   A    
Cr12  O37   S    
C21   C30   S    
C16   C25   S    
C9    C151  S    
C62   C150  S    
C64   C146  S    
C50   C57   S    
C119  H74   S    
C33   N8    S    
C8    C17   S    
C59   H103  S    
C106  C115  A    
C56   H97   S    
C60   H6    S    
C144  O38   A    
C52   H77   S    
C13   C45   S    
C94   H55   S    
C55   H91   S    
C87   O4    A    
C92   H53   S    
C3    H18   S    
C147  O49   A    
C20   C47   S    
C126  H8    S    
C86   C95   A    
C136  O30   A    
Cr6   O6    S    
C30   N5    S    
C96   H57   S    
C65   O2    A    
C125  C127  A    
C129  H11   S    
C43   C142  S    
C31   N6    S    
C19   C135  S    
C6    C69   S    
C57   H47   S    
C123  C132  A    
C112  C114  A    
C98   O5    A    
C81   C101  A    
C70   C143  S    
C60   H5    S    
Cr12  O28   S    
Cr6   O45   S    
Cr3   O47   S    
H89   N4    S    
C40   C49   S    
C42   C70   S    
C111  C119  A    
Cr8   O9    S    
C77   C131  S    
C3    C29   S    
C74   C107  A    
C145  O34   A    
C120  O7    A    
C2    C44   S    
Cr4   O42   S    
C29   C38   S    
C32   C41   S    
C78   C111  A    
C75   C113  A    
C89   C91   A    
C5    H20   S    
Cr11  O16   S    
C84   C93   A    
C138  O32   A    
C93   C95   A    
C62   C148  S    
C47   H35   S    
C42   H31   S    
C149  O51   A    
Cr3   O40   S    
C49   H37   S    
Cr5   O34   S    
C3    C11   S    
C52   H79   S    
Cr5   O23   S    
C65   C74   S    
C61   H48   S    
H76   N1    S    
Cr9   O13   S    
C46   C68   S    
Cr5   O3    S    
C35   C67   S    
Cr7   O51   S    
C103  C105  A    
C133  O18   A    
C20   C136  S    
C12   C35   S    
C19   C28   S    
C114  C123  A    
Cr9   O46   S    
C116  C125  A    
C84   C104  A    
Cr9   O20   S    
C16   C61   S    
C86   C102  A    
C72   C87   S    
C136  O21   A    
Cr8   O44   S    
C124  C126  A    
C60   N8    S    
C58   H100  S    
C60   H7    S    
C108  C117  A    
C75   C120  S    
Cr1   O44   S    
C19   C45   S    
Cr12  O36   S    
C128  H10   S    
C14   C22   S    
C112  C121  A    
C106  C108  A    
C28   C37   S    
C58   H101  S    
C30   C39   S    
C18   C134  S    
C4    H19   S    
C34   H23   S    
C107  C116  A    
C139  O25   A    
C9    H17   S    
C8    H1    S    
H4    N8    S    
C80   H58   S    
C9    C18   S    
C53   N2    S    
C118  C127  A    
C116  H70   S    
C54   H88   S    
C84   H63   S    
C25   C33   S    
C123  H73   S    
C83   H62   S    
Cr2   O46   S    
C61   C70   S    
Cr4   O33   S    
C58   N6    S    
C78   C102  A    
C97   C100  A    
C7    C70   S    
C1    O9    A    
C14   C46   S    
C2    C63   S    
C46   C49   S    
C79   C112  A    
C48   H36   S    
C98   O14   A    
C148  O42   A    
C71   C76   S    
C149  O43   A    
C67   C144  S    
C69   C141  S    
C34   C62   S    
C31   C40   S    
Cr1   O1    S    
C80   C89   A    
C53   H82   S    
C10   C152  S    
Cr11  O26   S    
Cr7   O7    S    
C137  O31   A    
C24   C66   S    
C129  C132  A    
Cr2   O30   S    
C122  H71   S    
C124  H94   S    
C83   C99   A    
C133  O27   A    
C5    C68   S    
C35   C48   S    
C90   H51   S    
Cr11  O17   S    
C34   C43   S    
C26   C150  S    
C86   H65   S    
Cr8   O19   S    
C23   C50   S    
Cr3   O41   S    
C117  H67   S    
C10   H28   S    
C65   O10   A    
C91   H52   S    
C52   H78   S    
C52   N1    S    
C139  O33   A    
C10   C19   S    
C95   H56   S    
C54   H86   S    
C11   H39   S    
C63   C151  S    
C5    C14   S    
Cr11  O48   S    
C7    C16   S    
Cr4   O35   S    
C75   C104  A    
C82   C97   A    
C3    C66   S    
C33   C42   S    
C77   C114  A    
C41   C50   S    
C115  H69   S    
C37   C64   S    
C89   H49   S    
C109  O15   A    
Cr2   O29   S    
C27   C151  S    
C115  C124  A    
C76   O3    A    
C121  C129  A    
Cr10  O14   S    
C128  C130  A    
C74   C99   A    
C27   C36   S    
C71   C100  A    
C22   C138  S    
C1    C73   S    
C23   C32   S    
C77   C105  A    
C53   H84   S    
C32   N7    S    
C46   H46   S    
C109  O6    A    
Cr2   O38   S    
C144  O23   A    
C13   C64   S    
C87   O13   A    
C24   H44   S    
Cr8   O10   S    
C1    O52   A    
C140  O35   A    
Cr3   O32   S    
C40   C68   S    
C56   N5    S    
C8    C142  S    
C55   N4    S    
C68   C145  S    
C39   C48   S    
Cr10  O47   S    
C127  H9    S    
C37   H25   S    
H85   N3    S    
C51   C61   S    
Cr9   O21   S    
C73   C97   A    
C83   C92   A    
C6    H21   S    
C41   H30   S    
C59   H104  S    
C17   C26   S    
C23   C139  S    
Cr5   O46   S    
C11   C24   S    
C55   H92   S    
C142  H41   S    
C134  O19   A    
C63   C149  S    
C6    C15   S    
C151  H15   S    
C26   C34   S    
Cr6   O5    S    
C38   C66   S    
C118  H68   S    
C59   N7    S    
C78   C98   S    
C13   H43   S    
C36   C63   S    
C132  H13   S    
C150  H14   S    
C15   C23   S    
C44   H33   S    
C28   N3    S    
C80   C100  A    
C15   C57   S    
C137  O22   A    
C134  O28   A    
C85   C105  A    
C131  O8    A    
C20   C29   S    
C93   H54   S    
C81   H59   S    
C72   C110  A    
C22   C31   S    
Cr12  O27   S    
C130  H12   S    
C45   H34   S    
C12   C21   S    
C43   H32   S    
Cr11  O25   S    
C15   H72   S    
C135  O20   A    
C25   C51   S    
Cr8   O18   S    
C85   C94   A    
Cr6   O49   S    
Cr1   O12   S    
C54   N3    S    
C66   C147  S    
C102  C104  A    
C143  O37   A    
C38   C47   S    
C2    H42   S    
C28   C152  S    
C88   C103  A    
Cr10  O24   S    
C135  O29   A    
C29   N4    S    
C39   C67   S    
C18   C27   S    
Cr3   O31   S    
C10   C13   S    
C4    C67   S    
C42   C51   S    
H93   N5    S    
C55   H90   S    
C24   C47   S    
C125  H2    S    
C35   H45   S    
C141  O1    A    
Cr1   O52   S    
Cr5   O4    S    
C2    C9    S    
C73   C106  A    
Cr7   O48   S    
C145  O39   A    
C146  O40   A    
C53   H81   S    
C56   H95   S    
C27   N2    S    
C120  O16   A    
C57   C69   S    
C37   C45   S    
C122  C130  A    
C4    C30   S    
Cr9   O11   S    
C5    C31   S    
