data_mof_unit_55432.cif
_audit_creation_date              2012-12-11T17:45:26-0500
_audit_creation_method            fapswitch 2.2
_symmetry_space_group_name_H-M    P1
_symmetry_Int_Tables_number       1
_space_group_crystal_system       triclinic
_cell_length_a                    14.994393
_cell_length_b                    14.921623
_cell_length_c                    15.120585
_cell_angle_alpha                 110.229637
_cell_angle_beta                  109.002306
_cell_angle_gamma                 109.206851
_cell_volume                      2603.23792147

loop_
_atom_site_label
_atom_site_type_symbol
_atom_type_description
_atom_site_fract_x
_atom_site_fract_y
_atom_site_fract_z
_atom_type_partial_charge
C1    C     C_R   0.973168 0.248679 0.061995 -0.126574
C2    C     C_R   0.705403 0.193823 0.794714 -0.146339
C3    C     C_R   0.777938 0.592399 0.022907 -0.123346
C4    C     C_R   0.314907 0.759866 0.224972 -0.131165
C5    C     C_R   0.941410 0.409553 0.686071 -0.140076
C6    C     C_R   0.675966 0.500350 0.948072 -0.049803
C7    C     C_R   0.958304 0.504177 0.679634 0.043261
C8    C     C_R   0.703880 0.128633 0.702249 0.068691
C9    C     C_R   0.065046 0.870491 0.074757 0.067868
C10   C     C_R   0.603329 0.176960 0.116870 -0.093195
C11   C     C_R   0.670919 0.280885 0.211144 -0.121895
C12   C     C_R   0.323767 0.789556 0.327316 0.053252
C13   C     C_R   0.768905 0.303625 0.290791 0.091947
C14   C     C_R   0.795822 0.219923 0.278205 -0.176779
C15   C     C_R   0.728209 0.116542 0.184045 -0.135012
C16   C     C_R   0.208632 0.408112 0.904013 -0.147837
C17   C     C_R   0.632840 0.095505 0.102774 -0.121837
C18   C     C_R   0.850575 0.422678 0.484932 -0.241800
C19   C     C_R   0.938434 0.512768 0.583784 0.071567
C20   C     C_R   0.015113 0.602285 0.587559 0.017260
C21   C     C_R   0.000130 0.599372 0.492137 -0.238188
C22   C     C_R   0.920812 0.503586 0.392280 0.055998
C23   C     C_R   0.301902 0.499230 0.935495 0.006279
C24   C     C_R   0.844157 0.413632 0.388422 0.022754
C25   C     C_R   0.143399 0.794715 0.746276 -0.202411
C26   C     C_R   0.242122 0.871410 0.842893 -0.113273
C27   C     C_R   0.321997 0.843345 0.876127 -0.110791
C28   C     C_R   0.993946 0.590491 0.297605 -0.138408
C29   C     C_R   0.304139 0.738871 0.812520 -0.117253
C30   C     C_R   0.204962 0.661071 0.716904 -0.124810
C31   C     C_R   0.123196 0.687978 0.684267 0.111645
C32   C     C_R   0.253208 0.045659 0.528975 -0.128960
C33   C     C_R   0.328436 0.015345 0.515046 -0.126013
C34   C     C_R   0.936938 0.498862 0.301232 0.064113
C35   C     C_R   0.338401 0.933442 0.535944 0.109035
C36   C     C_R   0.273308 0.883288 0.572361 -0.188518
C37   C     C_R   0.194226 0.909975 0.580553 -0.116588
C38   C     C_R   0.184873 0.991738 0.559903 -0.112518
C39   C     C_R   0.523559 0.976461 0.625768 -0.227232
C40   C     C_R   0.300743 0.591139 0.997214 -0.139627
C41   C     C_R   0.620036 0.012236 0.621917 0.049712
C42   C     C_R   0.620757 0.948077 0.528075 0.028833
C43   C     C_R   0.521495 0.865618 0.434779 -0.240223
C44   C     C_R   0.423782 0.853653 0.432326 0.067297
C45   C     C_R   0.687382 0.408049 0.930680 -0.060132
C46   C     C_R   0.425551 0.910378 0.530382 0.016091
C47   C     C_R   0.734916 0.005307 0.448290 -0.190460
C48   C     C_R   0.837991 0.054002 0.459433 -0.116614
C49   C     C_R   0.927250 0.067070 0.541698 -0.118160
C50   C     C_R   0.913005 0.028859 0.611056 -0.130441
C51   C     C_R   0.810508 0.981110 0.601175 -0.138513
C52   C     C_R   0.907733 0.407772 0.208469 -0.128721
C53   C     C_R   0.721525 0.972573 0.522024 0.120296
C54   C     C_3   0.475016 0.382472 0.861261 -0.387709
C55   C     C_3   0.370489 0.383743 0.849104 -0.424613
C56   C     C_R   0.022247 0.593205 0.782770 -0.105955
C57   C     C_3   0.588621 0.551116 0.055934 -0.193802
C58   C     C_3   0.551414 0.573672 0.892513 -0.414230
C59   C     C_3   0.575159 0.501064 0.938998 0.313837
C60   C     C_3   0.398485 0.499164 0.931543 0.399597
C61   C     C_3   0.478667 0.530627 0.046860 -0.483704
C62   C     C_3   0.452981 0.581840 0.899538 -0.410984
C63   C     C_R   0.174595 0.062823 0.809106 -0.131708
C64   C     C_R   0.219823 0.751450 0.312899 -0.122267
C65   C     C_R   0.132245 0.066369 0.879017 -0.191960
C66   C     C_R   0.200661 0.138510 0.991445 0.113209
C67   C     C_R   0.792426 0.195988 0.700863 -0.143319
C68   C     C_R   0.311894 0.205440 0.032982 -0.149565
C69   C     C_R   0.353830 0.199697 0.962496 -0.175368
C70   C     C_R   0.285578 0.128447 0.850773 -0.118243
C71   C     C_R   0.169979 0.042947 0.086443 -0.233731
C72   C     C_R   0.099699 0.988225 0.115113 0.060334
C73   C     C_R   0.050006 0.041394 0.161279 0.023729
C74   C     C_R   0.058338 0.135821 0.158989 -0.242176
C75   C     C_R   0.096347 0.165639 0.094464 0.063946
C76   C     C_R   0.068341 0.252935 0.974412 -0.143701
C77   C     C_R   0.160462 0.123317 0.064508 0.024984
C78   C     C_R   0.002591 0.802885 0.098749 -0.145215
C79   C     C_R   0.861958 0.934909 0.124636 -0.161947
C80   C     C_R   0.790705 0.879677 0.152568 -0.201933
C81   C     C_R   0.831669 0.881617 0.250804 -0.061968
C82   C     C_R   0.943634 0.942393 0.323135 -0.105639
C83   C     C_R   0.014976 0.001569 0.297642 -0.202865
C84   C     C_R   0.974733 0.994011 0.196159 0.123535
C85   C     C_R   0.051257 0.223226 0.047698 0.058309
C86   C     C_2   0.643694 0.515650 0.129352 1.007881
C87   C     C_R   0.094642 0.807152 0.010083 -0.149237
H1    H     H_    0.938095 0.236208 0.111403 0.095852
H2    H     H_    0.528280 0.159243 0.054544 0.117022
H3    H     H_    0.647354 0.343293 0.222583 0.156217
H4    H     H_    0.379734 0.776215 0.205720 0.091677
H5    H     H_    0.870530 0.235854 0.339991 0.116334
H6    H     H_    0.750247 0.053178 0.173685 0.131727
H7    H     H_    0.793160 0.353797 0.482930 0.132411
H8    H     H_    0.062878 0.666785 0.497802 0.124907
H9    H     H_    0.080738 0.816227 0.722713 0.118120
H10   H     H_    0.256191 0.951773 0.893773 0.141972
H11   H     H_    0.397170 0.902227 0.951825 0.097352
H12   H     H_    0.044026 0.677574 0.808518 0.120183
H13   H     H_    0.366596 0.717896 0.838304 0.098701
H14   H     H_    0.190791 0.579268 0.669600 0.106169
H15   H     H_    0.125955 0.014669 0.569622 0.092204
H16   H     H_    0.176619 0.323155 0.845530 0.097741
H17   H     H_    0.248687 0.111624 0.516783 0.100413
H18   H     H_    0.380975 0.057544 0.490769 0.111509
H19   H     H_    0.281867 0.821872 0.591305 0.128246
H20   H     H_    0.140921 0.868297 0.604028 0.116739
H21   H     H_    0.521032 0.018387 0.698354 0.125800
H22   H     H_    0.521335 0.818268 0.361864 0.125384
H23   H     H_    0.823078 0.174973 0.646652 0.132149
H24   H     H_    0.667554 0.000617 0.387564 0.119237
H25   H     H_    0.849100 0.083898 0.405867 0.125338
H26   H     H_    0.007544 0.107332 0.552061 0.098783
H27   H     H_    0.981950 0.040386 0.675385 0.110862
H28   H     H_    0.014878 0.674368 0.347823 0.112707
H29   H     H_    0.801888 0.957453 0.659338 0.110824
H30   H     H_    0.483375 0.327613 0.893538 0.179117
H31   H     H_    0.468400 0.346673 0.779903 0.152180
H32   H     H_    0.317995 0.361793 0.764824 0.157092
H33   H     H_    0.325926 0.319943 0.863476 0.173643
H34   H     H_    0.981030 0.824177 0.160463 0.136515
H35   H     H_    0.444121 0.463157 0.062691 0.181055
H36   H     H_    0.623285 0.657483 0.938119 0.149662
H37   H     H_    0.532788 0.536846 0.806543 0.171021
H38   H     H_    0.393085 0.563182 0.819782 0.152732
H39   H     H_    0.357262 0.676114 0.028187 0.087472
H40   H     H_    0.481734 0.667430 0.960997 0.145521
H41   H     H_    0.641479 0.642090 0.098148 0.111103
H42   H     H_    0.490829 0.606609 0.110608 0.150462
H43   H     H_    0.319049 0.123653 0.796892 0.131854
H44   H     H_    0.121974 0.005565 0.723248 0.104911
H45   H     H_    0.154318 0.836047 0.986913 0.102747
H46   H     H_    0.047009 0.010587 0.846191 0.118711
H47   H     H_    0.366551 0.257822 0.119755 0.122392
H48   H     H_    0.439592 0.248277 0.994461 0.177012
H49   H     H_    0.218321 0.010923 0.062070 0.123321
H50   H     H_    0.019978 0.174746 0.194758 0.125641
H51   H     H_    0.853447 0.322600 0.176606 0.124480
H52   H     H_    0.829699 0.929518 0.046488 0.118212
H53   H     H_    0.703918 0.834145 0.097486 0.112257
H54   H     H_    0.776694 0.836588 0.271245 0.137419
H55   H     H_    0.974964 0.942200 0.398166 0.123923
H56   H     H_    0.659309 0.167077 0.831363 0.093207
H57   H     H_    0.101485 0.047000 0.353004 0.118867
H58   H     H_    0.194027 0.751003 0.371018 0.117691
H59   H     H_    0.125231 0.250406 0.946825 0.127167
H60   H     H_    0.625266 0.322336 0.879559 0.092211
H61   H     H_    0.764640 0.562382 0.273378 0.319104
H62   H     H_    0.797573 0.677400 0.059217 0.117477
H63   H     H_    0.896002 0.325145 0.620262 0.103187
H64   H     H_    0.582018 0.016017 0.029082 0.099820
N1    N     N_R   0.947080 0.293830 0.002870 -0.042140
N2    N     N_R   0.153670 0.443180 0.946090 -0.036663
N3    N     N_R   0.002360 0.556820 0.208890 -0.042990
N4    N     N_R   0.210070 0.556820 0.002870 -0.033806
N5    N     N_R   0.945960 0.443180 0.152110 -0.043848
N6    N     N_R   0.151710 0.706170 0.208890 -0.044089
N7    N     N_R   0.004320 0.293830 0.946090 -0.041769
N8    N     N_R   0.789930 0.443180 0.997130 -0.037172
N9    N     N_R   0.054040 0.556820 0.847890 -0.041701
N10   N     N_R   0.848290 0.293830 0.791110 -0.042347
N11   N     N_R   0.995680 0.706170 0.053910 -0.044107
N12   N     N_R   0.052920 0.706170 0.997130 -0.043005
N13   N     N_R   0.791050 0.293830 0.847890 -0.043534
N14   N     N_R   0.846330 0.556820 0.053910 -0.033346
N15   N     N_R   0.997640 0.443180 0.791110 -0.040670
N16   N     N_R   0.208950 0.706170 0.152110 -0.040584
Ni1   Ni    Ni4+2 0.869690 0.369690 0.000000 0.222456
Ni2   Ni    Ni4+2 0.130310 0.630310 0.000000 0.215196
Ni3   Ni    Ni4+2 0.000970 0.369690 0.869780 0.212489
Ni4   Ni    Ni4+2 0.999030 0.630310 0.130220 0.227670
O1    O     O_2   0.609810 0.418236 0.099455 -0.712899
O2    O     O_R   0.734926 0.595633 0.231417 -0.818812

loop_
_geom_bond_atom_site_label_1
_geom_bond_atom_site_label_2
_ccdc_geom_bond_type
C25   C31   A    
C66   C68   A    
C63   C65   A    
C27   H11   S    
C58   C62   S    
C6    C45   A    
C64   H58   S    
C27   C29   A    
C41   C42   A    
C49   H26   S    
C35   C36   A    
C45   N8    A    
C9    C72   S    
C82   H55   S    
C3    C6    A    
N9    N15   A    
N6    N16   A    
C57   H41   S    
C81   C82   A    
N16   Ni2   S    
C55   H32   S    
C57   C86   S    
C76   N7    A    
C58   H36   S    
C29   C30   A    
C18   C24   A    
C36   C37   A    
C37   H20   S    
C42   C53   S    
C79   C84   A    
C12   C64   A    
C57   C59   S    
N5    Ni1   S    
C10   C17   A    
C23   C40   A    
C70   H43   S    
N8    Ni1   S    
C1    N1    A    
C60   C62   S    
C18   C19   A    
C73   C74   A    
C55   H33   S    
C78   H34   S    
N4    Ni2   S    
C16   H16   S    
C13   C14   A    
C75   C85   S    
N11   Ni4   S    
C83   C84   A    
C10   H2    S    
C68   C69   A    
N2    Ni3   S    
C52   H51   S    
N9    Ni2   S    
C32   H17   S    
C40   N4    A    
C32   C38   A    
C4    C12   A    
C87   N12   A    
C73   C84   S    
N3    N5    A    
C61   H42   S    
C47   C53   A    
C4    H4    S    
C1    H1    S    
C81   H54   S    
C76   H59   S    
C69   H48   S    
C21   C22   A    
C28   N3    A    
C2    H56   S    
C63   H44   S    
C17   H64   S    
C7    C56   A    
N1    Ni1   S    
C44   C46   A    
C54   C59   S    
C1    C85   A    
C39   H21   S    
C22   C34   S    
C74   H50   S    
N1    N7    A    
C3    H62   S    
C74   C75   A    
C36   H19   S    
N13   Ni1   S    
C33   H18   S    
C8    C41   S    
C72   C73   A    
C39   C41   A    
C79   H52   S    
C2    N13   A    
C71   H49   S    
C5    C7    A    
N7    Ni3   S    
C21   H8    S    
C25   C26   A    
C80   H53   S    
C82   C83   A    
C5    H63   S    
N8    N14   A    
C13   C24   S    
C60   C61   S    
C50   H27   S    
C87   H45   S    
C64   N6    A    
C43   C44   A    
C37   C38   A    
C28   H28   S    
C67   N10   A    
C67   H23   S    
C47   C48   A    
C63   C70   A    
C30   C31   A    
C40   H39   S    
C50   C51   A    
C26   C27   A    
C5    N15   A    
C57   C61   S    
C75   C77   A    
C14   H5    S    
N14   Ni4   S    
C25   H9    S    
C39   C46   A    
N10   Ni3   S    
C48   C49   A    
C48   H25   S    
N15   Ni3   S    
C16   C23   A    
C7    C19   S    
C54   H31   S    
C18   H7    S    
C86   O1    D    
C61   H35   S    
N2    N4    A    
C42   C43   A    
C71   C77   A    
N10   N13   A    
C3    N14   A    
N11   N12   A    
C15   C17   A    
C66   C77   S    
C54   C55   S    
C29   H13   S    
C45   H60   S    
C34   C52   A    
C6    C59   S    
C2    C8    A    
C51   H29   S    
C80   C81   A    
C15   H6    S    
C62   H38   S    
C78   N11   A    
C52   N5    A    
C58   H37   S    
H61   O2    S    
C4    N16   A    
C86   O2    S    
C32   C33   A    
C19   C20   A    
C68   H47   S    
C58   C59   S    
C71   C72   A    
C56   N9    A    
N6    Ni4   S    
C11   C13   A    
C11   H3    S    
C83   H57   S    
C47   H24   S    
C30   H14   S    
C33   C35   A    
N3    Ni4   S    
C22   C24   A    
C9    C78   A    
C65   C66   A    
C69   C70   A    
N12   Ni2   S    
C65   H46   S    
C10   C11   A    
C26   H10   S    
C28   C34   A    
C79   C80   A    
C62   H40   S    
C20   C21   A    
C8    C67   A    
C38   H15   S    
C49   C50   A    
C54   H30   S    
C16   N2    A    
C14   C15   A    
C12   C44   S    
C43   H22   S    
C56   H12   S    
C51   C53   A    
C55   C60   S    
C35   C46   S    
C76   C85   A    
C23   C60   S    
C9    C87   A    
C20   C31   S    
