data_mof_unit_50162.cif
_audit_creation_date              2012-12-10T19:54:53-0500
_audit_creation_method            fapswitch 2.2
_symmetry_space_group_name_H-M    P1
_symmetry_Int_Tables_number       1
_space_group_crystal_system       triclinic
_cell_length_a                    30.267759
_cell_length_b                    30.279367
_cell_length_c                    30.244388
_cell_angle_alpha                 116.984441
_cell_angle_beta                  116.853081
_cell_angle_gamma                 117.117892
_cell_volume                      12254.3330728

loop_
_atom_site_label
_atom_site_type_symbol
_atom_type_description
_atom_site_fract_x
_atom_site_fract_y
_atom_site_fract_z
_atom_type_partial_charge
C1    C     C_R   0.110556 0.429858 0.683310 0.925635
C2    C     C_R   0.785699 0.980729 0.819049 -0.043843
C3    C     C_R   0.827037 0.018322 0.896876 0.081810
C4    C     C_R   0.943204 0.894032 0.087915 0.081932
C5    C     C_R   0.012939 0.894180 0.824446 0.083011
C6    C     C_R   0.815575 0.028581 0.975009 0.053753
C7    C     C_R   0.023552 0.972278 0.812873 0.052761
C8    C     C_R   0.020624 0.902567 0.076028 0.055449
C9    C     C_R   0.921248 0.093962 0.977397 0.059422
C10   C     C_R   0.024491 0.971654 0.182219 0.054184
C11   C     C_R   0.086981 0.974387 0.918415 0.055174
C12   C     C_R   0.053604 0.200683 0.134386 -0.190923
C13   C     C_R   0.861941 0.845466 0.045961 -0.044744
C14   C     C_R   0.191231 0.130556 0.049903 -0.188799
C15   C     C_R   0.188819 0.101722 0.316191 -0.186419
C16   C     C_R   0.680898 0.899494 0.810895 -0.187376
C17   C     C_R   0.862757 0.793827 0.943135 -0.189941
C18   C     C_R   0.896196 0.808209 0.678111 -0.183923
C19   C     C_R   0.095816 0.246989 0.214522 0.000675
C20   C     C_R   0.237453 0.210744 0.092130 -0.008153
C21   C     C_R   0.266975 0.141820 0.357882 -0.007766
C22   C     C_R   0.639226 0.859347 0.732734 -0.007525
C23   C     C_R   0.782779 0.747733 0.901243 0.001956
C24   C     C_R   0.976284 0.816783 0.783553 -0.041028
C25   C     C_R   0.856851 0.730369 0.636774 -0.007894
C26   C     C_R   0.045946 0.228000 0.217766 -0.118099
C27   C     C_R   0.220433 0.214637 0.042977 -0.118834
C28   C     C_R   0.261462 0.095643 0.305868 -0.112902
C29   C     C_R   0.691707 0.904252 0.737879 -0.114642
C30   C     C_R   0.780627 0.769108 0.952068 -0.118322
C31   C     C_R   0.901348 0.735882 0.689765 -0.113078
C32   C     C_2   0.190115 0.309718 0.291033 0.495862
C33   C     C_2   0.297886 0.286554 0.185472 0.507601
C34   C     C_2   0.352980 0.234017 0.454565 0.517231
C35   C     C_R   0.900683 0.128557 0.138064 -0.014573
C36   C     C_2   0.541884 0.768307 0.647026 0.513910
C37   C     C_2   0.705127 0.682468 0.805995 0.493617
C38   C     C_2   0.766946 0.644481 0.539068 0.516083
C39   C     C_2   0.085476 0.431322 0.510498 0.442699
C40   C     C_2   0.429753 0.508478 0.084691 0.443382
C41   C     C_2   0.509420 0.091116 0.433538 0.443062
C42   C     C_2   0.568082 0.910531 0.491429 0.442263
C43   C     C_2   0.491036 0.571164 0.917036 0.443358
C44   C     C_2   0.911319 0.492668 0.569226 0.444470
C45   C     C_R   0.123815 0.135755 0.898456 -0.017814
C46   C     C_R   0.174970 0.975347 0.158914 -0.019515
C47   C     C_R   0.838815 0.021489 0.823281 -0.012766
C48   C     C_R   0.861947 0.872409 0.098154 -0.014554
C49   C     C_R   0.016543 0.821261 0.836985 -0.018055
C50   C     C_R   0.808054 0.053625 0.058474 -0.128523
C51   C     C_R   0.430034 0.683436 0.110666 0.925571
C52   C     C_R   0.049857 0.056330 0.805940 -0.111086
C53   C     C_R   0.095339 0.900163 0.066265 -0.141781
C54   C     C_R   0.931319 0.094902 0.902218 -0.137165
C55   C     C_R   0.942172 0.949017 0.190852 -0.129294
C56   C     C_R   0.088412 0.899903 0.929230 -0.138806
C57   C     C_R   0.766166 0.004584 0.978462 -0.210904
C58   C     C_R   0.000668 0.976112 0.763820 -0.203777
C59   C     C_R   0.019573 0.864361 0.025443 -0.204604
C60   C     C_R   0.971920 0.130592 0.977892 -0.213857
C61   C     C_R   0.021938 0.997717 0.232235 -0.211330
C62   C     C_R   0.683445 0.110658 0.429981 0.926053
C63   C     C_R   0.123016 0.975046 0.969326 -0.205182
C64   C     C_R   0.085597 0.281415 0.298289 0.504203
C65   C     C_R   0.274808 0.295578 0.083225 0.502566
C66   C     C_R   0.333137 0.122079 0.343375 0.504659
C67   C     C_R   0.654801 0.878115 0.666449 0.502755
C68   C     C_R   0.700571 0.716439 0.913287 0.504632
C69   C     C_R   0.876327 0.665139 0.653623 0.504424
C70   C     C_R   0.943065 0.180120 0.219096 0.519761
C71   C     C_R   0.176086 0.217161 0.941269 0.522603
C72   C     C_R   0.249390 0.007337 0.199728 0.519495
C73   C     C_R   0.570109 0.889399 0.316631 0.926153
C74   C     C_R   0.798461 0.989889 0.749124 0.519038
C75   C     C_R   0.781215 0.821243 0.056393 0.519601
C76   C     C_R   0.986097 0.747738 0.797296 0.519626
C77   C     C_R   0.067481 0.349626 0.408672 -0.038972
C78   C     C_R   0.346432 0.406590 0.066120 -0.039678
C79   C     C_R   0.421382 0.090212 0.365760 -0.046212
C80   C     C_R   0.634482 0.910308 0.578794 -0.046898
C81   C     C_R   0.592289 0.651930 0.933993 -0.038917
C82   C     C_R   0.910010 0.579143 0.635034 -0.045229
C83   C     C_R   0.100444 0.392068 0.484281 -0.074184
C84   C     C_R   0.316652 0.570071 0.889409 0.925319
C85   C     C_R   0.390360 0.482894 0.099855 -0.074881
C86   C     C_R   0.489420 0.111862 0.399275 -0.075768
C87   C     C_R   0.601335 0.888895 0.510938 -0.076215
C88   C     C_R   0.516627 0.609388 0.900992 -0.075115
C89   C     C_R   0.889019 0.511506 0.601996 -0.077193
C90   C     C_R   0.142516 0.391281 0.530109 -0.125322
C91   C     C_R   0.390932 0.530072 0.142919 -0.126150
C92   C     C_R   0.534230 0.149270 0.395350 -0.125198
C93   C     C_R   0.604570 0.850758 0.465747 -0.124208
C94   C     C_R   0.470015 0.608972 0.857677 -0.124282
C95   C     C_R   0.889310 0.316520 0.569945 0.925623
C96   C     C_R   0.850512 0.465774 0.604737 -0.124748
C97   C     C_R   0.152078 0.350263 0.500799 -0.178527
C98   C     C_R   0.350013 0.501516 0.152931 -0.179295
C99   C     C_R   0.510945 0.164727 0.359302 -0.178904
C100  C     C_R   0.639617 0.834388 0.488482 -0.178904
C101  C     C_R   0.498608 0.648947 0.846982 -0.177884
C102  C     C_R   0.833404 0.487812 0.639239 -0.179322
C103  C     C_R   0.393635 0.571409 0.825260 0.846510
C104  C     C_R   0.570947 0.824591 0.393265 0.843688
C105  C     C_R   0.824581 0.393325 0.571022 0.842166
C106  C     C_R   0.952206 0.153390 0.137134 -0.044379
C107  C     C_R   0.428634 0.606396 0.174919 0.845109
C108  C     C_R   0.174823 0.428684 0.606413 0.847032
C109  C     C_R   0.606744 0.175452 0.429067 0.842829
C110  C     C_R   0.118705 0.308304 0.425915 -0.104765
C111  C     C_R   0.306506 0.425916 0.118713 -0.101609
C112  C     C_R   0.443918 0.143169 0.326769 -0.096418
C113  C     C_R   0.671676 0.855591 0.555247 -0.096450
C114  C     C_R   0.573474 0.690901 0.880278 -0.105158
C115  C     C_R   0.854105 0.554302 0.671110 -0.095641
C116  C     C_R   0.075286 0.306682 0.378901 0.262964
C117  C     C_R   0.147092 0.134301 0.949475 -0.045611
C118  C     C_R   0.303294 0.377399 0.074083 0.260657
C119  C     C_R   0.398472 0.105259 0.329152 0.257503
C120  C     C_R   0.669947 0.894192 0.601076 0.257264
C121  C     C_R   0.621213 0.693645 0.924843 0.263878
C122  C     C_R   0.893023 0.600655 0.669832 0.255544
C123  C     C_1   0.356611 0.609282 0.966997 -0.178780
C124  C     C_1   0.609376 0.966989 0.356528 -0.180050
C125  C     C_1   0.966733 0.356193 0.608921 -0.178878
C126  C     C_1   0.391005 0.643657 0.033193 -0.178401
C127  C     C_1   0.032914 0.390535 0.643298 -0.179559
C128  C     C_R   0.179697 0.017585 0.211831 -0.040106
C129  C     C_1   0.643709 0.033172 0.390878 -0.179843
C130  C     C_R   0.962014 0.133194 0.055702 0.003905
C131  C     C_R   0.125536 0.052401 0.958854 0.005014
C132  C     C_R   0.105005 0.018169 0.223388 0.003350
C133  C     C_R   0.774026 0.981745 0.894296 0.002973
C134  C     C_R   0.942297 0.863318 0.035222 0.003422
C135  C     C_R   0.977136 0.891579 0.771322 0.004325
C136  C     C_R   0.909792 0.104489 0.055643 0.081015
C137  C     C_R   0.098088 0.052655 0.906890 0.082852
C138  C     C_R   0.101800 0.979914 0.170337 0.083127
H1    H     H_    0.093132 0.215673 0.133930 0.171858
H2    H     H_    0.973311 0.126961 0.906734 0.191372
H3    H     H_    0.943594 0.970769 0.232138 0.197933
H4    H     H_    0.120225 0.904700 0.971484 0.199593
H5    H     H_    0.695018 0.950629 0.920864 0.160341
H6    H     H_    0.947648 0.918752 0.692882 0.159714
H7    H     H_    0.959882 0.803642 0.953727 0.158991
H8    H     H_    0.043697 0.190041 0.037138 0.149362
H9    H     H_    0.080141 0.053159 0.303631 0.160118
H10   H     H_    0.181364 0.034194 0.041047 0.157467
H11   H     H_    0.032987 0.347025 0.370730 0.188133
H12   H     H_    0.204808 0.129540 0.088831 0.176173
H13   H     H_    0.342855 0.367697 0.030924 0.188616
H14   H     H_    0.384290 0.059556 0.365791 0.189400
H15   H     H_    0.634958 0.941502 0.616161 0.189957
H16   H     H_    0.630806 0.655410 0.969365 0.187579
H17   H     H_    0.941384 0.616820 0.635774 0.190685
H18   H     H_    0.184725 0.349708 0.535570 0.168535
H19   H     H_    0.350479 0.537301 0.186348 0.168860
H20   H     H_    0.545439 0.194437 0.356921 0.170447
H21   H     H_    0.641469 0.804143 0.453682 0.169235
H22   H     H_    0.463228 0.648599 0.813425 0.167735
H23   H     H_    0.195475 0.139158 0.357447 0.177374
H24   H     H_    0.802849 0.452582 0.640691 0.170072
H25   H     H_    0.124534 0.274897 0.402916 0.144976
H26   H     H_    0.273100 0.403537 0.124817 0.147823
H27   H     H_    0.426465 0.155025 0.298697 0.154767
H28   H     H_    0.698836 0.842877 0.572170 0.152794
H29   H     H_    0.595842 0.723349 0.873401 0.144205
H30   H     H_    0.840604 0.570496 0.697639 0.156492
H31   H     H_    0.215711 0.320601 0.339741 0.110012
H32   H     H_    0.308474 0.335027 0.210179 0.117834
H33   H     H_    0.412999 0.280160 0.483044 0.121471
H34   H     H_    0.639241 0.863011 0.804501 0.177549
H35   H     H_    0.512343 0.721252 0.586475 0.120111
H36   H     H_    0.656129 0.671195 0.779504 0.108730
H37   H     H_    0.719682 0.583452 0.508902 0.120132
H38   H     H_    0.099750 0.454029 0.561015 0.077853
H39   H     H_    0.454228 0.560051 0.100229 0.079176
H40   H     H_    0.554043 0.097566 0.449971 0.074261
H41   H     H_    0.551706 0.903938 0.446701 0.073498
H42   H     H_    0.440042 0.547912 0.902116 0.077698
H43   H     H_    0.904679 0.447872 0.552621 0.073688
H44   H     H_    0.862319 0.776954 0.902800 0.175809
H45   H     H_    0.860061 0.801502 0.636011 0.178741
H46   H     H_    0.767282 0.033520 0.057780 0.198202
H47   H     H_    0.030795 0.055977 0.765498 0.199579
H48   H     H_    0.090341 0.866757 0.024411 0.204906
N1    N     N_R   0.033772 0.255739 0.296960 -0.344483
N2    N     N_R   0.250999 0.294900 0.031975 -0.344622
N3    N     N_R   0.325425 0.077839 0.289982 -0.344956
N4    N     N_R   0.708479 0.921068 0.673757 -0.345117
N5    N     N_R   0.702835 0.744166 0.965766 -0.344921
N6    N     N_R   0.918824 0.672711 0.707651 -0.344152
O1    O     O_R   0.113790 0.385810 0.669360 -0.604127
O2    O     O_R   0.492620 0.825030 0.269500 -0.612549
O3    O     O_R   0.269500 0.492620 0.825030 -0.612274
O4    O     O_R   0.825030 0.269500 0.492620 -0.611250
O5    O     O_R   0.327770 0.492820 0.776380 -0.627921
O6    O     O_R   0.492820 0.776380 0.327770 -0.626231
O7    O     O_R   0.776380 0.327770 0.492820 -0.625810
O8    O     O_R   0.507180 0.672230 0.223620 -0.628864
O9    O     O_R   0.223620 0.507180 0.672230 -0.628836
O10   O     O_R   0.672230 0.223620 0.507180 -0.627043
O11   O     O_R   0.388950 0.614380 0.837520 -0.605706
O12   O     O_R   0.385810 0.669360 0.113790 -0.604870
O13   O     O_R   0.614380 0.837520 0.388950 -0.604769
O14   O     O_R   0.837520 0.388950 0.614380 -0.604079
O15   O     O_R   0.385620 0.611050 0.162480 -0.605272
O16   O     O_R   0.162480 0.385620 0.611050 -0.605700
O17   O     O_R   0.611050 0.162480 0.385620 -0.604341
O18   O     O_2   0.174794 0.360063 0.377473 -0.555648
O19   O     O_2   0.352697 0.374531 0.172518 -0.557070
O20   O     O_2   0.408786 0.189031 0.431712 -0.559370
O21   O     O_2   0.566840 0.812768 0.591467 -0.559438
O22   O     O_2   0.620964 0.636579 0.824392 -0.553773
O23   O     O_R   0.669360 0.113790 0.385810 -0.604362
O24   O     O_2   0.812510 0.590592 0.566095 -0.560845
O25   O     O_2   0.894082 0.155118 0.220305 -0.549077
O26   O     O_2   0.152525 0.218836 0.892698 -0.544916
O27   O     O_2   0.245142 0.966686 0.149462 -0.544680
O28   O     O_2   0.849005 0.029363 0.753043 -0.551694
O29   O     O_2   0.780799 0.848047 0.105886 -0.548868
O30   O     O_2   0.025210 0.752009 0.848235 -0.548590
O31   O     O_2   0.239848 0.348223 0.299147 -0.557069
O32   O     O_2   0.334766 0.294351 0.235336 -0.550553
O33   O     O_2   0.357251 0.260382 0.503292 -0.538966
O34   O     O_R   0.614190 0.886210 0.330640 -0.604192
O35   O     O_2   0.493726 0.743884 0.643570 -0.539508
O36   O     O_2   0.696316 0.642170 0.756378 -0.555834
O37   O     O_2   0.743655 0.641366 0.491249 -0.540326
O38   O     O_2   0.055914 0.438099 0.475070 -0.527169
O39   O     O_2   0.434721 0.471380 0.053604 -0.525769
O40   O     O_2   0.475440 0.065585 0.443186 -0.526598
O41   O     O_2   0.559203 0.936939 0.525910 -0.526859
O42   O     O_2   0.527482 0.565834 0.948175 -0.526316
O43   O     O_2   0.938305 0.527764 0.560984 -0.525320
O44   O     O_R   0.330640 0.614190 0.886210 -0.604745
O45   O     O_R   0.886210 0.330640 0.614190 -0.604998
O46   O     O_R   0.174970 0.507380 0.730500 -0.613413
O47   O     O_R   0.507380 0.730500 0.174970 -0.611957
O48   O     O_R   0.730500 0.174970 0.507380 -0.612627
Zn1   Zn    Zn3+2 0.210520 0.418930 0.712610 1.003103
Zn2   Zn    Zn3+2 0.418930 0.712610 0.210520 1.001908
Zn3   Zn    Zn3+2 0.712610 0.210520 0.418930 1.005675
Zn4   Zn    Zn3+2 0.581070 0.789480 0.287390 1.003302
Zn5   Zn    Zn3+2 0.287390 0.581070 0.789480 1.000560
Zn6   Zn    Zn3+2 0.789480 0.287390 0.581070 1.002975

loop_
_geom_bond_atom_site_label_1
_geom_bond_atom_site_label_2
_ccdc_geom_bond_type
C25   C31   A    
C48   C55   A    
C96   C105  S    
C80   C120  A    
C95   O4    A    
C55   H3    S    
C22   C29   A    
C96   C102  A    
C45   C71   A    
C62   O23   A    
C63   H10   S    
C28   C66   A    
C6    C57   A    
C71   N2    A    
C108  O16   A    
O17   Zn3   S    
C85   C91   A    
C67   N4    A    
O7    Zn3   S    
C105  O14   A    
C54   C60   A    
C9    C130  A    
O6    Zn2   S    
C84   C123  S    
C41   C86   S    
C18   C25   A    
O5    Zn1   S    
C17   C23   A    
C71   O26   S    
C12   C130  A    
C2    C29   A    
C27   C65   A    
C43   C88   S    
C46   C128  A    
C109  O10   A    
O14   Zn6   S    
C5    C11   A    
C80   C87   A    
C11   C63   A    
C8    C59   A    
C95   O45   A    
C107  O8    A    
C42   O41   D    
C92   C109  S    
C16   C133  A    
C84   O3    A    
C132  C138  A    
C66   N3    A    
C55   C61   A    
C62   O48   A    
C93   C104  S    
C8    C138  A    
C103  O5    A    
C97   H18   S    
C84   O44   A    
C4    C13   A    
C72   O27   S    
C19   C26   A    
C26   C64   A    
C6    C136  A    
C102  C115  A    
C37   H36   S    
C74   N4    A    
C114  C121  A    
C17   H44   S    
C37   O36   D    
C54   H2    S    
C15   C132  A    
C35   C70   A    
C79   C119  A    
C124  C129  T    
C41   O40   D    
C114  H29   S    
O47   Zn4   S    
C12   H1    S    
C77   C116  A    
C68   O22   S    
O8    Zn4   S    
C7    C58   A    
C46   C72   A    
C56   H4    S    
C112  H27   S    
C106  C136  A    
O3    Zn1   S    
C65   N2    A    
C36   H35   S    
C115  C122  A    
C29   C67   A    
C73   O2    A    
O48   Zn6   S    
C101  C114  A    
C51   C126  S    
C62   C129  S    
C64   O18   S    
C69   O24   S    
C60   H8    S    
C109  O17   A    
C19   C32   S    
C69   N6    A    
C12   C19   A    
C78   H13   S    
C38   O37   D    
C103  O11   A    
C14   C131  A    
C27   C117  A    
C53   C59   A    
O10   Zn6   S    
C116  N1    S    
C88   C94   A    
C43   H42   S    
C49   C76   A    
C70   O25   S    
O9    Zn5   S    
C57   H5    S    
O4    Zn3   S    
C8    C134  A    
C128  C138  A    
C81   C88   A    
C23   C30   A    
C14   C20   A    
C13   C30   A    
C80   H15   S    
C34   O33   D    
C33   H32   S    
O16   Zn1   S    
C101  H22   S    
C39   O38   D    
O15   Zn2   S    
C77   H11   S    
C113  H28   S    
C7    C137  A    
C118  N2    S    
C123  C126  T    
C21   C34   S    
C45   C52   A    
C76   O30   S    
C23   C37   S    
C117  C137  A    
C130  C136  A    
C81   H16   S    
C81   C121  A    
C3    C133  A    
C40   C85   S    
C75   N5    A    
C53   H48   S    
C7    C135  A    
C108  O9    A    
C3    C9    A    
C125  C127  T    
C120  N4    S    
C25   C38   S    
C13   C48   A    
C113  C120  A    
C95   C125  S    
C31   C69   A    
O34   Zn4   S    
O11   Zn5   S    
C98   H19   S    
C15   C21   A    
C42   H41   S    
C102  H24   S    
C73   C124  S    
C14   H12   S    
C35   C50   A    
C56   C63   A    
C18   C135  A    
C104  O13   A    
C40   O39   D    
C48   C75   A    
C82   C89   A    
C93   C100  A    
C119  N3    S    
C52   C58   A    
C70   N1    A    
C47   C54   A    
C82   H17   S    
C59   H7    S    
C78   C85   A    
C94   C101  A    
C100  C113  A    
C21   C28   A    
C94   C103  S    
C36   O35   D    
C111  C118  A    
C2    C47   A    
C44   O43   D    
C10   C61   A    
C52   H47   S    
C20   C33   S    
C66   O20   S    
O13   Zn4   S    
C110  C116  A    
C72   N3    A    
C32   O31   D    
O1    Zn1   S    
C51   O12   A    
C4    C134  A    
C45   C117  A    
C24   C49   A    
C5    C135  A    
C83   C90   A    
C16   C22   A    
C98   C111  A    
C90   C97   A    
C78   C118  A    
C50   C57   A    
C107  O15   A    
O44   Zn5   S    
C15   H23   S    
C50   H46   S    
C111  H26   S    
C1    C127  S    
C26   C106  A    
C39   H38   S    
C43   O42   D    
C11   C131  A    
C121  N5    S    
C112  C119  A    
O12   Zn2   S    
C110  H25   S    
C122  N6    S    
O2    Zn2   S    
C20   C27   A    
C41   H40   S    
C6    C133  A    
C49   C56   A    
C22   C36   S    
O23   Zn3   S    
C68   N5    A    
C9    C60   A    
C89   C96   A    
O46   Zn5   S    
C2    C3    A    
C61   H9    S    
C24   C31   A    
C90   C108  S    
C1    O46   A    
C86   C92   A    
C97   C110  A    
C100  H21   S    
C38   H37   S    
C73   O34   A    
C5    C24   A    
C18   H45   S    
C99   C112  A    
C87   C93   A    
C46   C53   A    
O45   Zn6   S    
C131  C137  A    
C76   N6    A    
C91   C98   A    
C47   C74   A    
C10   C132  A    
C65   O19   S    
C64   N1    A    
C67   O21   S    
C34   H33   S    
C104  O6    A    
C39   C83   S    
C40   H39   S    
C33   O32   D    
C58   H6    S    
C105  O7    A    
C75   O29   S    
C32   H31   S    
C99   H20   S    
C74   O28   S    
C17   C134  A    
C35   C106  A    
C77   C83   A    
C1    O1    A    
C79   H14   S    
C51   O47   A    
C42   C87   S    
C115  H30   S    
C4    C10   A    
C44   H43   S    
C82   C122  A    
C79   C86   A    
C30   C68   A    
C44   C89   S    
C28   C128  A    
C92   C99   A    
C16   H34   S    
C91   C107  S    
