data_mof_unit_22990.cif
_audit_creation_date              2012-12-11T16:23:58-0500
_audit_creation_method            fapswitch 2.2
_symmetry_space_group_name_H-M    P1
_symmetry_Int_Tables_number       1
_space_group_crystal_system       triclinic
_cell_length_a                    14.751858
_cell_length_b                    14.763843
_cell_length_c                    33.271118
_cell_angle_alpha                 96.021657
_cell_angle_beta                  96.280773
_cell_angle_gamma                 61.220422
_cell_volume                      6301.70593672

loop_
_atom_site_label
_atom_site_type_symbol
_atom_type_description
_atom_site_fract_x
_atom_site_fract_y
_atom_site_fract_z
_atom_type_partial_charge
C1    C     C_R   0.391153 0.698904 0.445820 0.548435
C2    C     C_R   0.330155 0.350193 0.308487 0.082096
C3    C     C_R   0.411583 0.267181 0.328201 -0.161518
C4    C     C_R   0.431398 0.275473 0.369938 -0.139385
C5    C     C_R   0.395288 0.253762 0.165606 -0.103201
C6    C     C_R   0.385808 0.235045 0.123815 -0.114441
C7    C     C_R   0.210345 0.378033 0.121614 -0.125331
C8    C     C_R   0.220033 0.396442 0.163434 -0.097861
C9    C     C_R   0.311297 0.332255 0.185519 0.035000
C10   C     C_1   0.316056 0.341015 0.228800 0.008274
C11   C     C_1   0.321059 0.345643 0.265133 0.057855
C12   C     C_R   0.405790 0.386491 0.433979 0.544830
C13   C     C_R   0.291805 0.294557 0.101643 0.017041
C14   C     C_R   0.758159 0.371834 0.410744 0.023934
C15   C     C_R   0.793840 0.431753 0.394354 -0.127323
C16   C     C_R   0.826386 0.408358 0.355099 -0.115870
C17   C     C_R   0.823335 0.324934 0.331602 0.034965
C18   C     C_R   0.796536 0.259665 0.349329 -0.117699
C19   C     C_R   0.764418 0.282793 0.388628 -0.126698
C20   C     C_R   0.848612 0.300657 0.206572 0.342068
C21   C     C_R   0.837855 0.312382 0.287934 0.344344
C22   C     C_R   0.847053 0.380985 0.144794 -0.127442
C23   C     C_R   0.700925 0.409884 0.447634 0.547483
C24   C     C_R   0.873014 0.373944 0.105253 -0.130642
C25   C     C_R   0.911821 0.194196 0.098507 -0.133638
C26   C     C_R   0.886722 0.200189 0.138332 -0.015006
C27   C     C_R   0.858082 0.293556 0.162498 0.020281
C28   C     C_R   0.910283 0.279234 0.082477 0.008052
C29   C     C_R   0.372083 0.749979 0.407731 0.022838
C30   C     C_R   0.283881 0.766455 0.382132 -0.122775
C31   C     C_R   0.277673 0.788450 0.341978 -0.110723
C32   C     C_R   0.358684 0.795984 0.326814 0.035852
C33   C     C_R   0.442281 0.789381 0.353267 -0.117475
C34   C     C_R   0.393258 0.701977 0.561096 0.580970
C35   C     C_R   0.449247 0.765949 0.393458 -0.127987
C36   C     C_R   0.361950 0.807698 0.201931 0.331906
C37   C     C_R   0.359248 0.801907 0.283023 0.342292
C38   C     C_R   0.262048 0.830544 0.135666 -0.147927
C39   C     C_R   0.235905 0.868094 0.097197 -0.145016
C40   C     C_R   0.392942 0.883033 0.100865 -0.062324
C41   C     C_R   0.421731 0.842350 0.139114 0.245195
C42   C     C_R   0.351809 0.822605 0.158074 0.021019
C43   C     C_R   0.298430 0.899510 0.080280 -0.029378
C44   C     C_R   0.371244 0.369421 0.585130 -0.012245
C45   C     C_R   0.407387 0.388869 0.549039 0.545074
C46   C     C_R   0.281374 0.447198 0.602458 -0.122029
C47   C     C_R   0.259435 0.440152 0.641763 0.250130
C48   C     C_R   0.329334 0.353563 0.663845 0.071946
C49   C     C_R   0.413368 0.271599 0.644579 -0.164414
C50   C     C_R   0.434129 0.279453 0.605725 -0.139985
C51   C     C_R   0.321738 0.347137 0.789044 0.331264
C52   C     C_R   0.321858 0.350331 0.707633 0.367084
C53   C     C_R   0.219930 0.398805 0.849511 -0.129385
C54   C     C_R   0.206761 0.379698 0.887977 -0.134797
C55   C     C_R   0.389055 0.254872 0.895348 -0.132217
C56   C     C_R   0.701899 0.413297 0.562612 0.570410
C57   C     C_R   0.403033 0.273932 0.856859 -0.012744
C58   C     C_R   0.316476 0.342249 0.832679 0.024822
C59   C     C_R   0.290063 0.303625 0.910263 0.008637
C60   C     C_R   0.755296 0.380501 0.602956 0.061011
C61   C     C_R   0.763944 0.454816 0.630960 -0.169117
C62   C     C_R   0.791674 0.434704 0.671682 -0.129677
C63   C     C_R   0.812194 0.339824 0.685044 0.004562
C64   C     C_R   0.811385 0.262293 0.657309 -0.090776
C65   C     C_R   0.783364 0.281501 0.615990 0.238662
C66   C     C_R   0.885917 0.210346 0.822784 0.270281
C67   C     C_R   0.369972 0.367307 0.392424 -0.010735
C68   C     C_R   0.913093 0.200576 0.864607 -0.118524
C69   C     C_R   0.872306 0.381092 0.873112 -0.141562
C70   C     C_R   0.844742 0.391368 0.831793 -0.166647
C71   C     C_R   0.854488 0.305767 0.806501 0.081622
C72   C     C_1   0.839280 0.315187 0.763502 0.056736
C73   C     C_1   0.827849 0.324866 0.727605 0.009558
C74   C     C_R   0.910185 0.284743 0.889691 -0.011249
C75   C     C_R   0.376506 0.756136 0.601785 0.053987
C76   C     C_R   0.276026 0.814137 0.616016 0.230984
C77   C     C_R   0.265370 0.844655 0.657959 0.000087
C78   C     C_R   0.283459 0.447599 0.372862 -0.122902
C79   C     C_R   0.354838 0.817521 0.684461 -0.004104
C80   C     C_R   0.452863 0.767234 0.669340 -0.144513
C81   C     C_R   0.463692 0.737216 0.628420 -0.177822
C82   C     C_R   0.394422 0.885748 0.832419 -0.165966
C83   C     C_R   0.375645 0.912438 0.873274 -0.140415
C84   C     C_R   0.226287 0.883177 0.862795 -0.123188
C85   C     C_R   0.244718 0.856361 0.821534 0.266603
C86   C     C_R   0.327716 0.860559 0.806407 0.079006
C87   C     C_1   0.340606 0.845378 0.763675 0.058979
C88   C     C_1   0.348111 0.833669 0.727667 0.018140
C89   C     C_R   0.263382 0.439846 0.330695 0.261554
C90   C     C_R   0.289419 0.914692 0.888583 -0.011813
C91   C     C_R   0.963748 0.263965 0.045591 0.548578
C92   C     C_R   0.272846 0.259467 0.059992 0.544846
C93   C     C_R   0.259179 0.959712 0.043855 0.546248
C94   C     C_R   0.962531 0.267598 0.930738 0.547951
C95   C     C_R   0.270884 0.264172 0.945436 0.547094
C96   C     C_R   0.255968 0.965141 0.928935 0.548461
Cr1   Cr    Cr6+3 0.576280 0.580550 0.506370 1.017783
Cr2   Cr    Cr6+3 0.346780 0.572400 0.496520 1.044838
Cr3   Cr    Cr6+3 0.576960 0.347070 0.497150 1.064502
Cr4   Cr    Cr6+3 0.087320 0.083240 0.984860 1.020807
Cr5   Cr    Cr6+3 0.087720 0.316210 0.996740 1.020211
Cr6   Cr    Cr6+3 0.317350 0.090340 0.995890 1.023288
H1    H     H_    0.449922 0.170359 0.109312 0.142805
H2    H     H_    0.738330 0.234514 0.400633 0.134940
H3    H     H_    0.869824 0.441122 0.093437 0.140083
H4    H     H_    0.848135 0.459263 0.342463 0.143341
H5    H     H_    0.795152 0.193747 0.332197 0.140634
H6    H     H_    0.822968 0.454148 0.162233 0.145755
H7    H     H_    0.939828 0.120581 0.081061 0.134041
H8    H     H_    0.222712 0.755404 0.392222 0.135705
H9    H     H_    0.517958 0.754107 0.412542 0.131177
H10   H     H_    0.163082 0.878711 0.081877 0.148834
H11   H     H_    0.466366 0.204010 0.182599 0.131693
H12   H     H_    0.211337 0.795276 0.322345 0.145794
H13   H     H_    0.505376 0.795672 0.342295 0.136663
H14   H     H_    0.207737 0.814446 0.148851 0.158768
H15   H     H_    0.443846 0.903930 0.087711 0.154817
H16   H     H_    0.231049 0.516123 0.586355 0.128847
H17   H     H_    0.503293 0.217587 0.592907 0.157782
H18   H     H_    0.129653 0.419046 0.898902 0.136931
H19   H     H_    0.467227 0.203277 0.660355 0.152072
H20   H     H_    0.462855 0.197754 0.311018 0.128272
H21   H     H_    0.152608 0.452504 0.831811 0.141709
H22   H     H_    0.454682 0.198159 0.912862 0.133072
H23   H     H_    0.942272 0.125760 0.876973 0.118119
H24   H     H_    0.829122 0.188305 0.668035 0.132234
H25   H     H_    0.743207 0.531155 0.621936 0.137735
H26   H     H_    0.820081 0.465184 0.819253 0.117596
H27   H     H_    0.869136 0.447258 0.891652 0.141452
H28   H     H_    0.498411 0.212339 0.384160 0.144135
H29   H     H_    0.792914 0.494870 0.693038 0.127293
H30   H     H_    0.425494 0.936599 0.892325 0.144280
H31   H     H_    0.458687 0.888707 0.820781 0.124505
H32   H     H_    0.521731 0.746848 0.689593 0.127488
H33   H     H_    0.541331 0.693080 0.618146 0.138490
H34   H     H_    0.159648 0.884389 0.874182 0.116206
H35   H     H_    0.235205 0.518742 0.389866 0.115745
H36   H     H_    0.154794 0.457578 0.178732 0.139715
H37   H     H_    0.136943 0.425179 0.105410 0.134476
H38   H     H_    0.790916 0.500220 0.410898 0.134993
N1    N     N_R   0.868783 0.369628 0.230794 -0.222049
N2    N     N_R   0.257954 0.436157 0.729821 -0.122897
N3    N     N_R   0.385477 0.262922 0.727078 -0.242058
N4    N     N_R   0.384931 0.261178 0.766888 -0.203917
N5    N     N_R   0.863163 0.375652 0.270645 -0.222152
N6    N     N_R   0.817585 0.243403 0.263739 -0.222632
N7    N     N_R   0.823102 0.237497 0.223845 -0.199392
N8    N     N_R   0.307406 0.768058 0.216912 -0.223863
N9    N     N_R   0.306302 0.764969 0.256608 -0.212246
N10   N     N_R   0.414546 0.840963 0.268216 -0.224162
N11   N     N_R   0.414856 0.844853 0.228426 -0.195815
N12   N     N_R   0.257176 0.434417 0.769690 -0.220640
O1    O     O_R   0.679450 0.499830 0.463150 -0.517243
O2    O     O_R   0.356040 0.477400 0.534170 -0.505632
O3    O     O_R   0.495910 0.323070 0.537100 -0.499402
O4    O     O_R   0.663920 0.359620 0.542290 -0.431441
O5    O     O_3   0.500010 0.500010 0.500010 -0.258425
O6    O     O_R   0.170070 0.978950 0.027680 -0.514691
O7    O     O_R   0.001760 0.175230 0.026640 -0.501713
O8    O     O_R   0.984760 0.333570 0.037150 -0.516490
O9    O     O_R   0.183410 0.309240 0.041890 -0.501274
O10   O     O_R   0.340240 0.172500 0.045430 -0.515368
O11   O     O_R   0.309670 0.000990 0.032050 -0.501957
O12   O     O_R   0.480650 0.664000 0.464630 -0.500593
O13   O     O_R   0.168330 0.982130 0.939200 -0.518555
O14   O     O_R   0.000140 0.178170 0.944610 -0.500882
O15   O     O_R   0.983010 0.336750 0.948660 -0.516970
O16   O     O_R   0.181800 0.312190 0.959860 -0.501456
O17   O     O_R   0.338500 0.175680 0.956950 -0.517073
O18   O     O_R   0.308050 0.003930 0.950020 -0.499012
O19   O     O_3   0.164130 0.163270 0.992500 -0.240350
O20   O     O_R   0.323930 0.675950 0.455370 -0.515177
O21   O     O_R   0.354700 0.475360 0.451930 -0.504646
O22   O     O_R   0.494470 0.320860 0.448390 -0.516799
O23   O     O_R   0.662580 0.357570 0.460050 -0.500648
O24   O     O_R   0.680900 0.502040 0.551870 -0.537263
O25   O     O_R   0.481990 0.666040 0.546870 -0.521414
O26   O     O_R   0.325370 0.678160 0.544080 -0.446226
C97   C     C_1   0.900171 0.106707 0.154142 0.219649
N13   N     N_1   0.911164 0.031587 0.166686 -0.263594
O27   O     O_3   0.517070 0.825204 0.156963 -0.682008
H39   H     H_    0.541360 0.769089 0.175779 0.340972
O28   O     O_3   0.172499 0.518008 0.659277 -0.662967
H40   H     H_    0.132619 0.572389 0.639756 0.327844
C98   C     C_1   0.506449 0.221099 0.842820 0.216740
N14   N     N_1   0.589356 0.178817 0.831637 -0.260261
O29   O     O_3   0.893695 0.127259 0.797217 -0.664754
H41   H     H_    0.917898 0.066066 0.813413 0.327298
O30   O     O_3   0.780037 0.206194 0.588417 -0.679096
H42   H     H_    0.801428 0.142420 0.602607 0.321591
O31   O     O_3   0.191636 0.837079 0.588376 -0.678534
H43   H     H_    0.126127 0.881410 0.601504 0.332919
O32   O     O_3   0.180716 0.829903 0.795295 -0.661791
H44   H     H_    0.125971 0.831541 0.810670 0.324782
C99   C     C_1   0.164116 0.899737 0.674246 0.212944
N15   N     N_1   0.083338 0.943757 0.687313 -0.245837
O33   O     O_3   0.182514 0.520081 0.310498 -0.684984
H45   H     H_    0.144006 0.577443 0.330489 0.319419

loop_
_geom_bond_atom_site_label_1
_geom_bond_atom_site_label_2
_ccdc_geom_bond_type
C92   O9    A    
Cr6   O18   S    
C66   C68   A    
C87   C88   T    
Cr2   O2    S    
C54   H18   S    
Cr5   O16   S    
C41   C42   A    
C74   C94   S    
C36   C42   S    
C37   N10   A    
C56   O4    A    
C95   O16   A    
C94   O14   A    
C57   C58   A    
C7    C8    A    
C30   H8    S    
C26   C97   S    
C25   C28   A    
C26   C27   A    
C29   C30   A    
C84   C90   A    
C56   O24   A    
C39   H10   S    
C8    H36   S    
C15   H38   S    
C55   C59   A    
C85   C86   A    
C5    C6    A    
C80   C81   A    
C23   O23   A    
C93   O11   A    
C68   C74   A    
N3    N4    A    
Cr6   O19   S    
C80   H32   S    
C46   H16   S    
Cr4   O14   S    
C18   C19   A    
N2    N12   A    
Cr5   O15   S    
C23   O1    A    
C18   H5    S    
C43   C93   S    
C55   H22   S    
C36   N8    A    
C40   C43   A    
C84   H34   S    
C66   C71   A    
Cr5   O8    S    
Cr6   O11   S    
Cr3   O3    S    
C70   C71   A    
C45   O3    A    
Cr1   O1    S    
Cr2   O26   S    
C9    C10   S    
C31   H12   S    
C91   O7    A    
C61   C62   A    
C3    H20   S    
C16   H4    S    
C34   C75   S    
Cr2   O20   S    
Cr6   O17   S    
C40   H15   S    
Cr5   O9    S    
Cr1   O24   S    
C96   O18   A    
C66   O29   S    
Cr4   O19   S    
C41   O27   S    
C69   C70   A    
C67   C78   A    
C59   C95   S    
C2    C11   S    
C62   H29   S    
C79   C88   S    
C44   C46   A    
C81   H33   S    
C54   C59   A    
C77   C79   A    
C78   C89   A    
C38   C39   A    
C12   C67   S    
C33   H13   S    
C52   N3    A    
C32   C37   S    
C50   H17   S    
C76   C77   A    
C1    O12   A    
C47   O28   S    
C53   H21   S    
Cr2   O21   S    
C86   C87   S    
C8    C9    A    
C39   C43   A    
C99   N15   T    
C63   C73   S    
C92   O10   A    
C25   C26   A    
O27   H39   S    
C52   N2    A    
C97   N13   T    
C60   C61   A    
Cr1   O5    S    
C14   C23   S    
C2    C89   A    
C75   C76   A    
O28   H40   S    
C5    C9    A    
C62   C63   A    
C25   H7    S    
C38   H14   S    
C19   H2    S    
Cr1   O25   S    
C47   C48   A    
C14   C15   A    
Cr2   O5    S    
C7    C13   A    
C30   C31   A    
Cr6   O10   S    
Cr1   O12   S    
C49   H19   S    
Cr3   O4    S    
C1    C29   S    
C17   C18   A    
C20   N7    A    
Cr3   O23   S    
C69   C74   A    
C61   H25   S    
C51   C58   S    
C6    H1    S    
C84   C85   A    
C95   O17   A    
C91   O8    A    
C48   C49   A    
C65   O30   S    
C60   C65   A    
C82   C83   A    
C64   H24   S    
C22   C27   A    
Cr3   O5    S    
C13   C92   S    
C49   C50   A    
C22   C24   A    
C79   C80   A    
C34   O26   A    
C53   C54   A    
C3    C4    A    
C78   H35   S    
C35   H9    S    
C44   C45   S    
C12   O22   A    
N6    N7    A    
C44   C50   A    
O30   H42   S    
C83   C90   A    
C46   C47   A    
C40   C41   A    
C5    H11   S    
C96   O13   A    
C57   C98   S    
C20   N1    A    
C31   C32   A    
C75   C81   A    
C24   C28   A    
C37   N9    A    
C72   C73   T    
C94   O15   A    
C51   N12   A    
C4    C67   A    
C4    H28   S    
C53   C58   A    
C36   N11   A    
C90   C96   S    
C24   H3    S    
C20   C27   S    
N1    N5    A    
C89   O33   S    
C29   C35   A    
C1    O20   A    
C93   O6    A    
C64   C65   A    
C82   H31   S    
C55   C57   A    
C2    C3    A    
C77   C99   S    
C83   H30   S    
C76   O31   S    
C82   C86   A    
C32   C33   A    
C6    C13   A    
C7    H37   S    
Cr4   O7    S    
C85   O32   S    
C98   N14   T    
C16   C17   A    
Cr3   O22   S    
C22   H6    S    
C14   C19   A    
C33   C35   A    
Cr5   O19   S    
C28   C91   S    
N8    N9    A    
O33   H45   S    
O31   H43   S    
C17   C21   S    
C70   H26   S    
C10   C11   T    
C63   C64   A    
C38   C42   A    
Cr4   O6    S    
C48   C52   S    
C21   N6    A    
C56   C60   S    
C69   H27   S    
O32   H44   S    
C51   N4    A    
N10   N11   A    
Cr4   O13   S    
C34   O25   A    
O29   H41   S    
C45   O2    A    
C71   C72   S    
C68   H23   S    
C15   C16   A    
C21   N5    A    
C12   O21   A    
