data_mof_unit_59013.cif
_audit_creation_date              2012-10-26T18:31:53-0400
_audit_creation_method            fapswitch 2.2
_symmetry_space_group_name_H-M    P1
_symmetry_Int_Tables_number       1
_space_group_crystal_system       triclinic
_cell_length_a                    12.356572
_cell_length_b                    13.260222
_cell_length_c                    14.213643
_cell_angle_alpha                 93.45254
_cell_angle_beta                  107.474909
_cell_angle_gamma                 117.038126
_cell_volume                      1924.86612633

loop_
_atom_site_label
_atom_site_type_symbol
_atom_type_description
_atom_site_fract_x
_atom_site_fract_y
_atom_site_fract_z
_atom_type_partial_charge
C1    C     C_R   0.651080 0.714188 0.509003 0.528927
C2    C     C_R   0.167543 0.432604 0.999923 0.051340
C3    C     C_R   0.119418 0.451564 0.074090 0.033688
C4    C     C_R   0.618931 0.517764 0.687443 0.538775
C5    C     C_R   0.282533 0.425619 0.028432 -0.118375
C6    C     C_R   0.352483 0.440604 0.130332 -0.126843
C7    C     C_R   0.193976 0.470197 0.176321 -0.124111
C8    C     C_R   0.135919 0.965950 0.358041 0.409707
C9    C     C_R   0.247889 0.161689 0.460974 -0.055704
C10   C     C_R   0.733307 0.921420 0.577619 -0.120172
C11   C     C_R   0.824462 0.038305 0.597250 -0.130546
C12   C     C_R   0.837185 0.481316 0.916123 0.023718
C13   C     C_R   0.924149 0.072772 0.559444 -0.109102
C14   C     C_R   0.931883 0.990228 0.497482 0.054724
C15   C     C_R   0.829434 0.873056 0.467643 0.029721
C16   C     C_R   0.344793 0.285044 0.484193 0.580211
C17   C     C_R   0.037243 0.020264 0.463410 -0.038710
C18   C     C_R   0.032010 0.936734 0.392059 -0.003638
C19   C     C_R   0.922097 0.826065 0.354185 -0.106764
C20   C     C_R   0.821700 0.795074 0.390420 -0.130952
C21   C     C_R   0.148768 0.130730 0.499415 -0.219056
C22   C     C_R   0.242993 0.078294 0.391678 0.403454
C23   C     C_R   0.782641 0.489236 0.988947 0.007498
C24   C     C_R   0.736532 0.837581 0.515126 0.002501
C25   C     C_R   0.253725 0.685639 0.661895 -0.134010
C26   C     C_R   0.655071 0.342926 0.362612 0.070281
C27   C     C_R   0.732884 0.309045 0.331667 -0.152200
C28   C     C_R   0.380494 0.481441 0.312935 0.548458
C29   C     C_R   0.868034 0.368023 0.383188 -0.142786
C30   C     C_R   0.927866 0.462670 0.466850 -0.003595
C31   C     C_R   0.843780 0.494788 0.495516 0.177260
C32   C     C_R   0.067414 0.526792 0.522812 -0.009090
C33   C     C_R   0.118934 0.621246 0.605567 0.036969
C34   C     C_R   0.943305 0.458515 0.942196 0.044356
C35   C     C_R   0.035976 0.651479 0.631792 -0.173509
C36   C     C_R   0.902077 0.590128 0.578062 -0.104521
C37   C     C_R   0.159314 0.502042 0.500980 0.046131
C38   C     C_R   0.338192 0.657002 0.636565 0.061256
C39   C     C_R   0.680028 0.519935 0.794914 -0.009332
C40   C     C_R   0.309039 0.464331 0.204831 0.002512
C41   C     C_R   0.679563 0.513140 0.965105 -0.067658
C42   C     C_R   0.629996 0.531716 0.870087 0.230325
C43   C     C_R   0.785618 0.499277 0.820420 -0.168484
C44   C     C_R   0.001828 0.456779 0.044368 0.040791
C45   C     C_R   0.940415 0.459407 0.113308 -0.111938
C46   C     C_R   0.832463 0.474818 0.085633 -0.117878
C47   C     C_R   0.992444 0.436660 0.869854 -0.136311
C48   C     C_R   0.101451 0.422373 0.898373 -0.127698
Cu1   Cu    Cu3+1 0.416420 0.526630 0.522910 0.952094
Cu2   Cu    Cu3+1 0.583580 0.473370 0.477090 0.952845
F1    F     F_    0.338230 0.106472 0.352887 -0.596749
F2    F     F_    0.132012 0.886780 0.289880 -0.598911
H1    H     H_    0.789251 0.477698 0.141126 0.108522
H2    H     H_    0.166549 0.493416 0.235720 0.129401
H3    H     H_    0.075132 0.723993 0.694921 0.118441
H4    H     H_    0.293649 0.758008 0.725294 0.102662
H5    H     H_    0.128500 0.431554 0.439505 0.114682
H6    H     H_    0.550468 0.296571 0.321786 0.181701
H7    H     H_    0.923304 0.338039 0.355875 0.099665
H8    H     H_    0.688161 0.236670 0.267299 0.125729
H9    H     H_    0.847930 0.621088 0.604200 0.180435
H10   H     H_    0.441224 0.435285 0.150793 0.126292
H11   H     H_    0.136093 0.406049 0.840689 0.123672
H12   H     H_    0.319099 0.409860 0.971974 0.138925
H13   H     H_    0.639178 0.520466 0.021536 0.126609
H14   H     H_    0.827396 0.499018 0.764147 0.129838
H15   H     H_    0.971525 0.446894 0.188930 0.101797
H16   H     H_    0.947156 0.427145 0.789791 0.111047
H17   H     H_    0.557142 0.627552 0.821468 0.331182
H18   H     H_    0.913406 0.762574 0.296484 0.173348
H19   H     H_    0.161116 0.195550 0.557320 0.147179
H20   H     H_    0.661783 0.896410 0.613409 0.132437
H21   H     H_    0.991503 0.164955 0.578191 0.107363
H22   H     H_    0.820275 0.102437 0.644708 0.125859
H23   H     H_    0.736688 0.709978 0.354938 0.148397
H24   H     H_    0.442154 0.706761 0.679883 0.112061
N1    N     N_R   0.290690 0.566960 0.557640 -0.228071
N2    N     N_R   0.709100 0.433710 0.442970 -0.242695
O1    O     O_R   0.545970 0.684450 0.528810 -0.500347
O2    O     O_R   0.687130 0.639470 0.490120 -0.532640
O3    O     O_R   0.519670 0.535100 0.660030 -0.483732
O4    O     O_R   0.660830 0.490120 0.621340 -0.528295
O5    O     O_R   0.312870 0.360530 0.509880 -0.515544
O6    O     O_R   0.454030 0.315550 0.471190 -0.435124
O7    O     O_R   0.339170 0.509880 0.378660 -0.506362
O8    O     O_R   0.480330 0.464900 0.339970 -0.514664
O9    O     O_3   0.533311 0.560765 0.854112 -0.698669

loop_
_geom_bond_atom_site_label_1
_geom_bond_atom_site_label_2
_ccdc_geom_bond_type
C27   C29   A    
C41   C42   A    
C19   C20   A    
C25   H4    S    
C9    C21   A    
Cu2   O6    S    
C38   H24   S    
C45   C46   A    
C12   C23   A    
C26   C27   A    
C26   N2    A    
C21   H19   S    
C9    C16   S    
C12   C43   A    
C3    C7    A    
C27   H8    S    
C5    C6    A    
C9    C22   A    
C28   C40   S    
C16   O6    A    
C18   C19   A    
Cu1   O3    S    
C4    O3    A    
C29   H7    S    
C45   H15   S    
C8    C22   A    
C7    C40   A    
C8    F2    S    
H17   O9    S    
C23   C46   A    
C13   C14   A    
C14   C17   A    
Cu2   N2    S    
C39   C42   A    
C15   C20   A    
C3    C44   A    
C35   H3    S    
Cu1   O7    S    
C34   C44   A    
C48   H11   S    
C41   H13   S    
C2    C48   A    
C37   N1    A    
C16   O5    A    
C8    C18   A    
Cu1   O1    S    
C20   H23   S    
C35   C36   A    
C29   C30   A    
C25   C38   A    
C47   C48   A    
C4    C39   S    
C17   C18   A    
C32   C37   A    
C26   H6    S    
C15   C24   A    
C13   H21   S    
C28   O8    A    
C1    O1    A    
C6    C40   A    
C2    C5    A    
C12   C34   A    
C36   H9    S    
C47   H16   S    
C44   C45   A    
Cu2   O4    S    
C31   N2    A    
C14   C15   A    
C11   H22   S    
Cu2   O2    S    
C39   C43   A    
C34   C47   A    
C38   N1    A    
C23   C41   A    
C10   C24   A    
C32   C33   A    
Cu1   O5    S    
C2    C3    A    
C30   C32   A    
C11   C13   A    
C6    H10   S    
C30   C31   A    
C43   H14   S    
C46   H1    S    
C33   C35   A    
Cu1   N1    S    
C17   C21   A    
C10   C11   A    
Cu2   O8    S    
C4    O4    A    
C5    H12   S    
C1    C24   S    
Cu1   Cu2   S    
C28   O7    A    
C1    O2    A    
C31   C36   A    
C19   H18   S    
C42   O9    S    
C7    H2    S    
C37   H5    S    
C25   C33   A    
C22   F1    S    
C10   H20   S    
