data_mof_unit_44040.cif
_audit_creation_date              2012-12-10T18:05:43-0500
_audit_creation_method            fapswitch 2.2
_symmetry_space_group_name_H-M    P1
_symmetry_Int_Tables_number       1
_space_group_crystal_system       triclinic
_cell_length_a                    10.887925
_cell_length_b                    10.778675
_cell_length_c                    9.577291
_cell_angle_alpha                 91.642642
_cell_angle_beta                  92.270456
_cell_angle_gamma                 91.587701
_cell_volume                      1122.15396159

loop_
_atom_site_label
_atom_site_type_symbol
_atom_type_description
_atom_site_fract_x
_atom_site_fract_y
_atom_site_fract_z
_atom_type_partial_charge
C1    C     C_R   0.501340 0.262495 0.498304 0.799884
C2    C     C_R   0.498660 0.737505 0.501695 0.799881
C3    C     C_R   0.871777 0.499238 0.507738 -0.093830
C4    C     C_R   0.128224 0.500764 0.492260 -0.093824
C5    C     C_R   0.946761 0.545536 0.622525 0.038110
C6    C     C_R   0.053239 0.454466 0.377472 0.038107
C7    C     C_R   0.578737 0.061318 0.409127 0.160472
C8    C     C_R   0.421262 0.938682 0.590873 0.160474
C9    C     C_R   0.576647 0.932939 0.414091 -0.186362
C10   C     C_R   0.423351 0.067060 0.585908 -0.186362
C11   C     C_R   0.499097 0.871441 0.504307 -0.111110
C12   C     C_R   0.500902 0.128559 0.495692 -0.111109
C13   C     C_R   0.456226 0.398550 0.067706 0.269636
C14   C     C_R   0.543774 0.601450 0.932294 0.269634
C15   C     C_R   0.456668 0.399597 0.919456 -0.097629
C16   C     C_R   0.543334 0.600402 0.080544 -0.097620
C17   C     C_R   0.262193 0.498613 0.496928 0.780072
C18   C     C_R   0.737807 0.501387 0.503071 0.780074
C19   C     C_R   0.155069 0.446447 0.005943 -0.177904
C20   C     C_R   0.844943 0.553564 0.994054 -0.177913
C21   C     C_R   0.136903 0.489189 0.142658 -0.121062
C22   C     C_R   0.863107 0.510818 0.857341 -0.121058
C23   C     C_R   0.098493 0.406333 0.243682 0.099087
C24   C     C_R   0.901507 0.593672 0.756312 0.099090
C25   C     C_R   0.077547 0.280465 0.205835 -0.241306
C26   C     C_R   0.922442 0.719544 0.794149 -0.241316
C27   C     C_R   0.094862 0.237953 0.069085 -0.151160
C28   C     C_R   0.905127 0.762060 0.930896 -0.151153
C29   C     C_R   0.133299 0.320417 0.968077 0.209294
C30   C     C_R   0.866703 0.679597 0.031911 0.209307
C31   C     C_R   0.926452 0.453006 0.388156 -0.237209
C32   C     C_R   0.073549 0.546994 0.611843 -0.237179
Cu1   Cu    Cu3+1 0.500000 0.500020 0.640660 0.939431
Cu2   Cu    Cu3+1 0.500000 0.499980 0.359340 0.939433
H1    H     H_    0.421259 0.319670 0.858579 0.135593
H2    H     H_    0.578745 0.680328 0.141421 0.135591
H3    H     H_    0.184288 0.511897 0.929553 0.139209
H4    H     H_    0.815731 0.488116 0.070448 0.139209
H5    H     H_    0.148619 0.587398 0.168551 0.154101
H6    H     H_    0.851399 0.412608 0.831455 0.154104
H7    H     H_    0.043616 0.216166 0.281213 0.155750
H8    H     H_    0.956364 0.783842 0.718766 0.155749
H9    H     H_    0.076822 0.140925 0.041092 0.149920
H10   H     H_    0.923158 0.859091 0.958883 0.149923
H11   H     H_    0.869579 0.415303 0.300663 0.157280
H12   H     H_    0.130422 0.584697 0.699337 0.157278
H13   H     H_    0.636924 0.880852 0.348311 0.150324
H14   H     H_    0.363075 0.119148 0.651689 0.150324
N1    N     N_R   0.500030 0.500030 0.852070 -0.176561
N2    N     N_R   0.499970 0.499970 0.147930 -0.176561
O1    O     O_R   0.499990 0.319660 0.618740 -0.593287
O2    O     O_R   0.500010 0.680340 0.381260 -0.593286
O3    O     O_R   0.499990 0.319630 0.381170 -0.558059
O4    O     O_R   0.500010 0.680370 0.618830 -0.558060
O5    O     O_R   0.319650 0.500020 0.618780 -0.595434
O6    O     O_R   0.680350 0.499980 0.381220 -0.595429
O7    O     O_R   0.319640 0.500000 0.381210 -0.578345
O8    O     O_R   0.680360 0.500000 0.618790 -0.578342
N3    N     N_3   0.147556 0.274959 0.827616 -0.598675
H15   H     H_    0.178670 0.346613 0.765755 0.231220
H16   H     H_    0.216633 0.209549 0.830399 0.198709
N4    N     N_3   0.852450 0.725058 0.172369 -0.598670
H17   H     H_    0.821378 0.653393 0.234252 0.231212
H18   H     H_    0.783348 0.790442 0.169597 0.198711
N5    N     N_3   0.663922 0.120594 0.320122 -0.599658
H19   H     H_    0.717734 0.186032 0.379675 0.212512
H20   H     H_    0.614656 0.166066 0.242096 0.259187
N6    N     N_3   0.336080 0.879406 0.679880 -0.599656
H21   H     H_    0.282268 0.813967 0.620328 0.212509
H22   H     H_    0.385347 0.833933 0.757904 0.259187
N7    N     N_3   0.409758 0.290181 0.133199 -0.559098
H23   H     H_    0.380923 0.221330 0.059027 0.179643
H24   H     H_    0.332467 0.315425 0.186790 0.257225
N8    N     N_3   0.590242 0.709818 0.866801 -0.559101
H25   H     H_    0.619076 0.778670 0.940973 0.179643
H26   H     H_    0.667534 0.684575 0.813210 0.257227

loop_
_geom_bond_atom_site_label_1
_geom_bond_atom_site_label_2
_ccdc_geom_bond_type
Cu1   O5    S    
Cu2   O6    S    
Cu1   O8    S    
C27   C29   A    
C20   C30   A    
N8    H26   S    
C14   N8    S    
C19   C21   A    
C24   C26   A    
C30   N4    S    
C14   N1    A    
Cu1   N1    S    
C3    C18   S    
C1    O3    A    
N4    H18   S    
C19   H3    S    
C18   O8    A    
C29   N3    S    
N6    H21   S    
N5    H20   S    
Cu2   O7    S    
C17   O5    A    
C18   O6    A    
C5    C32   A    
C15   N1    A    
C6    C31   A    
N3    H15   S    
C1    C12   S    
C32   H12   S    
C2    C11   S    
C10   C12   A    
C15   H1    S    
C21   C23   A    
C7    C12   A    
Cu2   N2    S    
N3    H16   S    
N8    H25   S    
C4    C6    A    
C2    O4    A    
C25   H7    S    
N7    H24   S    
C13   N7    S    
C28   H10   S    
N4    H17   S    
C7    N5    S    
C20   H4    S    
C21   H5    S    
C22   H6    S    
Cu1   Cu2   S    
C3    C31   A    
C9    C11   A    
C4    C32   A    
C2    O2    A    
C4    C17   S    
C8    C10   A    
C20   C22   A    
C8    N6    S    
C13   C15   A    
C10   H14   S    
C22   C24   A    
C25   C27   A    
C19   C29   A    
C26   H8    S    
Cu1   O4    S    
C7    C9    A    
Cu2   O2    S    
C16   N2    A    
C3    C5    A    
C9    H13   S    
Cu1   O1    S    
C26   C28   A    
C1    O1    A    
C28   C30   A    
N7    H23   S    
C16   H2    S    
C5    C24   S    
C8    C11   A    
C6    C23   S    
C14   C16   A    
C23   C25   A    
C13   N2    A    
C27   H9    S    
Cu2   O3    S    
N6    H22   S    
N5    H19   S    
C31   H11   S    
C17   O7    A    
