data_mof_unit_19491.cif
_audit_creation_date              2012-10-26T20:18:15-0400
_audit_creation_method            fapswitch 2.2
_symmetry_space_group_name_H-M    P1
_symmetry_Int_Tables_number       1
_space_group_crystal_system       triclinic
_cell_length_a                    23.276169
_cell_length_b                    8.839218
_cell_length_c                    7.525411
_cell_angle_alpha                 103.741101
_cell_angle_beta                  93.804185
_cell_angle_gamma                 94.26958
_cell_volume                      1494.15994845

loop_
_atom_site_label
_atom_site_type_symbol
_atom_type_description
_atom_site_fract_x
_atom_site_fract_y
_atom_site_fract_z
_atom_type_partial_charge
C1    C     C_R   0.498244 0.200316 0.453281 0.605820
C2    C     C_R   0.706979 0.640810 0.573933 -0.016344
C3    C     C_R   0.241154 0.308266 0.503449 0.051706
C4    C     C_R   0.767710 0.644608 0.566654 0.056293
C5    C     C_R   0.208804 0.438227 0.564479 0.134091
C6    C     C_R   0.792283 0.502400 0.499209 0.135872
C7    C     C_2   0.491181 0.032477 0.429719 -0.008383
C8    C     C_2   0.511410 0.967141 0.567125 -0.003388
C9    C     C_R   0.391110 0.500910 0.503201 0.595434
C10   C     C_R   0.608768 0.496357 0.496419 0.589173
C11   C     C_R   0.887824 0.585190 0.685428 0.474790
C12   C     C_R   0.502915 0.799727 0.546143 0.607931
C13   C     C_R   0.109462 0.310019 0.467134 0.478125
C14   C     C_R   0.871569 0.329452 0.497373 0.452160
C15   C     C_R   0.125876 0.507321 0.744754 0.454269
C16   C     C_R   0.930852 0.312367 0.503614 0.012417
C17   C     C_R   0.067006 0.531461 0.736841 0.021999
C18   C     C_R   0.969363 0.437102 0.603674 -0.047734
C19   C     C_R   0.028859 0.419859 0.613228 -0.049405
C20   C     C_R   0.948490 0.577428 0.696568 0.028380
C21   C     C_R   0.050567 0.290929 0.498701 0.022950
C22   C     C_R   0.952116 0.172202 0.414190 -0.102280
C23   C     C_R   0.237178 0.592401 0.593131 0.057234
C24   C     C_R   0.046790 0.670449 0.833116 -0.086357
C25   C     C_R   0.011868 0.157942 0.412323 0.059594
C26   C     C_R   0.989115 0.702021 0.798094 0.067881
C27   C     C_2   0.031176 0.998315 0.345831 0.653911
C28   C     C_2   0.976600 0.869595 0.838097 0.653346
C29   C     C_2   0.203896 0.731224 0.640162 0.648009
C30   C     C_2   0.780373 0.324119 0.180283 0.659076
C31   C     C_2   0.329436 0.772455 0.646933 0.599562
C32   C     C_2   0.663292 0.222973 0.292459 0.615688
C33   C     C_2   0.328888 0.199769 0.363488 0.606439
C34   C     C_R   0.757046 0.391165 0.360438 0.070395
C35   C     C_2   0.680034 0.783176 0.662338 0.610007
C36   C     C_2   0.217291 0.147445 0.502262 0.679996
C37   C     C_2   0.801443 0.793595 0.563616 0.688626
C38   C     C_3   0.456651 0.940202 0.252418 -0.318269
C39   C     C_3   0.547945 0.058656 0.740084 -0.322845
C40   C     C_3   0.427905 0.388720 0.951437 -0.112096
C41   C     C_3   0.572147 0.610955 0.048426 -0.103356
C42   C     C_R   0.297750 0.613892 0.583491 -0.014656
C43   C     C_R   0.697046 0.375780 0.376244 -0.018439
C44   C     C_R   0.327894 0.483575 0.511333 -0.082430
C45   C     C_R   0.671848 0.501556 0.487791 -0.090064
C46   C     C_R   0.298462 0.332779 0.458599 -0.019211
Cu1   Cu    Cu3+1 0.506340 0.517380 0.684380 0.989070
Cu2   Cu    Cu3+1 0.493660 0.482620 0.315620 0.990731
H1    H     H_    0.922056 0.074179 0.342519 0.201459
H2    H     H_    0.673403 0.949549 0.893179 0.359997
H3    H     H_    0.204449 0.919658 0.365504 0.387109
H4    H     H_    0.860988 0.899578 0.440130 0.376989
H5    H     H_    0.437124 0.016392 0.172020 0.157358
H6    H     H_    0.485264 0.869227 0.160606 0.147076
H7    H     H_    0.420002 0.865422 0.283409 0.183331
H8    H     H_    0.569365 0.980805 0.814162 0.141181
H9    H     H_    0.583357 0.134868 0.704869 0.179524
H10   H     H_    0.520458 0.128379 0.837463 0.159536
H11   H     H_    0.409319 0.309612 0.031443 0.130394
H12   H     H_    0.077747 0.762002 0.915759 0.198867
H13   H     H_    0.398258 0.481608 0.952546 0.151171
H14   H     H_    0.430259 0.312713 0.813866 0.161561
H15   H     H_    0.601741 0.517889 0.046927 0.163378
H16   H     H_    0.590727 0.690193 0.968576 0.128522
H17   H     H_    0.569887 0.686791 0.186174 0.160632
H18   H     H_    0.095705 0.857422 0.320406 0.369806
H19   H     H_    0.928451 0.033621 0.775366 0.352634
H20   H     H_    0.190763 0.926664 0.829493 0.395118
H21   H     H_    0.767894 0.176822 0.928357 0.386438
H22   H     H_    0.331215 0.001145 0.653775 0.365421
H23   H     H_    0.592611 0.103805 0.139869 0.315546
H24   H     H_    0.334740 0.034771 0.130048 0.352873
N1    N     N_R   0.851780 0.474733 0.557006 -0.362590
N2    N     N_R   0.147549 0.414733 0.594844 -0.373381
N3    N     N_2   0.484110 0.456420 0.038520 -0.158868
N4    N     N_2   0.515890 0.543580 0.961480 -0.166251
O1    O     O_R   0.504120 0.286130 0.619770 -0.528890
O2    O     O_2   0.126802 0.235237 0.304635 -0.397003
O3    O     O_2   0.834334 0.199853 0.439124 -0.458216
O4    O     O_2   0.161113 0.581441 0.894539 -0.442959
O5    O     O_2   0.995645 0.887939 0.273913 -0.482177
O6    O     O_R   0.088808 0.970251 0.375095 -0.608448
O7    O     O_2   0.009381 0.969533 0.945452 -0.483130
O8    O     O_R   0.930985 0.916371 0.739960 -0.637597
O9    O     O_2   0.160438 0.739250 0.543670 -0.522364
O10   O     O_R   0.220092 0.847035 0.801631 -0.594571
O11   O     O_2   0.827571 0.376253 0.146993 -0.459487
O12   O     O_R   0.495880 0.713870 0.380230 -0.536348
O13   O     O_R   0.747640 0.208162 0.044934 -0.644413
O14   O     O_2   0.372001 0.794154 0.757322 -0.520085
O15   O     O_R   0.309616 0.897815 0.585359 -0.644426
O16   O     O_2   0.681792 0.102829 0.316751 -0.428192
O17   O     O_R   0.611691 0.214602 0.183486 -0.686507
O18   O     O_2   0.369426 0.157300 0.444387 -0.571836
O19   O     O_R   0.311571 0.125709 0.180040 -0.612688
O20   O     O_2   0.644383 0.836577 0.573418 -0.527345
O21   O     O_R   0.695393 0.855179 0.847464 -0.618071
O22   O     O_2   0.192848 0.124245 0.633380 -0.459715
O23   O     O_R   0.493410 0.256770 0.308360 -0.487091
O24   O     O_R   0.221741 0.023644 0.350283 -0.576417
O25   O     O_2   0.793800 0.916774 0.670287 -0.420133
O26   O     O_R   0.841896 0.791699 0.434042 -0.619336
O27   O     O_R   0.506590 0.743230 0.691640 -0.486593
O28   O     O_R   0.423230 0.514630 0.655730 -0.487976
O29   O     O_R   0.576770 0.485370 0.344270 -0.477787
O30   O     O_R   0.412530 0.485280 0.344320 -0.508541
O31   O     O_R   0.587470 0.514720 0.655680 -0.514725
O32   O     O_2   0.865323 0.691167 0.815260 -0.397473

loop_
_geom_bond_atom_site_label_1
_geom_bond_atom_site_label_2
_ccdc_geom_bond_type
C2    C35   S    
C31   C42   S    
C28   O8    S    
H20   O10   S    
H22   O15   S    
C33   O18   D    
C1    O23   A    
C7    C8    D    
C35   O20   D    
H4    O26   S    
C23   C42   A    
C23   C29   S    
C19   C21   A    
C24   C26   A    
Cu1   N4    S    
C37   O26   S    
C39   H9    S    
C40   H14   S    
C18   C19   A    
C5    N2    S    
H24   O19   S    
C32   C43   S    
Cu2   O30   S    
C38   H7    S    
Cu2   O29   S    
H2    O21   S    
C22   C25   A    
C38   H6    S    
Cu1   Cu2   S    
Cu2   O12   S    
C8    C39   S    
C29   O9    D    
C24   H12   S    
C32   O17   S    
H19   O8    S    
C40   H11   S    
C28   O7    D    
C33   C46   S    
Cu2   N3    S    
C10   O31   A    
C42   C44   A    
C30   O13   S    
H21   O13   S    
C33   O19   S    
C44   C46   A    
C2    C45   A    
C11   C20   A    
C17   C24   A    
Cu1   O27   S    
C30   C34   S    
C14   N1    A    
C27   O5    D    
Cu1   O31   S    
C12   O27   A    
C4    C6    A    
C11   N1    A    
C12   O12   A    
C41   H17   S    
C9    O30   A    
C39   H10   S    
C40   H13   S    
C6    C34   A    
C2    C4    A    
N3    N4    D    
H18   O6    S    
C15   O4    S    
C5    C23   A    
C8    C12   S    
C31   O14   D    
C10   C45   S    
C13   C21   A    
C36   O24   S    
C39   H8    S    
C14   O3    S    
C4    C37   S    
C43   C45   A    
C29   O10   S    
C22   H1    S    
C31   O15   S    
C14   C16   A    
C41   H15   S    
C6    N1    S    
H3    O24   S    
C15   C17   A    
Cu2   O23   S    
C21   C25   A    
C13   O2    S    
C9    C44   S    
C16   C22   A    
Cu1   O28   S    
C1    C7    S    
C27   O6    S    
C34   C43   A    
C3    C5    A    
H23   O17   S    
C25   C27   S    
C3    C46   A    
C26   C28   S    
C40   N3    S    
C41   N4    S    
C37   O25   D    
C32   O16   D    
C38   H5    S    
C20   C26   A    
C3    C36   S    
C9    O28   A    
C17   C19   A    
C7    C38   S    
C18   C20   A    
C15   N2    A    
C13   N2    A    
C16   C18   A    
C11   O32   S    
Cu1   O1    S    
C10   O29   A    
C36   O22   D    
C1    O1    A    
C41   H16   S    
C30   O11   D    
C35   O21   S    
