data_mof_unit_10626.cif
_audit_creation_date              2012-12-10T17:22:10-0500
_audit_creation_method            fapswitch 2.2
_symmetry_space_group_name_H-M    P1
_symmetry_Int_Tables_number       1
_space_group_crystal_system       triclinic
_cell_length_a                    15.886348
_cell_length_b                    10.852801
_cell_length_c                    9.652844
_cell_angle_alpha                 89.114443
_cell_angle_beta                  90.083244
_cell_angle_gamma                 94.339398
_cell_volume                      1659.29094876

loop_
_atom_site_label
_atom_site_type_symbol
_atom_type_description
_atom_site_fract_x
_atom_site_fract_y
_atom_site_fract_z
_atom_type_partial_charge
C1    C     C_R   0.505272 0.262536 0.501096 0.804648
C2    C     C_3   0.945662 0.392273 0.591563 -0.166277
C3    C     C_3   0.917041 0.506524 0.505680 -0.091950
C4    C     C_3   0.956293 0.628236 0.579171 0.392996
C5    C     C_3   0.056514 0.620451 0.594840 0.347265
C6    C     C_1   0.824404 0.502694 0.502123 0.157517
C7    C     C_1   0.175910 0.503707 0.503134 0.149150
C8    C     C_1   0.251197 0.501466 0.500509 -0.035000
C9    C     C_R   0.526518 0.105606 0.758595 -0.177883
C10   C     C_R   0.503436 0.040676 0.879569 -0.300227
C11   C     C_R   0.451375 0.931731 0.873795 0.375797
C12   C     C_R   0.340539 0.499411 0.500020 0.837817
C13   C     C_R   0.433131 0.877996 0.745066 0.362911
C14   C     C_R   0.471066 0.932840 0.623672 -0.032260
C15   C     C_R   0.502551 0.057424 0.628515 0.023170
C16   C     C_R   0.509938 0.126985 0.502869 -0.080871
C17   C     C_R   0.510146 0.063225 0.376435 0.175409
C18   C     C_R   0.500164 0.935206 0.376753 -0.144339
C19   C     C_R   0.482048 0.868791 0.499225 -0.087130
C20   C     C_R   0.601379 0.677245 0.148936 -0.152456
C21   C     C_R   0.637641 0.782934 0.087546 0.319990
C22   C     C_R   0.634684 0.795692 0.946947 -0.192843
C23   C     C_R   0.491775 0.735838 0.499427 0.892857
C24   C     C_R   0.602500 0.698047 0.864862 0.343658
C25   C     C_R   0.550860 0.592557 0.925226 0.106890
C26   C     C_R   0.550287 0.588770 0.075271 0.125291
C27   C     C_R   0.450561 0.417494 0.075128 -0.045577
C28   C     C_R   0.449991 0.417447 0.927427 0.247775
C29   C     C_R   0.659346 0.498302 0.499916 0.843337
C30   C     C_3   0.042745 0.379743 0.570552 0.591040
C31   C     C_3   0.049971 0.521614 0.357443 -0.450755
C32   C     C_3   0.952841 0.497469 0.355104 0.137065
C33   C     C_1   0.748875 0.500052 0.500332 -0.040448
C34   C     C_3   0.083644 0.506252 0.508432 -0.086702
Cu1   Cu    Cu3+1 0.499990 0.499990 0.640660 1.054231
Cu2   Cu    Cu3+1 0.500010 0.500010 0.359340 1.009257
H1    H     H_    0.935623 0.411157 0.702803 0.257151
H2    H     H_    0.565698 0.190783 0.768636 0.195003
H3    H     H_    0.522894 0.079235 0.977203 0.176309
H4    H     H_    0.507768 0.888025 0.280189 0.212582
H5    H     H_    0.409702 0.349975 0.131514 0.147867
H6    H     H_    0.614807 0.670177 0.255744 0.231073
H7    H     H_    0.667888 0.877712 0.901564 0.229215
H8    H     H_    0.068893 0.615563 0.315795 0.262185
H9    H     H_    0.078274 0.456985 0.285646 0.242198
H10   H     H_    0.938165 0.402315 0.317201 0.199960
N1    N     N_R   0.500800 0.501210 0.147910 -0.185903
N2    N     N_R   0.500820 0.501290 0.852040 -0.168705
O1    O     O_R   0.499990 0.319640 0.618810 -0.584654
O2    O     O_R   0.500000 0.319660 0.381240 -0.550547
O3    O     O_R   0.379430 0.499990 0.618840 -0.518865
O4    O     O_R   0.379440 0.500020 0.381260 -0.573918
O5    O     O_R   0.500000 0.680340 0.618760 -0.533020
O6    O     O_R   0.500010 0.680360 0.381190 -0.605825
O7    O     O_R   0.620560 0.499980 0.618740 -0.528107
O8    O     O_R   0.620570 0.500010 0.381160 -0.601905
N3    N     N_3   0.892918 0.277641 0.564850 -0.537950
H11   H     H_    0.914756 0.205940 0.625441 0.311096
H12   H     H_    0.895410 0.252569 0.461143 0.276221
Cl1   Cl    Cl    0.088803 0.337554 0.733377 -0.503391
N4    N     N_3   0.936883 0.740776 0.501895 -0.430845
H13   H     H_    0.871968 0.740973 0.484048 0.277538
H14   H     H_    0.967483 0.748272 0.406468 0.290001
N5    N     N_3   0.523347 0.127446 0.246989 -0.557100
H15   H     H_    0.575662 0.094161 0.198544 0.259273
H16   H     H_    0.469543 0.107929 0.186483 0.239288
Cl2   Cl    Cl    0.410724 0.863652 0.028579 -0.582767
Cl3   Cl    Cl    0.350451 0.759877 0.734868 -0.509337
Cl4   Cl    Cl    0.064002 0.253997 0.458262 -0.520131
Cl5   Cl    Cl    0.694677 0.895015 0.186987 -0.564241
Cl6   Cl    Cl    0.657525 0.721129 0.707398 -0.562257
N6    N     N_3   0.393248 0.331479 0.856603 -0.501093
H17   H     H_    0.403249 0.242755 0.893294 0.212555
H18   H     H_    0.331754 0.349384 0.883970 0.246631
Cl7   Cl    Cl    0.905480 0.591032 0.225621 -0.514128
N7    N     N_3   0.080098 0.605415 0.741330 -0.472360
H19   H     H_    0.145043 0.596392 0.748507 0.277828
H20   H     H_    0.070705 0.686952 0.793647 0.314825
Cl8   Cl    Cl    0.115266 0.761445 0.534324 -0.497085
Cl9   Cl    Cl    0.905649 0.642444 0.746066 -0.468018

loop_
_geom_bond_atom_site_label_1
_geom_bond_atom_site_label_2
_ccdc_geom_bond_type
Cu1   O5    S    
Cu1   Cu2   S    
C3    C6    S    
C30   Cl4   S    
C32   Cl7   S    
C2    N3    S    
C7    C8    T    
N7    H20   S    
C4    Cl9   S    
C17   N5    S    
N3    H12   S    
C15   C16   A    
C29   C33   S    
Cu2   N1    S    
C18   C19   A    
N4    H14   S    
C18   H4    S    
C22   H7    S    
C16   C17   A    
C30   Cl1   S    
Cu1   O1    S    
C5    Cl8   S    
C1    O2    A    
Cu2   O4    S    
C21   C22   A    
C28   N6    S    
Cu1   N2    S    
C12   O4    A    
C11   Cl2   S    
C23   O5    A    
C31   H8    S    
C30   C34   S    
Cu1   O7    S    
N7    H19   S    
N6    H18   S    
C4    C5    S    
C29   O7    A    
C25   C26   A    
C4    N4    S    
C10   H3    S    
N5    H16   S    
C19   C23   S    
Cu2   O8    S    
C27   H5    S    
C31   C32   S    
C8    C12   S    
C5    C34   S    
C17   C18   A    
C31   C34   S    
C3    C32   S    
C1    C16   S    
C24   C25   A    
C25   N2    A    
C26   N1    A    
Cu1   O3    S    
C7    C34   S    
C22   C24   A    
C3    C4    S    
C12   O3    A    
Cu2   O2    S    
C23   O6    A    
C9    C10   A    
C27   N1    A    
C28   N2    A    
C32   H10   S    
C14   C19   A    
N6    H17   S    
C20   H6    S    
C29   O8    A    
C6    C33   T    
C21   Cl5   S    
C2    C30   S    
N5    H15   S    
C5    N7    S    
C2    C3    S    
C9    C15   A    
C11   C13   A    
C2    H1    S    
N3    H11   S    
C20   C26   A    
C9    H2    S    
N4    H13   S    
Cu2   O6    S    
C10   C11   A    
C20   C21   A    
C31   H9    S    
C27   C28   A    
C14   C15   A    
C13   C14   A    
C1    O1    A    
C24   Cl6   S    
C13   Cl3   S    
