data_mof_unit_60252.cif
_audit_creation_date              2012-12-10T18:13:16-0500
_audit_creation_method            fapswitch 2.2
_symmetry_space_group_name_H-M    P1
_symmetry_Int_Tables_number       1
_space_group_crystal_system       triclinic
_cell_length_a                    18.329608
_cell_length_b                    18.321546
_cell_length_c                    25.97223
_cell_angle_alpha                 89.999872
_cell_angle_beta                  90.000398
_cell_angle_gamma                 90.00058
_cell_volume                      8722.16974979

loop_
_atom_site_label
_atom_site_type_symbol
_atom_type_description
_atom_site_fract_x
_atom_site_fract_y
_atom_site_fract_z
_atom_type_partial_charge
Br1   Br    Br    0.911678 0.180711 0.564048 -0.353825
Br2   Br    Br    0.304430 0.921564 0.764197 -0.460933
Br3   Br    Br    0.794661 0.822273 0.137142 -0.392815
Br4   Br    Br    0.794733 0.822213 0.862865 -0.392859
Br5   Br    Br    0.705246 0.322193 0.637135 -0.392896
Br6   Br    Br    0.705289 0.322228 0.362862 -0.392865
Br7   Br    Br    0.195572 0.421565 0.735821 -0.460891
Br8   Br    Br    0.195572 0.421567 0.264170 -0.460907
Br9   Br    Br    0.911677 0.180711 0.435951 -0.353832
Br10  Br    Br    0.087402 0.180789 0.564064 -0.346365
Br11  Br    Br    0.087401 0.180789 0.435936 -0.346362
Br12  Br    Br    0.412624 0.680802 0.064063 -0.346314
Br13  Br    Br    0.412625 0.680802 0.935935 -0.346313
Br14  Br    Br    0.588348 0.680697 0.064049 -0.353836
Br15  Br    Br    0.588348 0.680697 0.935951 -0.353830
Br16  Br    Br    0.304429 0.921566 0.235825 -0.460943
C1    C     C_R   0.860035 0.139995 0.249929 0.813871
C2    C     C_R   0.785918 0.230869 0.295799 -0.175521
C3    C     C_R   0.229533 0.322548 0.257800 0.277429
C4    C     C_1   0.102465 0.705609 0.263488 0.249499
C5    C     C_1   0.102467 0.705611 0.736496 0.249515
C6    C     C_1   0.815426 0.787768 0.345678 0.237965
C7    C     C_1   0.815378 0.787818 0.654316 0.237921
C8    C     C_1   0.684651 0.287849 0.845689 0.237916
C9    C     C_1   0.684621 0.287820 0.154315 0.237942
C10   C     C_1   0.397535 0.205610 0.763483 0.249455
C11   C     C_1   0.397536 0.205610 0.236522 0.249467
C12   C     C_1   0.085130 0.894180 0.054696 0.233126
C13   C     C_R   0.176688 0.268331 0.741378 -0.174748
C14   C     C_1   0.085085 0.894145 0.945302 0.233122
C15   C     C_1   0.914671 0.105544 0.054674 0.216487
C16   C     C_1   0.914688 0.105557 0.945325 0.216461
C17   C     C_1   0.586016 0.605000 0.554658 0.217064
C18   C     C_1   0.585957 0.605044 0.445337 0.216976
C19   C     C_1   0.414156 0.394737 0.554678 0.233294
C20   C     C_1   0.414357 0.394585 0.445309 0.233225
C21   C     C_R   0.176688 0.268332 0.258619 -0.174749
C22   C     C_R   0.323312 0.768332 0.241379 -0.174776
C23   C     C_R   0.323312 0.768330 0.758629 -0.174773
C24   C     C_R   0.714063 0.730888 0.204204 -0.175507
C25   C     C_R   0.714089 0.730863 0.795801 -0.175495
C26   C     C_R   0.804208 0.195845 0.750097 -0.067567
C27   C     C_R   0.804207 0.195844 0.249903 -0.067580
C28   C     C_R   0.195967 0.195676 0.749861 -0.063353
C29   C     C_R   0.860035 0.139995 0.750071 0.813858
C30   C     C_R   0.195967 0.195676 0.250139 -0.063349
C31   C     C_R   0.304033 0.695676 0.249861 -0.063347
C32   C     C_R   0.304034 0.695676 0.750138 -0.063353
C33   C     C_R   0.695793 0.695843 0.250096 -0.067591
C34   C     C_R   0.695794 0.695843 0.749904 -0.067569
C35   C     C_R   0.769014 0.213928 0.795976 -0.197025
C36   C     C_R   0.768997 0.213912 0.204027 -0.197028
C37   C     C_R   0.268570 0.176293 0.758369 -0.184860
C38   C     C_R   0.268570 0.176293 0.241634 -0.184853
C39   C     C_R   0.231430 0.676293 0.258370 -0.184847
C40   C     C_R   0.140043 0.139918 0.250014 0.822058
C41   C     C_R   0.231432 0.676294 0.741622 -0.184855
C42   C     C_R   0.731025 0.713890 0.295967 -0.197126
C43   C     C_R   0.731001 0.713913 0.704028 -0.197128
C44   C     C_R   0.177278 0.729361 0.257772 -0.059264
C45   C     C_R   0.177279 0.729362 0.742220 -0.059266
C46   C     C_R   0.784068 0.768054 0.296501 -0.046815
C47   C     C_R   0.784045 0.768077 0.703495 -0.046804
C48   C     C_R   0.715970 0.268093 0.796508 -0.046807
C49   C     C_R   0.715954 0.268077 0.203494 -0.046812
C50   C     C_R   0.322722 0.229361 0.757770 -0.059269
C51   C     C_R   0.140044 0.139918 0.749985 0.822060
C52   C     C_R   0.322722 0.229361 0.242232 -0.059266
C53   C     C_R   0.196522 0.803436 0.249997 -0.120059
C54   C     C_R   0.196522 0.803436 0.750003 -0.120066
C55   C     C_R   0.803623 0.803284 0.249944 -0.126037
C56   C     C_R   0.803624 0.803284 0.750056 -0.126019
C57   C     C_R   0.696378 0.303285 0.749945 -0.126020
C58   C     C_R   0.696378 0.303285 0.250055 -0.126032
C59   C     C_R   0.303478 0.303436 0.749996 -0.120075
C60   C     C_R   0.303478 0.303436 0.250003 -0.120067
C61   C     C_R   0.042911 0.948595 0.026964 -0.060928
C62   C     C_R   0.359957 0.639918 0.750014 0.822051
C63   C     C_R   0.042901 0.948588 0.973035 -0.060904
C64   C     C_R   0.956923 0.051131 0.026962 -0.051197
C65   C     C_R   0.956928 0.051135 0.973037 -0.051199
C66   C     C_R   0.543402 0.550855 0.526958 -0.051335
C67   C     C_R   0.543388 0.550867 0.473038 -0.051350
C68   C     C_R   0.456767 0.448861 0.526959 -0.061169
C69   C     C_R   0.456812 0.448825 0.473033 -0.061064
C70   C     C_R   0.999951 0.999893 0.946175 -0.091670
C71   C     C_R   0.999953 0.999894 0.053824 -0.091679
C72   C     C_R   0.500059 0.499882 0.446174 -0.091769
C73   C     C_R   0.359956 0.639918 0.249985 0.822046
C74   C     C_R   0.500046 0.499891 0.553822 -0.091817
C75   C     C_R   0.140319 0.859995 0.250108 0.835063
C76   C     C_R   0.140320 0.859995 0.749892 0.835064
C77   C     C_R   0.860014 0.859659 0.249791 0.829978
C78   C     C_R   0.860014 0.859660 0.750209 0.829990
C79   C     C_R   0.639987 0.359660 0.749791 0.830004
C80   C     C_R   0.639987 0.359660 0.250209 0.830001
C81   C     C_R   0.359681 0.359995 0.750108 0.835041
C82   C     C_R   0.359681 0.359995 0.249892 0.835050
C83   C     C_R   0.999992 0.999945 0.110014 0.803038
C84   C     C_R   0.639966 0.639994 0.749929 0.813808
C85   C     C_R   0.999992 0.999945 0.889985 0.803051
C86   C     C_R   0.500007 0.499942 0.610013 0.802938
C87   C     C_R   0.500010 0.499942 0.389985 0.802960
C88   C     C_R   0.999897 0.000035 0.389880 0.836223
C89   C     C_R   0.999897 0.000035 0.610120 0.836222
C90   C     C_R   0.500103 0.500035 0.889880 0.836244
C91   C     C_R   0.500103 0.500035 0.110120 0.836244
C92   C     C_R   0.999574 0.063791 0.473985 -0.043173
C93   C     C_R   0.999574 0.063791 0.526014 -0.043176
C94   C     C_R   0.500431 0.563790 0.973985 -0.043170
C95   C     C_R   0.639965 0.639994 0.250071 0.813836
C96   C     C_R   0.500431 0.563791 0.026014 -0.043169
C97   C     C_R   0.999626 0.999540 0.445495 -0.032540
C98   C     C_R   0.999627 0.999540 0.554505 -0.032538
C99   C     C_R   0.500372 0.499540 0.945495 -0.032540
C100  C     C_R   0.500372 0.499540 0.054505 -0.032540
C101  C     C_R   0.999407 0.933075 0.472986 -0.180609
C102  C     C_R   0.999407 0.933075 0.527015 -0.180605
C103  C     C_R   0.500583 0.433075 0.972986 -0.180584
C104  C     C_R   0.500583 0.433075 0.027014 -0.180586
C105  C     C_3   0.999561 0.145086 0.530082 0.395598
C106  C     C_R   0.785901 0.230854 0.704199 -0.175515
C107  C     C_3   0.999561 0.145086 0.469918 0.395597
C108  C     C_3   0.500458 0.645085 0.030082 0.395591
C109  C     C_3   0.500459 0.645085 0.969918 0.395591
C110  C     C_R   0.270468 0.822548 0.242198 0.277419
C111  C     C_R   0.270467 0.822547 0.757811 0.277416
C112  C     C_R   0.768440 0.783569 0.203507 0.271239
C113  C     C_R   0.768468 0.783544 0.796497 0.271237
C114  C     C_R   0.731524 0.283535 0.703503 0.271237
C115  C     C_R   0.731541 0.283550 0.296495 0.271240
C116  C     C_R   0.229533 0.322547 0.742196 0.277436
H1    H     H_    0.999282 0.881181 0.453018 0.185159
H2    H     H_    0.379948 0.783202 0.764443 0.191407
H3    H     H_    0.687389 0.715755 0.168531 0.214100
H4    H     H_    0.687435 0.715711 0.831478 0.214076
H5    H     H_    0.784193 0.186931 0.831583 0.179800
H6    H     H_    0.784161 0.186902 0.168422 0.179812
H7    H     H_    0.283135 0.119494 0.764273 0.194555
H8    H     H_    0.283135 0.119493 0.235732 0.194555
H9    H     H_    0.216864 0.619493 0.264274 0.194557
H10   H     H_    0.216866 0.619495 0.735711 0.194560
H11   H     H_    0.715877 0.686862 0.331569 0.179872
H12   H     H_    0.999282 0.881181 0.546982 0.185157
H13   H     H_    0.715834 0.686904 0.668423 0.179861
H14   H     H_    0.500702 0.381181 0.953018 0.185153
H15   H     H_    0.500702 0.381181 0.046982 0.185155
H16   H     H_    0.812545 0.215693 0.668520 0.214059
H17   H     H_    0.812576 0.215720 0.331475 0.214076
H18   H     H_    0.120051 0.283203 0.735569 0.191411
H19   H     H_    0.120050 0.283204 0.264425 0.191406
H20   H     H_    0.379949 0.783205 0.235571 0.191398
N1    N     N_1   0.042611 0.686534 0.268037 -0.152178
N2    N     N_1   0.118668 0.850782 0.923197 -0.145080
N3    N     N_1   0.881031 0.148898 0.076742 -0.195161
N4    N     N_1   0.881057 0.148919 0.923256 -0.195174
N5    N     N_1   0.619952 0.648137 0.576713 -0.195031
N6    N     N_1   0.619857 0.648211 0.423284 -0.195045
N7    N     N_1   0.380218 0.351637 0.576769 -0.144619
N8    N     N_1   0.380556 0.351378 0.423215 -0.144794
N9    N     N_1   0.042614 0.686536 0.731940 -0.152164
N10   N     N_1   0.840455 0.803520 0.385057 -0.172369
N11   N     N_1   0.840388 0.803591 0.614935 -0.172379
N12   N     N_1   0.659651 0.303635 0.885070 -0.172361
N13   N     N_1   0.659611 0.303594 0.114935 -0.172356
N14   N     N_1   0.457389 0.186535 0.768031 -0.152197
N15   N     N_1   0.457390 0.186534 0.231976 -0.152196
N16   N     N_1   0.118745 0.850840 0.076801 -0.145049
O1    O     O_3   1.000000 0.000010 0.249960 -0.517974
O2    O     O_R   0.414520 0.646190 0.219700 -0.617773
O3    O     O_R   0.585480 0.646190 0.780300 -0.623727
O4    O     O_R   0.585480 0.646190 0.219700 -0.623739
O5    O     O_R   0.085460 0.853840 0.280340 -0.644472
O6    O     O_R   0.085460 0.853840 0.719660 -0.644474
O7    O     O_R   0.914540 0.853840 0.280340 -0.639516
O8    O     O_R   0.914540 0.853840 0.719660 -0.639507
O9    O     O_R   0.585460 0.353840 0.780340 -0.639510
O10   O     O_R   0.585460 0.353840 0.219660 -0.639513
O11   O     O_R   0.414540 0.353840 0.780340 -0.644459
O12   O     O_3   0.000000 0.000010 0.750040 -0.517976
O13   O     O_R   0.414540 0.353840 0.219660 -0.644461
O14   O     O_R   0.853820 0.914550 0.219610 -0.596797
O15   O     O_R   0.853820 0.914550 0.780390 -0.596805
O16   O     O_R   0.146180 0.914550 0.219610 -0.591528
O17   O     O_R   0.146180 0.914550 0.780390 -0.591526
O18   O     O_R   0.353820 0.414550 0.719610 -0.591532
O19   O     O_R   0.353820 0.414550 0.280390 -0.591533
O20   O     O_R   0.646180 0.414550 0.719610 -0.596785
O21   O     O_R   0.646180 0.414550 0.280390 -0.596786
O22   O     O_R   0.146170 0.085440 0.219600 -0.628709
O23   O     O_3   0.500000 0.500010 0.749960 -0.517958
O24   O     O_R   0.146170 0.085440 0.780400 -0.628711
O25   O     O_R   0.853830 0.085440 0.219600 -0.635855
O26   O     O_R   0.853830 0.085440 0.780400 -0.635854
O27   O     O_R   0.646170 0.585440 0.719600 -0.635834
O28   O     O_R   0.646170 0.585440 0.280400 -0.635845
O29   O     O_R   0.353830 0.585440 0.719600 -0.628722
O30   O     O_R   0.353830 0.585440 0.280400 -0.628718
O31   O     O_R   0.939270 0.999980 0.134160 -0.612503
O32   O     O_R   0.939270 0.999980 0.865840 -0.612503
O33   O     O_R   0.060730 0.999980 0.134160 -0.636996
O34   O     O_3   0.500000 0.500010 0.250040 -0.517961
O35   O     O_R   0.060730 0.999980 0.865840 -0.636992
O36   O     O_R   0.439270 0.499980 0.634160 -0.637075
O37   O     O_R   0.439270 0.499980 0.365840 -0.637054
O38   O     O_R   0.560730 0.499980 0.634160 -0.612537
O39   O     O_R   0.560730 0.499980 0.365840 -0.612557
O40   O     O_R   0.000000 0.060760 0.365760 -0.595548
O41   O     O_R   1.000000 0.060760 0.634240 -0.595549
O42   O     O_R   0.500000 0.560760 0.865760 -0.595545
O43   O     O_R   0.500000 0.560760 0.134240 -0.595545
O44   O     O_R   0.000000 0.939310 0.365770 -0.653533
O45   O     O_R   0.914520 0.146190 0.280300 -0.623719
O46   O     O_R   0.000000 0.939310 0.634230 -0.653534
O47   O     O_R   0.500000 0.439310 0.865770 -0.653528
O48   O     O_R   0.500000 0.439310 0.134230 -0.653528
O49   O     O_R   0.914520 0.146190 0.719700 -0.623711
O50   O     O_R   0.085480 0.146190 0.280300 -0.617771
O51   O     O_R   0.085480 0.146190 0.719700 -0.617772
O52   O     O_R   0.414520 0.646190 0.780300 -0.617776
Zn1   Zn    Zn3+2 0.000000 0.913260 0.293350 1.002259
Zn2   Zn    Zn3+2 0.413230 0.500000 0.293420 1.028699
Zn3   Zn    Zn3+2 0.586770 0.500000 0.706580 1.030222
Zn4   Zn    Zn3+2 0.586770 0.500000 0.293420 1.030223
Zn5   Zn    Zn3+2 1.000000 0.086780 0.293330 1.041021
Zn6   Zn    Zn3+2 1.000000 0.086780 0.706670 1.041020
Zn7   Zn    Zn3+2 0.500000 0.586780 0.793330 1.041000
Zn8   Zn    Zn3+2 0.500000 0.586780 0.206670 1.041001
Zn9   Zn    Zn3+2 0.000000 0.913260 0.706650 1.002262
Zn10  Zn    Zn3+2 0.500000 0.413260 0.793350 1.002276
Zn11  Zn    Zn3+2 0.500000 0.413260 0.206650 1.002276
Zn12  Zn    Zn3+2 0.913230 0.000000 0.206580 1.030254
Zn13  Zn    Zn3+2 0.913230 1.000000 0.793420 1.030254
Zn14  Zn    Zn3+2 0.086770 0.000000 0.206580 1.028766
Zn15  Zn    Zn3+2 0.086770 1.000000 0.793420 1.028773
Zn16  Zn    Zn3+2 0.413230 0.500000 0.706580 1.028686

loop_
_geom_bond_atom_site_label_1
_geom_bond_atom_site_label_2
_ccdc_geom_bond_type
C54   C111  A    
C42   C46   A    
O27   Zn3   S    
C39   H9    S    
O2    Zn8   S    
C33   C42   A    
O47   Zn10  S    
C29   O49   A    
O42   Zn7   S    
O34   Zn2   S    
C1    O25   A    
Br10  C105  S    
O5    Zn1   S    
C40   O50   A    
C2    C27   A    
O21   Zn4   S    
C26   C35   A    
C56   C113  A    
C45   C54   A    
C103  H14   S    
C16   C65   S    
C69   C72   A    
C41   H10   S    
C34   C43   A    
C3    C60   A    
O30   Zn2   S    
C87   O39   A    
C73   O2    A    
C96   C108  S    
C64   C71   A    
C102  H12   S    
C6    N10   T    
C27   C36   A    
C81   O11   A    
C13   C116  A    
C91   O43   A    
C50   C59   A    
C60   C82   S    
C24   C33   A    
C90   O42   A    
O37   Zn2   S    
C59   C81   S    
O48   Zn11  S    
C89   O41   A    
C92   C93   A    
C75   O5    A    
C78   O8    A    
C95   O4    A    
C32   C62   S    
C86   O36   A    
C74   C86   S    
C11   C52   S    
C3    C21   A    
C62   O52   A    
C13   H18   S    
C16   N4    T    
C28   C37   A    
C79   O9    A    
C38   H8    S    
C91   O48   A    
O12   Zn15  S    
C36   H6    S    
C48   C57   A    
C18   N6    T    
O22   Zn14  S    
C62   O29   A    
C106  H16   S    
C4    C44   S    
C2    H17   S    
C17   C66   S    
O50   Zn5   S    
C5    C45   S    
C65   C70   A    
C95   O28   A    
C33   C95   S    
C56   C78   S    
Br2   C111  S    
C35   H5    S    
C7    C47   S    
C67   C72   A    
C101  H1    S    
O39   Zn4   S    
C8    C48   S    
C39   C44   A    
C83   O33   A    
C84   O3    A    
C31   C73   S    
C2    C115  A    
C8    N12   T    
C68   C74   A    
C21   H19   S    
O18   Zn16  S    
C1    O45   A    
C42   H11   S    
C22   H20   S    
C22   C110  A    
O29   Zn16  S    
C17   N5    T    
C79   O20   A    
C7    N11   T    
O44   Zn1   S    
C61   C63   A    
C81   O18   A    
C24   H3    S    
O1    Zn1   S    
O12   Zn9   S    
C85   O32   A    
Br8   C3    S    
Br14  C108  S    
C4    N1    T    
C10   C50   S    
C58   C80   S    
C89   C98   S    
C32   C41   A    
C23   C111  A    
C68   C69   A    
C15   C64   S    
C18   C67   S    
O1    Zn14  S    
O46   Zn9   S    
O9    Zn10  S    
C20   N8    T    
C51   O24   A    
C64   C65   A    
O34   Zn8   S    
C76   O6    A    
O23   Zn16  S    
C77   O7    A    
C49   C58   A    
C100  C104  A    
O52   Zn7   S    
C26   C29   S    
C92   C97   A    
O31   Zn12  S    
C1    C27   S    
O35   Zn15  S    
C82   O19   A    
C73   O30   A    
O34   Zn4   S    
O40   Zn5   S    
C6    C46   S    
C77   O14   A    
Br12  C108  S    
O38   Zn3   S    
C19   C68   S    
C38   C52   A    
C30   C38   A    
C90   O47   A    
O7    Zn1   S    
C9    C49   S    
C40   O22   A    
O28   Zn4   S    
O32   Zn13  S    
O11   Zn10  S    
C12   C61   S    
C86   O38   A    
O16   Zn14  S    
Br7   C116  S    
C98   C102  A    
C93   C98   A    
O15   Zn13  S    
C97   C101  A    
C14   C63   S    
C43   H13   S    
O14   Zn12  S    
Br5   C114  S    
O17   Zn15  S    
C80   O21   A    
O3    Zn7   S    
O12   Zn13  S    
C99   C103  A    
O43   Zn8   S    
C13   C28   A    
C85   O35   A    
O1    Zn5   S    
C55   C112  A    
O41   Zn6   S    
C88   O44   A    
O26   Zn13  S    
C30   C40   S    
O23   Zn3   S    
C25   C34   A    
C96   C100  A    
C72   C87   S    
C59   C116  A    
C26   C106  A    
O24   Zn15  S    
C31   C39   A    
C84   O27   A    
Br11  C107  S    
C29   O26   A    
C58   C115  A    
C57   C114  A    
C10   N14   T    
O23   Zn7   S    
C89   O46   A    
C76   O17   A    
Br1   C105  S    
C11   N15   T    
C37   H7    S    
C43   C47   A    
C5    N9    T    
C54   C76   S    
C35   C48   A    
C87   O37   A    
Br6   C115  S    
C23   C32   A    
C53   C110  A    
C15   N3    T    
C103  C104  A    
C41   C45   A    
Br4   C113  S    
C55   C77   S    
O19   Zn2   S    
C20   C69   S    
C52   C60   A    
O49   Zn6   S    
C34   C84   S    
C66   C74   A    
O1    Zn12  S    
C22   C31   A    
C90   C99   S    
C9    N13   T    
C82   O13   A    
C51   O51   A    
Br3   C112  S    
Br13  C109  S    
O10   Zn11  S    
O36   Zn16  S    
C37   C50   A    
C101  C102  A    
C25   C113  A    
O4    Zn8   S    
C93   C105  S    
O33   Zn14  S    
Br16  C110  S    
C44   C53   A    
O13   Zn11  S    
O23   Zn10  S    
O8    Zn9   S    
C63   C70   A    
O12   Zn6   S    
Br9   C107  S    
C46   C55   A    
C88   O40   A    
O51   Zn6   S    
O6    Zn9   S    
C94   C96   A    
C91   C100  S    
C105  C107  S    
C19   N7    T    
O45   Zn5   S    
C12   N16   T    
C94   C109  S    
C88   C97   S    
C71   C83   S    
C14   N2    T    
O20   Zn3   S    
C47   C56   A    
C61   C71   A    
C104  H15   S    
C66   C67   A    
C78   O15   A    
C83   O31   A    
C57   C79   S    
O34   Zn11  S    
C28   C51   S    
C92   C107  S    
O25   Zn12  S    
C80   O10   A    
C21   C30   A    
C53   C75   S    
C70   C85   S    
Br15  C109  S    
C94   C99   A    
C106  C114  A    
C25   H4    S    
C36   C49   A    
C75   O16   A    
C108  C109  S    
C23   H2    S    
C24   C112  A    
