data_mof_unit_23118.cif
_audit_creation_date              2012-12-10T18:44:30-0500
_audit_creation_method            fapswitch 2.2
_symmetry_space_group_name_H-M    P1
_symmetry_Int_Tables_number       1
_space_group_crystal_system       triclinic
_cell_length_a                    12.856286
_cell_length_b                    10.625653
_cell_length_c                    9.855189
_cell_angle_alpha                 90.169381
_cell_angle_beta                  97.516867
_cell_angle_gamma                 90.036343
_cell_volume                      1334.7062649

loop_
_atom_site_label
_atom_site_type_symbol
_atom_type_description
_atom_site_fract_x
_atom_site_fract_y
_atom_site_fract_z
_atom_type_partial_charge
Br1   Br    Br    0.965753 0.665631 0.177487 -0.471925
Br2   Br    Br    0.015160 0.255822 0.774509 -0.464518
Br3   Br    Br    0.307123 0.143527 0.300515 -0.480032
Br4   Br    Br    0.692830 0.856543 0.699740 -0.464158
C1    C     C_R   0.497995 0.260251 0.499444 0.928051
C2    C     C_R   0.701553 0.501238 0.527247 0.939008
C3    C     C_R   0.813316 0.493397 0.544084 -0.082841
C4    C     C_R   0.186117 0.493610 0.453899 -0.088881
C5    C     C_R   0.026405 0.580797 0.341734 0.279104
C6    C     C_R   0.966942 0.379605 0.637579 0.283783
C7    C     C_R   0.133057 0.565282 0.350268 -0.234201
C8    C     C_R   0.861620 0.405334 0.634091 -0.233812
C9    C     C_R   0.133696 0.422843 0.542768 0.068701
C10   C     C_R   0.867779 0.561134 0.455966 0.069052
C11   C     C_R   0.025054 0.441132 0.542912 0.002433
C12   C     C_R   0.502052 0.739755 0.500568 0.930476
C13   C     C_R   0.972231 0.528701 0.445205 -0.000704
C14   C     C_R   0.420652 0.062124 0.413297 0.273939
C15   C     C_R   0.579391 0.937911 0.586771 0.276392
C16   C     C_R   0.424097 0.932886 0.414186 -0.235497
C17   C     C_R   0.575978 0.067150 0.585828 -0.235152
C18   C     C_R   0.502596 0.872070 0.500802 -0.139470
C19   C     C_R   0.497469 0.127953 0.499223 -0.137689
C20   C     C_R   0.561865 0.582009 0.082649 -0.042681
C21   C     C_R   0.438087 0.418031 0.917333 -0.048528
C22   C     C_R   0.561944 0.581854 0.938897 -0.030884
C23   C     C_R   0.438040 0.418156 0.061098 -0.037770
C24   C     C_R   0.298366 0.496962 0.472642 0.938104
H1    H     H_    0.815812 0.353793 0.700478 0.195468
H2    H     H_    0.789428 0.647872 0.287995 0.237329
H3    H     H_    0.166000 0.243359 0.609129 0.251923
H4    H     H_    0.196303 0.361188 0.732054 0.235026
H5    H     H_    0.175586 0.612256 0.276872 0.198901
H6    H     H_    0.364724 0.879727 0.349656 0.187087
H7    H     H_    0.635363 0.120322 0.650335 0.187342
H8    H     H_    0.611152 0.647844 0.145548 0.146030
H9    H     H_    0.388699 0.352297 0.854392 0.150379
H10   H     H_    0.611577 0.647241 0.893208 0.180636
H11   H     H_    0.388391 0.352789 0.106789 0.179715
H12   H     H_    0.867068 0.746831 0.399708 0.245985
N1    N     N_R   0.499970 0.499970 0.857200 -0.096214
N2    N     N_R   0.500030 0.500030 0.142800 -0.095929
N3    N     N_3   0.816715 0.669122 0.389859 -0.423332
N4    N     N_3   0.194444 0.334458 0.629722 -0.428371
O1    O     O_R   0.499990 0.316750 0.614620 -0.625921
O2    O     O_R   0.500010 0.683250 0.385380 -0.626337
O3    O     O_R   0.499990 0.316780 0.385290 -0.593634
O4    O     O_R   0.500010 0.683220 0.614710 -0.594994
O5    O     O_R   0.346360 0.499970 0.595710 -0.608952
O6    O     O_R   0.653640 0.500030 0.404290 -0.616642
O7    O     O_R   0.346360 0.499990 0.366380 -0.617208
O8    O     O_R   0.653640 0.500010 0.633620 -0.612430
Zn1   Zn    Zn3+2 0.500000 0.499980 0.653120 0.993394
Zn2   Zn    Zn3+2 0.500000 0.500020 0.346880 0.990449

loop_
_geom_bond_atom_site_label_1
_geom_bond_atom_site_label_2
_ccdc_geom_bond_type
C21   H9    S    
C2    C3    S    
C17   H7    S    
C8    H1    S    
C21   C23   A    
C20   N2    A    
C24   O5    A    
C1    C19   S    
C10   C13   A    
O7    Zn2   S    
C16   H6    S    
C12   O4    A    
C9    C11   A    
H4    N4    S    
O1    Zn1   S    
C20   H8    S    
C2    O6    A    
C23   H11   S    
C9    N4    S    
C5    C7    A    
C23   N2    A    
O2    Zn2   S    
O6    Zn2   S    
C6    C8    A    
C4    C7    A    
O5    Zn1   S    
C5    C13   A    
C15   C17   A    
C20   C22   A    
C14   C16   A    
C6    C11   A    
C3    C10   A    
C17   C19   A    
O4    Zn1   S    
C4    C24   S    
C24   O7    A    
H2    N3    S    
H3    N4    S    
C21   N1    A    
C14   C19   A    
C1    O3    A    
C4    C9    A    
C2    O8    A    
C7    H5    S    
C15   C18   A    
Br1   C5    S    
O8    Zn1   S    
Br3   C14   S    
C12   O2    A    
C11   C13   A    
C22   H10   S    
C12   C18   S    
N1    Zn1   S    
O3    Zn2   S    
C3    C8    A    
Br4   C15   S    
C1    O1    A    
H12   N3    S    
N2    Zn2   S    
C22   N1    A    
C16   C18   A    
C10   N3    S    
Br2   C6    S    
