data_mof_unit_60615.cif
_audit_creation_date              2012-12-10T20:32:52-0500
_audit_creation_method            fapswitch 2.2
_symmetry_space_group_name_H-M    P1
_symmetry_Int_Tables_number       1
_space_group_crystal_system       triclinic
_cell_length_a                    28.079665
_cell_length_b                    28.079614
_cell_length_c                    34.525348
_cell_angle_alpha                 89.975202
_cell_angle_beta                  89.975275
_cell_angle_gamma                 89.962475
_cell_volume                      27222.0574493

loop_
_atom_site_label
_atom_site_type_symbol
_atom_type_description
_atom_site_fract_x
_atom_site_fract_y
_atom_site_fract_z
_atom_type_partial_charge
C1    C     C_R   0.800781 0.699219 0.750000 -0.356779
C2    C     C_R   0.198347 0.698338 0.749994 -0.363704
C3    C     C_1   0.266187 0.763644 0.249152 0.288114
C4    C     C_1   0.235365 0.264635 0.750000 0.299832
C5    C     C_1   0.764368 0.735628 0.249999 0.301933
C6    C     C_1   0.264757 0.764768 0.750018 0.289536
C7    C     C_1   0.736355 0.233816 0.250847 0.288115
C8    C     C_1   0.766652 0.264024 0.250831 0.286375
C9    C     C_1   0.234488 0.734490 0.750008 0.286921
C10   C     C_1   0.734124 0.765872 0.250000 0.297022
C11   C     C_1   0.265639 0.234361 0.750000 0.296481
C12   C     C_1   0.235979 0.733346 0.249167 0.286376
C13   C     C_R   0.698039 0.801958 0.250000 -0.363571
C14   C     C_1   0.765510 0.265512 0.749992 0.286921
C15   C     C_1   0.265094 0.234908 0.249999 0.295477
C16   C     C_1   0.734361 0.765639 0.750000 0.296388
C17   C     C_R   0.072183 0.451555 0.979930 0.625281
C18   C     C_R   0.927940 0.548543 0.020071 0.624785
C19   C     C_R   0.547988 0.927538 0.979939 0.624381
C20   C     C_R   0.452003 0.072446 0.020061 0.624415
C21   C     C_R   0.927924 0.548515 0.979941 0.624726
C22   C     C_R   0.072192 0.451570 0.020062 0.624709
C23   C     C_R   0.451989 0.072440 0.979928 0.624402
C24   C     C_R   0.301776 0.198224 0.750000 -0.364873
C25   C     C_R   0.548001 0.927544 0.020072 0.624366
C26   C     C_R   0.572445 0.951981 0.479928 0.624365
C27   C     C_R   0.427571 0.048029 0.520072 0.624405
C28   C     C_R   0.048421 0.427801 0.479938 0.624710
C29   C     C_R   0.951495 0.572082 0.520059 0.624725
C30   C     C_R   0.427565 0.048015 0.479939 0.624415
C31   C     C_R   0.572451 0.951995 0.520061 0.624381
C32   C     C_R   0.951467 0.572066 0.479929 0.624782
C33   C     C_R   0.048435 0.427810 0.520070 0.625281
C34   C     C_R   0.962924 0.522826 0.917963 0.387067
C35   C     C_R   0.199626 0.697474 0.249294 -0.364062
C36   C     C_R   0.037139 0.477184 0.082046 0.384766
C37   C     C_R   0.477335 0.037206 0.917945 0.385079
C38   C     C_R   0.522662 0.962784 0.082056 0.384988
C39   C     C_R   0.037111 0.477138 0.917949 0.386952
C40   C     C_R   0.962979 0.522922 0.082048 0.387157
C41   C     C_R   0.522613 0.962765 0.917953 0.385122
C42   C     C_R   0.477384 0.037225 0.082046 0.385040
C43   C     C_R   0.462779 0.022622 0.417954 0.385046
C44   C     C_R   0.537231 0.977381 0.582047 0.385128
C45   C     C_R   0.977082 0.537023 0.417951 0.387152
C46   C     C_R   0.801662 0.301652 0.750006 -0.363705
C47   C     C_R   0.022858 0.462887 0.582051 0.386949
C48   C     C_R   0.537212 0.977331 0.417944 0.384993
C49   C     C_R   0.462798 0.022672 0.582055 0.385084
C50   C     C_R   0.022812 0.462859 0.417953 0.384765
C51   C     C_R   0.977177 0.537078 0.582037 0.387064
C52   C     C_R   0.000010 0.499975 0.898020 -0.254286
C53   C     C_R   0.000045 0.500037 0.101983 -0.256189
C54   C     C_R   0.499974 0.999987 0.898016 -0.255814
C55   C     C_R   0.500026 0.000005 0.101984 -0.255893
C56   C     C_R   0.499994 0.999974 0.398016 -0.255898
C57   C     C_R   0.301359 0.198642 0.249999 -0.364794
C58   C     C_R   0.500013 0.000026 0.601984 -0.255822
C59   C     C_R   0.999963 0.499955 0.398017 -0.256184
C60   C     C_R   0.000025 0.499990 0.601980 -0.254282
C61   C     C_R   0.036828 0.476021 0.958860 -0.168347
C62   C     C_R   0.963277 0.524052 0.041141 -0.167457
C63   C     C_R   0.523742 0.963047 0.958863 -0.168927
C64   C     C_R   0.476251 0.036940 0.041137 -0.168954
C65   C     C_R   0.963248 0.524000 0.958868 -0.168274
C66   C     C_R   0.036846 0.476051 0.041138 -0.170798
C67   C     C_R   0.476224 0.036929 0.958856 -0.169038
C68   C     C_R   0.698223 0.801777 0.750000 -0.364747
C69   C     C_R   0.523770 0.963058 0.041144 -0.169104
C70   C     C_R   0.536937 0.976222 0.458856 -0.169104
C71   C     C_R   0.463077 0.023785 0.541143 -0.169040
C72   C     C_R   0.023944 0.463151 0.458862 -0.170798
C73   C     C_R   0.976004 0.536755 0.541132 -0.168271
C74   C     C_R   0.463065 0.023757 0.458863 -0.168957
C75   C     C_R   0.536948 0.976249 0.541137 -0.168929
C76   C     C_R   0.975953 0.536726 0.458859 -0.167454
C77   C     C_R   0.023975 0.463169 0.541141 -0.168346
C78   C     C_R   0.499991 0.999998 0.855695 0.930153
C79   C     C_R   0.848446 0.711824 0.755255 0.615249
C80   C     C_R   0.500009 0.999999 0.144305 0.930149
C81   C     C_R   0.000007 0.499990 0.855697 0.930366
C82   C     C_R   0.000017 0.500010 0.144304 0.929666
C83   C     C_R   0.999990 0.499983 0.355696 0.929669
C84   C     C_R   0.000009 0.499993 0.644303 0.930370
C85   C     C_R   0.500001 0.999991 0.355695 0.930143
C86   C     C_R   0.500002 0.000009 0.644305 0.930145
C87   C     C_R   0.409005 0.909011 0.750007 0.980505
C88   C     C_R   0.591027 0.090919 0.250040 0.980778
C89   C     C_R   0.908984 0.591016 0.750000 0.994857
C90   C     C_R   0.157232 0.295556 0.272327 0.625555
C91   C     C_R   0.090808 0.409192 0.250000 1.018846
C92   C     C_R   0.590989 0.090995 0.749993 0.980505
C93   C     C_R   0.409081 0.908973 0.249960 0.980778
C94   C     C_R   0.091022 0.408978 0.750000 0.995484
C95   C     C_R   0.908893 0.591106 0.250000 0.983840
C96   C     C_R   0.409153 0.090847 0.250000 1.010806
C97   C     C_R   0.590773 0.909227 0.750000 1.011959
C98   C     C_R   0.909184 0.409076 0.250034 0.985220
C99   C     C_R   0.090814 0.590805 0.749995 0.994756
C100  C     C_R   0.590745 0.909255 0.250000 1.013559
C101  C     C_R   0.711895 0.151193 0.753488 0.608482
C102  C     C_R   0.409221 0.090779 0.750000 1.012412
C103  C     C_R   0.090924 0.590816 0.249966 0.985196
C104  C     C_R   0.909195 0.409186 0.750005 0.994757
C105  C     C_R   0.000045 0.500021 0.979398 -0.138313
C106  C     C_R   0.000056 0.500040 0.020605 -0.137733
C107  C     C_R   0.499990 0.999990 0.979395 -0.137813
C108  C     C_R   0.500004 0.999996 0.020605 -0.137789
C109  C     C_R   0.500004 0.999996 0.479395 -0.137787
C110  C     C_R   0.500010 0.000010 0.520605 -0.137810
C111  C     C_R   0.999959 0.499944 0.479395 -0.137732
C112  C     C_R   0.198478 0.301523 0.249999 -0.366386
C113  C     C_R   0.288775 0.847836 0.245952 0.608598
C114  C     C_R   0.999979 0.499955 0.520602 -0.138313
C115  C     C_R   0.151559 0.288174 0.755310 0.615376
C116  C     C_R   0.846919 0.711022 0.239199 0.611694
C117  C     C_R   0.288090 0.848817 0.753545 0.608568
C118  C     C_R   0.712423 0.149990 0.247305 0.608675
C119  C     C_R   0.850561 0.287998 0.254460 0.613270
C120  C     C_R   0.152300 0.709260 0.737254 0.617757
C121  C     C_R   0.707628 0.846614 0.266196 0.626036
C122  C     C_R   0.291823 0.153145 0.734730 0.625889
C123  C     C_R   0.151880 0.710736 0.253375 0.613186
C124  C     C_R   0.699080 0.199092 0.749973 -0.359283
C125  C     C_R   0.847727 0.290738 0.737277 0.617885
C126  C     C_R   0.291145 0.153153 0.264426 0.624513
C127  C     C_R   0.708189 0.846872 0.734728 0.625754
C128  C     C_R   0.346848 0.208855 0.235572 0.624512
C129  C     C_R   0.653128 0.791810 0.765273 0.625754
C130  C     C_R   0.212005 0.649436 0.245555 0.613262
C131  C     C_R   0.790740 0.347700 0.762746 0.617758
C132  C     C_R   0.653382 0.792370 0.233803 0.626034
C133  C     C_R   0.346855 0.208177 0.765269 0.625888
C134  C     C_R   0.789265 0.348122 0.246608 0.613199
C135  C     C_R   0.302028 0.800033 0.249229 -0.361553
C136  C     C_R   0.209262 0.652273 0.762723 0.617884
C137  C     C_R   0.348807 0.788104 0.746512 0.608480
C138  C     C_R   0.652163 0.211226 0.254046 0.608597
C139  C     C_R   0.211826 0.348441 0.744691 0.615378
C140  C     C_R   0.788975 0.653076 0.260799 0.611696
C141  C     C_R   0.651183 0.211910 0.746454 0.608569
C142  C     C_R   0.350011 0.787576 0.252695 0.608674
C143  C     C_R   0.788176 0.651554 0.744745 0.615247
C144  C     C_R   0.204444 0.342770 0.227672 0.625557
C145  C     C_R   0.883927 0.676831 0.755278 0.278871
C146  C     C_R   0.199221 0.300779 0.750000 -0.356729
C147  C     C_R   0.121865 0.330751 0.272414 0.266825
C148  C     C_R   0.676900 0.115738 0.753501 0.267701
C149  C     C_R   0.323441 0.883585 0.246166 0.266858
C150  C     C_R   0.116078 0.323166 0.755332 0.278913
C151  C     C_R   0.882433 0.676095 0.239122 0.283169
C152  C     C_R   0.323088 0.884271 0.753556 0.267685
C153  C     C_R   0.677128 0.114861 0.247076 0.267102
C154  C     C_R   0.885630 0.323372 0.254221 0.261357
C155  C     C_R   0.116962 0.674154 0.737186 0.260346
C156  C     C_R   0.672524 0.881933 0.266269 0.271423
C157  C     C_R   0.800464 0.699532 0.249999 -0.354255
C158  C     C_R   0.326944 0.117801 0.734666 0.270596
C159  C     C_R   0.116197 0.676030 0.253680 0.262798
C160  C     C_R   0.883071 0.325840 0.737223 0.260348
C161  C     C_R   0.326312 0.117756 0.264479 0.269549
C162  C     C_R   0.673068 0.882216 0.734663 0.270616
C163  C     C_R   0.382244 0.173688 0.235520 0.269549
C164  C     C_R   0.617784 0.826931 0.765337 0.270615
C165  C     C_R   0.176631 0.614367 0.245794 0.261372
C166  C     C_R   0.825846 0.383037 0.762814 0.260346
C167  C     C_R   0.618064 0.827476 0.233730 0.271424
C168  C     C_R   0.300908 0.800920 0.750027 -0.359281
C169  C     C_R   0.382199 0.173056 0.765333 0.270596
C170  C     C_R   0.823972 0.383803 0.246303 0.262793
C171  C     C_R   0.174160 0.616929 0.762777 0.260347
C172  C     C_R   0.384262 0.823100 0.746499 0.267704
C173  C     C_R   0.616414 0.176560 0.253833 0.266861
C174  C     C_R   0.176834 0.383922 0.744668 0.278912
C175  C     C_R   0.823904 0.617563 0.260875 0.283172
C176  C     C_R   0.615729 0.176912 0.746444 0.267686
C177  C     C_R   0.385140 0.822872 0.252925 0.267105
C178  C     C_R   0.823169 0.616073 0.744722 0.278871
C179  C     C_R   0.699966 0.197974 0.250770 -0.361548
C180  C     C_R   0.169250 0.378137 0.227585 0.266831
C181  C     C_R   0.871682 0.628318 0.750000 -0.405913
C182  C     C_R   0.127758 0.372242 0.250000 -0.396730
C183  C     C_R   0.628232 0.128242 0.749976 -0.411791
C184  C     C_R   0.372184 0.871456 0.249698 -0.411616
C185  C     C_R   0.128323 0.371677 0.750000 -0.406069
C186  C     C_R   0.871446 0.628552 0.249999 -0.410822
C187  C     C_R   0.371758 0.871768 0.750024 -0.411792
C188  C     C_R   0.628543 0.127817 0.250302 -0.411614
C189  C     C_R   0.872509 0.371691 0.250257 -0.404179
C190  C     C_R   0.802525 0.300377 0.250705 -0.364062
C191  C     C_R   0.127750 0.627729 0.749981 -0.397051
C192  C     C_R   0.627559 0.872440 0.250000 -0.396301
C193  C     C_R   0.372343 0.127657 0.750000 -0.395877
C194  C     C_R   0.128310 0.627491 0.249742 -0.404194
C195  C     C_R   0.872271 0.372250 0.750019 -0.397051
C196  C     C_R   0.372132 0.127868 0.250000 -0.394460
C197  C     C_R   0.627653 0.872347 0.750000 -0.395657
C198  C     C_1   0.764636 0.735364 0.750000 0.299702
C199  C     C_1   0.234743 0.265259 0.249999 0.294819
C200  C     C_1   0.735232 0.235243 0.749982 0.289536
Cl1   Cl    Cl    0.943454 0.695861 0.760370 -0.306743
Cl2   Cl    Cl    0.059876 0.688809 0.719640 -0.341766
Cl3   Cl    Cl    0.685251 0.937368 0.287849 -0.323836
Cl4   Cl    Cl    0.313672 0.061876 0.714179 -0.323249
Cl5   Cl    Cl    0.056889 0.694390 0.261130 -0.333911
Cl6   Cl    Cl    0.940180 0.311201 0.719684 -0.341164
Cl7   Cl    Cl    0.312532 0.061408 0.283978 -0.322835
Cl8   Cl    Cl    0.686361 0.938160 0.714170 -0.323366
Cl9   Cl    Cl    0.438593 0.187468 0.216022 -0.322827
Cl10  Cl    Cl    0.561840 0.813639 0.785830 -0.323359
Cl11  Cl    Cl    0.193926 0.554427 0.239644 -0.340345
Cl12  Cl    Cl    0.070598 0.322327 0.301106 -0.314790
Cl13  Cl    Cl    0.811192 0.440124 0.780360 -0.341770
Cl14  Cl    Cl    0.562630 0.814751 0.212150 -0.323833
Cl15  Cl    Cl    0.438123 0.186329 0.785821 -0.323242
Cl16  Cl    Cl    0.805617 0.443110 0.238833 -0.333945
Cl17  Cl    Cl    0.188798 0.559820 0.780316 -0.341168
Cl18  Cl    Cl    0.444068 0.804103 0.743718 -0.322588
Cl19  Cl    Cl    0.556753 0.196041 0.256350 -0.322420
Cl20  Cl    Cl    0.195863 0.443447 0.739505 -0.306942
Cl21  Cl    Cl    0.805362 0.559599 0.273544 -0.294927
Cl22  Cl    Cl    0.555925 0.195906 0.743661 -0.322595
Cl23  Cl    Cl    0.695896 0.055932 0.756282 -0.322592
Cl24  Cl    Cl    0.445116 0.804373 0.255581 -0.324802
Cl25  Cl    Cl    0.804139 0.556546 0.739630 -0.306744
Cl26  Cl    Cl    0.177673 0.429405 0.198894 -0.314813
Cl27  Cl    Cl    0.915313 0.547244 0.890366 -0.396508
Cl28  Cl    Cl    0.084712 0.452706 0.109658 -0.371843
Cl29  Cl    Cl    0.453085 0.084890 0.890310 -0.387542
Cl30  Cl    Cl    0.546916 0.915103 0.109693 -0.386175
Cl31  Cl    Cl    0.084682 0.452663 0.890327 -0.395746
Cl32  Cl    Cl    0.915426 0.547452 0.109662 -0.402933
Cl33  Cl    Cl    0.546850 0.915077 0.890332 -0.387669
Cl34  Cl    Cl    0.303959 0.943245 0.243647 -0.322423
Cl35  Cl    Cl    0.453150 0.084916 0.109665 -0.388555
Cl36  Cl    Cl    0.415090 0.046862 0.390335 -0.388553
Cl37  Cl    Cl    0.584916 0.953137 0.609668 -0.387665
Cl38  Cl    Cl    0.952555 0.584578 0.390337 -0.402950
Cl39  Cl    Cl    0.047330 0.415314 0.609674 -0.395747
Cl40  Cl    Cl    0.584891 0.953072 0.390308 -0.386172
Cl41  Cl    Cl    0.415117 0.046928 0.609689 -0.387540
Cl42  Cl    Cl    0.047287 0.415284 0.390342 -0.371834
Cl43  Cl    Cl    0.952763 0.584691 0.609634 -0.396510
Cl44  Cl    Cl    0.056553 0.304136 0.760495 -0.306940
Cl45  Cl    Cl    0.940396 0.694638 0.226452 -0.294911
Cl46  Cl    Cl    0.304094 0.944075 0.756339 -0.322599
Cl47  Cl    Cl    0.695627 0.054885 0.244422 -0.324806
Cl48  Cl    Cl    0.945568 0.306079 0.260391 -0.340349
F1    F     F_    0.860471 0.758319 0.760114 -0.521683
F2    F     F_    0.141865 0.753948 0.724731 -0.522601
F3    F     F_    0.750985 0.855694 0.282014 -0.521091
F4    F     F_    0.248085 0.143668 0.719786 -0.518108
F5    F     F_    0.140079 0.757419 0.257407 -0.520426
F6    F     F_    0.858173 0.246066 0.724746 -0.522395
F7    F     F_    0.247081 0.143306 0.278587 -0.514970
F8    F     F_    0.751942 0.856364 0.719780 -0.518263
F9    F     F_    0.356695 0.252920 0.221411 -0.514969
F10   F     F_    0.643637 0.748058 0.780220 -0.518262
F11   F     F_    0.258451 0.636742 0.241512 -0.521985
F12   F     F_    0.151461 0.255586 0.294017 -0.513997
F13   F     F_    0.746052 0.358136 0.775269 -0.522601
F14   F     F_    0.644302 0.749014 0.217985 -0.521089
F15   F     F_    0.356331 0.251915 0.780214 -0.518107
F16   F     F_    0.742585 0.359922 0.242558 -0.520429
F17   F     F_    0.253933 0.641827 0.775254 -0.522394
F18   F     F_    0.361073 0.741436 0.743348 -0.524104
F19   F     F_    0.640286 0.258000 0.257168 -0.521555
F20   F     F_    0.258319 0.360464 0.739779 -0.521700
F21   F     F_    0.743521 0.642217 0.271082 -0.524580
F22   F     F_    0.638920 0.258581 0.743291 -0.524045
F23   F     F_    0.758564 0.138927 0.756652 -0.524104
F24   F     F_    0.362666 0.740986 0.255619 -0.522669
F25   F     F_    0.741681 0.639529 0.739886 -0.521682
F26   F     F_    0.244414 0.348541 0.205982 -0.513997
F27   F     F_    0.107102 0.426054 0.962386 -0.502824
F28   F     F_    0.893042 0.574076 0.037610 -0.503693
F29   F     F_    0.573228 0.892432 0.962399 -0.502190
F30   F     F_    0.426758 0.107549 0.037600 -0.501904
F31   F     F_    0.893017 0.574029 0.962401 -0.503686
F32   F     F_    0.107121 0.426085 0.037602 -0.500299
F33   F     F_    0.426733 0.107538 0.962385 -0.501981
F34   F     F_    0.242001 0.859712 0.242829 -0.521553
F35   F     F_    0.573253 0.892443 0.037615 -0.502021
F36   F     F_    0.607538 0.926720 0.462385 -0.502023
F37   F     F_    0.392481 0.073295 0.537614 -0.501984
F38   F     F_    0.073900 0.392868 0.462398 -0.500295
F39   F     F_    0.925986 0.606993 0.537599 -0.503685
F40   F     F_    0.392470 0.073270 0.462399 -0.501906
F41   F     F_    0.607549 0.926745 0.537601 -0.502192
F42   F     F_    0.925939 0.606969 0.462390 -0.503693
F43   F     F_    0.073930 0.392886 0.537614 -0.502821
F44   F     F_    0.139536 0.241680 0.760221 -0.521699
F45   F     F_    0.857777 0.756477 0.228916 -0.524579
F46   F     F_    0.241419 0.861080 0.756709 -0.524046
F47   F     F_    0.759014 0.137336 0.244383 -0.522672
F48   F     F_    0.863252 0.241554 0.258520 -0.521987
O1    O     O_3   0.500000 1.000000 0.750000 -0.575364
O2    O     O_R   0.539300 0.000000 0.162640 -0.604822
O3    O     O_R   0.000000 0.539300 0.837360 -0.603953
O4    O     O_R   0.000000 0.460700 0.162640 -0.606826
O5    O     O_R   0.039300 0.500000 0.337360 -0.606827
O6    O     O_R   0.960700 0.500000 0.662640 -0.603955
O7    O     O_R   0.500000 0.960700 0.337360 -0.604821
O8    O     O_R   0.500000 0.039300 0.662640 -0.604792
O9    O     O_R   0.960700 0.500000 0.337360 -0.601179
O10   O     O_R   0.039300 0.500000 0.662640 -0.604444
O11   O     O_R   0.500000 0.039300 0.337360 -0.604767
O12   O     O_3   0.500000 0.000000 0.250000 -0.575271
O13   O     O_R   0.500000 0.960700 0.662640 -0.604720
O14   O     O_R   0.405600 0.944810 0.772850 -0.599490
O15   O     O_R   0.594400 0.055190 0.227150 -0.599997
O16   O     O_R   0.944810 0.594400 0.772850 -0.588656
O17   O     O_R   0.055190 0.405600 0.227150 -0.596446
O18   O     O_R   0.594400 0.055190 0.772850 -0.599410
O19   O     O_R   0.405600 0.944810 0.227150 -0.599195
O20   O     O_R   0.055190 0.405600 0.772850 -0.588765
O21   O     O_R   0.944810 0.594400 0.227150 -0.585209
O22   O     O_R   0.405600 0.055190 0.227150 -0.593828
O23   O     O_3   0.000000 0.500000 0.750000 -0.576280
O24   O     O_R   0.594400 0.944810 0.772850 -0.594016
O25   O     O_R   0.944810 0.405600 0.227150 -0.606947
O26   O     O_R   0.055190 0.594400 0.772850 -0.602266
O27   O     O_R   0.594400 0.944810 0.227150 -0.594263
O28   O     O_R   0.405600 0.055190 0.772850 -0.594099
O29   O     O_R   0.055190 0.594400 0.227150 -0.596392
O30   O     O_R   0.944810 0.405600 0.772850 -0.602632
O31   O     O_R   0.905600 0.444810 0.272850 -0.596397
O32   O     O_R   0.094400 0.555190 0.727150 -0.602631
O33   O     O_R   0.444810 0.094400 0.272850 -0.593824
O34   O     O_3   0.000000 0.500000 0.250000 -0.575412
O35   O     O_R   0.555190 0.905600 0.727150 -0.594012
O36   O     O_R   0.094400 0.555190 0.272850 -0.606937
O37   O     O_R   0.905600 0.444810 0.727150 -0.602266
O38   O     O_R   0.555190 0.905600 0.272850 -0.594261
O39   O     O_R   0.444810 0.094400 0.727150 -0.594096
O40   O     O_R   0.905600 0.555190 0.727150 -0.588658
O41   O     O_R   0.094400 0.444810 0.272850 -0.596439
O42   O     O_R   0.444810 0.905600 0.727150 -0.599411
O43   O     O_R   0.555190 0.094400 0.272850 -0.599196
O44   O     O_R   0.094400 0.444810 0.727150 -0.588766
O45   O     O_R   0.539300 1.000000 0.837360 -0.604723
O46   O     O_R   0.905600 0.555190 0.272850 -0.585213
O47   O     O_R   0.555190 0.094400 0.727150 -0.599490
O48   O     O_R   0.444810 0.905600 0.272850 -0.599998
O49   O     O_R   0.460700 0.000000 0.162640 -0.604769
O50   O     O_R   0.000000 0.460700 0.837360 -0.604441
O51   O     O_R   0.000000 0.539300 0.162640 -0.601177
O52   O     O_R   0.460700 1.000000 0.837360 -0.604794
Zn1   Zn    Zn3+2 0.500000 0.943960 0.717190 1.116237
Zn2   Zn    Zn3+2 0.000000 0.556040 0.782810 1.117527
Zn3   Zn    Zn3+2 0.443960 1.000000 0.217190 1.116142
Zn4   Zn    Zn3+2 0.556040 1.000000 0.782810 1.116236
Zn5   Zn    Zn3+2 0.000000 0.556040 0.217190 1.120091
Zn6   Zn    Zn3+2 0.000000 0.443960 0.782810 1.117184
Zn7   Zn    Zn3+2 0.556040 1.000000 0.217190 1.116147
Zn8   Zn    Zn3+2 0.443960 1.000000 0.782810 1.116275
Zn9   Zn    Zn3+2 0.500000 0.056040 0.282810 1.116143
Zn10  Zn    Zn3+2 0.943960 0.500000 0.717190 1.117525
Zn11  Zn    Zn3+2 0.056040 0.500000 0.282810 1.111533
Zn12  Zn    Zn3+2 0.500000 0.056040 0.717190 1.116277
Zn13  Zn    Zn3+2 0.500000 0.943960 0.282810 1.116148
Zn14  Zn    Zn3+2 0.056040 0.500000 0.717190 1.117183
Zn15  Zn    Zn3+2 0.943960 0.500000 0.282810 1.120088
Zn16  Zn    Zn3+2 0.000000 0.443960 0.217190 1.111529

loop_
_geom_bond_atom_site_label_1
_geom_bond_atom_site_label_2
_ccdc_geom_bond_type
C159  C194  A    
C102  C193  S    
C101  C148  A    
C18   C21   A    
C15   C57   S    
C102  O39   A    
C1    C198  S    
C94   C185  S    
C90   F12   S    
C57   C128  A    
C91   O17   A    
C172  Cl18  S    
O9    Zn15  S    
O6    Zn10  S    
C50   C59   A    
C120  F2    S    
C43   Cl36  S    
C81   O3    A    
C82   O4    A    
C121  F3    S    
C142  C177  A    
C83   O9    A    
O8    Zn12  S    
C118  C153  A    
C144  F26   S    
C143  C178  A    
C16   C198  T    
C50   C72   A    
C36   C53   A    
C17   C61   A    
C135  C142  A    
C38   C55   A    
C131  C166  A    
C8    C190  S    
O44   Zn14  S    
C119  C190  A    
C159  Cl5   S    
C40   Cl32  S    
C155  Cl2   S    
C61   C105  A    
O27   Zn7   S    
O26   Zn2   S    
C83   O5    A    
C38   C69   A    
O14   Zn8   S    
O37   Zn10  S    
C103  O29   A    
C150  C185  A    
C152  C187  A    
C180  C182  A    
O34   Zn5   S    
C163  Cl9   S    
C39   C61   A    
C116  F45   S    
C158  C193  A    
C96   O22   A    
C169  C193  A    
C120  C155  A    
C73   C114  A    
C161  C196  A    
C53   C82   S    
C102  O28   A    
C42   C55   A    
O23   Zn2   S    
C136  C171  A    
C122  C158  A    
C141  F22   S    
C84   O6    A    
C173  C188  A    
C85   O7    A    
C154  C189  A    
C28   C33   A    
C86   O8    A    
C1    C79   A    
O39   Zn12  S    
C25   C69   A    
C95   O21   A    
C147  Cl12  S    
C42   C64   A    
C57   C126  A    
C27   C71   A    
C164  C197  A    
C80   O49   A    
C45   C59   A    
O21   Zn5   S    
C48   C70   A    
C49   Cl41  S    
C62   C106  A    
O11   Zn9   S    
C177  C184  A    
C175  C186  A    
C55   C80   S    
C130  C165  A    
C41   Cl33  S    
C163  C196  A    
C104  C195  S    
C36   C66   A    
C97   O24   A    
C177  Cl24  S    
C122  F4    S    
C49   C71   A    
C100  O27   A    
C115  F44   S    
O10   Zn14  S    
C161  Cl7   S    
O50   Zn6   S    
C137  C168  A    
C95   C186  S    
O34   Zn11  S    
C151  C186  A    
C20   C64   A    
C121  C156  A    
O46   Zn15  S    
C99   O26   A    
C6    C9    T    
C125  C160  A    
C7    C8    T    
C37   Cl29  S    
C115  C146  A    
C176  Cl22  S    
O12   Zn3   S    
O38   Zn13  S    
C20   F30   S    
O23   Zn6   S    
C21   F31   S    
C30   C74   A    
C22   F32   S    
C138  F19   S    
C117  C168  A    
C5    C10   T    
C145  C181  A    
C140  F21   S    
C42   Cl35  S    
C23   C67   A    
O18   Zn4   S    
O5    Zn11  S    
C13   C132  A    
C144  C180  A    
O7    Zn13  S    
C149  C184  A    
C107  C108  A    
C103  C194  S    
C25   F35   S    
O25   Zn16  S    
C26   F36   S    
C113  F34   S    
O33   Zn9   S    
O22   Zn3   S    
C100  C192  S    
O19   Zn3   S    
C138  C179  A    
C58   C86   S    
C65   C105  A    
C17   F27   S    
C64   C108  A    
C18   F28   S    
O4    Zn16  S    
C169  Cl15  S    
C6    C168  S    
C101  C124  A    
O13   Zn1   S    
C97   C197  S    
C164  Cl10  S    
C2    C120  A    
C18   C62   A    
C87   C187  S    
C160  Cl6   S    
O23   Zn14  S    
C90   C147  A    
C13   C121  A    
C137  F18   S    
C20   C23   A    
C175  Cl21  S    
O1    Zn8   S    
C12   C35   S    
C35   C130  A    
C19   C63   A    
C97   O35   A    
C47   Cl39  S    
O32   Zn14  S    
C127  C162  A    
C113  C135  A    
C124  C141  A    
C91   C182  S    
O52   Zn8   S    
C132  F14   S    
C133  F15   S    
C100  O38   A    
C75   C110  A    
C162  Cl8   S    
C51   Cl43  S    
C32   C76   A    
C31   F41   S    
C94   O44   A    
O12   Zn7   S    
C85   O11   A    
C128  F9    S    
C35   C123  A    
O2    Zn7   S    
C84   O10   A    
C33   C77   A    
C76   C111  A    
C37   C67   A    
C180  Cl26  S    
C94   O20   A    
C52   C81   S    
C166  Cl13  S    
C134  C170  A    
C139  C174  A    
C51   C60   A    
C156  Cl3   S    
C116  C151  A    
O30   Zn6   S    
C131  F13   S    
C99   O32   A    
C86   O13   A    
C139  C146  A    
C46   C125  A    
C132  C167  A    
C165  C194  A    
C14   C46   S    
C101  F23   S    
C170  C189  A    
C45   C76   A    
C148  Cl23  S    
C59   C83   S    
C29   C32   A    
O20   Zn6   S    
O23   Zn10  S    
C174  C185  A    
O45   Zn4   S    
O1    Zn4   S    
C170  Cl16  S    
C172  C187  A    
C71   C110  A    
C133  C169  A    
C178  Cl25  S    
O34   Zn15  S    
C98   O25   A    
C44   C58   A    
C141  C176  A    
C126  C161  A    
C152  Cl46  S    
O36   Zn11  S    
C150  Cl44  S    
C72   C111  A    
C96   O33   A    
C29   F39   S    
C30   F40   S    
C28   C72   A    
C98   C189  S    
C48   Cl40  S    
C23   F33   S    
O12   Zn9   S    
C89   O40   A    
O24   Zn4   S    
C79   C145  A    
C14   C200  T    
C10   C13   S    
O40   Zn10  S    
C88   O43   A    
C27   F37   S    
C31   C75   A    
C138  C173  A    
C24   C122  A    
C171  C191  A    
C4    C11   T    
C68   C127  A    
C171  Cl17  S    
C160  C195  A    
C147  C182  A    
C19   F29   S    
C119  C154  A    
C5    C157  S    
C26   C70   A    
C60   C84   S    
C77   C114  A    
C89   O16   A    
O35   Zn1   S    
O41   Zn11  S    
C95   O46   A    
C88   O15   A    
C134  F16   S    
O43   Zn9   S    
C21   C65   A    
C151  Cl45  S    
C153  C188  A    
C105  C106  A    
C124  C200  S    
C34   C52   A    
C17   C22   A    
O1    Zn12  S    
C117  F46   S    
C109  C110  A    
C99   C191  S    
O48   Zn13  S    
C112  C144  A    
C56   C85   S    
C98   O31   A    
C140  C175  A    
C153  Cl47  S    
C111  C114  A    
C3    C135  S    
C123  F5    S    
C178  C181  A    
C96   C196  S    
O17   Zn16  S    
C129  C164  A    
O15   Zn7   S    
C143  F25   S    
C103  O36   A    
C78   O52   A    
C82   O51   A    
C89   C181  S    
C54   C78   S    
C32   F42   S    
C24   C133  A    
C176  C183  A    
C139  F20   S    
O31   Zn15  S    
C158  Cl4   S    
C90   C112  A    
C44   Cl37  S    
C74   C109  A    
C130  F11   S    
C38   Cl30  S    
O16   Zn2   S    
C167  C192  A    
C162  C197  A    
C81   O50   A    
C78   O45   A    
C148  C183  A    
C93   C184  S    
C29   C73   A    
C93   O19   A    
C11   C24   S    
O3    Zn2   S    
C40   C62   A    
C45   Cl38  S    
C22   C66   A    
C3    C12   T    
C47   C60   A    
O1    Zn1   S    
C126  F7    S    
C16   C68   S    
C112  C199  S    
C80   O2    A    
C118  C179  A    
C87   O14   A    
C39   C52   A    
C26   C31   A    
C36   Cl28  S    
O42   Zn1   S    
C27   C30   A    
C79   F1    S    
C125  F6    S    
C66   C106  A    
C173  Cl19  S    
C34   C65   A    
C33   F43   S    
C69   C108  A    
C92   O18   A    
C127  F8    S    
C113  C149  A    
C118  F47   S    
C166  C195  A    
C92   O47   A    
C129  F10   S    
C46   C131  A    
C165  Cl11  S    
C128  C163  A    
C2    C136  A    
C49   C58   A    
C136  F17   S    
O49   Zn3   S    
C44   C75   A    
O28   Zn8   S    
C39   Cl31  S    
C1    C143  A    
C70   C109  A    
C140  C157  A    
C15   C199  T    
C137  C172  A    
C4    C146  S    
C7    C179  S    
O51   Zn5   S    
C93   O48   A    
C155  C191  A    
C37   C54   A    
C156  C192  A    
C154  Cl48  S    
O12   Zn13  S    
C47   C77   A    
C63   C107  A    
C48   C56   A    
C119  F48   S    
C51   C73   A    
C50   Cl42  S    
C92   C183  S    
C149  Cl34  S    
C91   O41   A    
C134  C190  A    
C34   Cl27  S    
C116  C157  A    
C104  O37   A    
C145  Cl1   S    
C2    C9    S    
C67   C107  A    
C43   C74   A    
C115  C150  A    
C28   F38   S    
C117  C152  A    
C68   C129  A    
C19   C25   A    
C87   O42   A    
C142  F24   S    
C41   C54   A    
C123  C159  A    
O34   Zn16  S    
O47   Zn12  S    
C43   C56   A    
C88   C188  S    
C174  Cl20  S    
C40   C53   A    
C41   C63   A    
C167  Cl14  S    
C104  O30   A    
O29   Zn5   S    
