data_mof_unit_26420.cif
_audit_creation_date              2012-12-10T21:00:49-0500
_audit_creation_method            fapswitch 2.2
_symmetry_space_group_name_H-M    P1
_symmetry_Int_Tables_number       1
_space_group_crystal_system       triclinic
_cell_length_a                    18.096156
_cell_length_b                    18.222182
_cell_length_c                    18.30155
_cell_angle_alpha                 119.963039
_cell_angle_beta                  89.91955
_cell_angle_gamma                 119.89083
_cell_volume                      4279.73631509

loop_
_atom_site_label
_atom_site_type_symbol
_atom_type_description
_atom_site_fract_x
_atom_site_fract_y
_atom_site_fract_z
_atom_type_partial_charge
C1    C     C_R   0.108890 0.219997 0.609142 0.498930
C2    C     C_3   0.450499 0.897715 0.946905 0.057994
C3    C     C_R   0.118702 0.216790 0.334815 -0.091431
C4    C     C_R   0.038621 0.192474 0.354885 -0.085441
C5    C     C_R   0.008513 0.136859 0.392745 -0.068419
C6    C     C_2   0.757662 0.870022 0.897809 0.201310
C7    C     C_2   0.268397 0.130225 0.106507 0.189179
C8    C     C_2   0.745160 0.672519 0.808143 0.184233
C9    C     C_2   0.307617 0.341979 0.221888 0.177989
C10   C     C_R   0.163960 0.558847 0.466271 0.042622
C11   C     C_R   0.166731 0.515323 0.378726 -0.104373
C12   C     C_R   0.249524 0.548791 0.363552 -0.084114
C13   C     C_3   0.445305 0.031928 0.020493 -0.112310
C14   C     C_R   0.330167 0.624792 0.435619 -0.078260
C15   C     C_R   0.328011 0.668773 0.523017 -0.124163
C16   C     C_R   0.245227 0.636870 0.538396 -0.087104
C17   C     C_R   0.835638 0.440329 0.542928 0.031325
C18   C     C_R   0.836810 0.442739 0.620885 -0.108755
C19   C     C_R   0.759717 0.415482 0.646542 -0.070754
C20   C     C_R   0.680677 0.385338 0.594545 -0.069506
C21   C     C_R   0.678261 0.380868 0.516087 -0.121075
C22   C     C_R   0.755017 0.407222 0.489796 -0.077452
C23   C     C_R   0.106469 0.830044 0.853422 0.062627
C24   C     C_3   0.554311 0.968271 0.978570 -0.115175
C25   C     C_R   0.181151 0.856505 0.823307 -0.087397
C26   C     C_R   0.202864 0.917801 0.791438 -0.127797
C27   C     C_R   0.151259 0.954579 0.790776 -0.104458
C28   C     C_R   0.077277 0.929214 0.821117 -0.109294
C29   C     C_R   0.054207 0.866255 0.851449 -0.067012
C30   C     C_R   0.884444 0.143859 0.118568 0.058878
C31   C     C_R   0.811045 0.115558 0.150125 -0.089433
C32   C     C_R   0.789285 0.049015 0.176184 -0.132121
C33   C     C_R   0.839535 0.008858 0.169598 -0.107146
C34   C     C_R   0.912323 0.036080 0.137872 -0.110942
C35   C     C_3   0.414674 0.447576 0.450200 -0.080476
C36   C     C_R   0.935327 0.104033 0.113163 -0.087085
C37   C     C_3   0.585163 0.549934 0.549964 -0.109686
C38   C     C_3   0.469226 0.400581 0.435544 -0.135217
C39   C     C_3   0.530681 0.597035 0.564599 -0.136532
C40   C     C_3   0.550690 0.498593 0.449340 0.066753
C41   C     C_3   0.449225 0.499172 0.550787 0.059960
C42   C     C_3   0.497042 0.545566 0.463163 -0.097825
C43   C     C_R   0.887837 0.779809 0.390266 0.502642
C44   C     C_3   0.502746 0.452082 0.537054 -0.133235
C45   C     C_R   0.083572 0.162497 0.835126 -0.113813
C46   C     C_R   0.900083 0.824780 0.157392 -0.109255
C47   C     C_R   0.392984 0.781319 0.888096 0.493706
C48   C     C_R   0.606972 0.218714 0.111608 0.493131
C49   C     C_R   0.078031 0.120189 0.745524 -0.066394
C50   C     C_R   0.905111 0.870178 0.247074 -0.058816
C51   C     C_R   0.013742 0.105494 0.687130 0.079331
C52   C     C_R   0.973001 0.893781 0.309193 0.079529
C53   C     C_R   0.955405 0.133941 0.719447 -0.067049
C54   C     C_3   0.981074 0.428694 0.413750 -0.126467
C55   C     C_R   0.035654 0.871463 0.280535 -0.076280
C56   C     C_R   0.960780 0.175594 0.808989 -0.096977
C57   C     C_R   0.030658 0.826557 0.190847 -0.103464
C58   C     C_R   0.024661 0.189644 0.866709 -0.098962
C59   C     C_R   0.963071 0.803459 0.129394 -0.097063
C60   C     C_R   0.945196 0.945351 0.535261 -0.055274
C61   C     C_R   0.029822 0.053646 0.458313 -0.055832
C62   C     C_R   0.939307 0.891926 0.444536 -0.005252
C63   C     C_R   0.047021 0.107522 0.552144 -0.007032
C64   C     C_R   0.980737 0.946326 0.405570 -0.056024
C65   C     C_3   0.014616 0.567505 0.586889 -0.124351
C66   C     C_R   0.003292 0.052910 0.590290 -0.056544
C67   C     C_R   0.698006 0.697549 0.873534 -0.000246
C68   C     C_R   0.333591 0.308005 0.140278 0.015432
C69   C     C_R   0.646127 0.626245 0.894176 -0.077357
C70   C     C_R   0.379383 0.378414 0.117467 -0.051115
C71   C     C_R   0.111185 0.501234 0.889963 0.500935
C72   C     C_R   0.888255 0.498228 0.109516 0.502186
C73   C     C_R   0.598189 0.644762 0.953366 0.023812
C74   C     C_R   0.404087 0.349748 0.040431 0.024876
C75   C     C_R   0.603656 0.736581 0.994285 -0.094883
C76   C     C_3   0.444553 0.966057 0.924584 -0.124311
C77   C     C_R   0.381632 0.249304 0.984252 -0.119689
C78   C     C_R   0.653950 0.807511 0.973980 -0.072972
C79   C     C_R   0.336526 0.178603 0.005955 -0.087393
C80   C     C_R   0.701954 0.789813 0.914137 0.015698
C81   C     C_R   0.312429 0.206605 0.084007 0.017616
C82   C     C_R   0.594119 0.566200 0.029815 -0.159266
C83   C     C_R   0.406580 0.429633 0.965598 -0.158906
C84   C     C_R   0.550169 0.496616 0.053028 0.023542
C85   C     C_R   0.450389 0.500860 0.943972 0.023722
C86   C     C_R   0.455301 0.426359 0.019746 -0.035990
C87   C     C_3   0.555043 0.034005 0.074474 -0.129314
C88   C     C_R   0.545612 0.569420 0.975360 -0.034925
C89   C     C_R   0.150180 0.790380 0.951778 -0.062054
C90   C     C_R   0.841127 0.199048 0.035221 -0.068382
C91   C     C_R   0.129058 0.727782 0.982094 -0.074773
C92   C     C_R   0.863285 0.267970 0.011881 -0.072066
C93   C     C_R   0.042170 0.636352 0.944938 0.045196
C94   C     C_R   0.951862 0.356834 0.048382 0.050775
C95   C     C_R   0.392343 0.499854 0.607766 0.504643
C96   C     C_R   0.607626 0.499376 0.392272 0.502674
C97   C     C_R   0.974963 0.612450 0.882035 -0.111779
C98   C     C_3   0.549065 0.037966 0.957015 -0.121138
C99   C     C_R   0.019114 0.371991 0.103664 -0.120544
C100  C     C_R   0.995364 0.676855 0.853779 -0.128855
C101  C     C_R   0.997534 0.301241 0.124622 -0.138397
C102  C     C_R   0.083574 0.765189 0.887093 0.022876
C103  C     C_R   0.908063 0.215358 0.092101 0.027714
C104  C     C_R   0.965048 0.558695 0.022192 -0.162106
C105  C     C_R   0.032652 0.439137 0.975614 -0.164008
C106  C     C_R   0.942720 0.494509 0.051016 0.016821
C107  C     C_R   0.055266 0.503557 0.947098 0.016927
C108  C     C_R   0.975379 0.431738 0.025655 -0.031140
C109  C     C_3   0.450523 0.962202 0.042091 -0.123405
C110  C     C_R   0.021445 0.565060 0.971250 -0.032453
C111  C     C_R   0.394146 0.500221 0.888616 0.504577
C112  C     C_R   0.605972 0.499206 0.110716 0.506738
C113  C     C_R   0.108565 0.499736 0.607863 0.499037
C114  C     C_R   0.890563 0.499455 0.392219 0.492639
C115  C     C_3   0.075061 0.524772 0.483008 -0.002421
C116  C     C_3   0.920382 0.471425 0.517779 -0.001529
C117  C     C_3   0.039378 0.592976 0.517538 -0.130609
C118  C     C_3   0.956454 0.403387 0.483414 -0.139392
C119  C     C_3   0.945281 0.496808 0.449201 0.050432
C120  C     C_3   0.549180 0.102391 0.052230 0.057966
C121  C     C_3   0.050404 0.499525 0.551375 0.042859
C122  C     C_R   0.885074 0.891495 0.572746 0.073524
C123  C     C_R   0.916919 0.870384 0.624803 -0.045732
C124  C     C_R   0.862001 0.827481 0.665442 -0.099709
C125  C     C_R   0.775765 0.806553 0.655153 -0.087904
C126  C     C_R   0.743149 0.825571 0.602109 -0.098378
C127  C     C_R   0.797491 0.867731 0.560830 -0.087870
C128  C     C_R   0.059576 0.107091 0.412525 0.073717
C129  C     C_R   0.139874 0.131414 0.391899 -0.059367
C130  C     C_R   0.169050 0.185823 0.352837 -0.098435
H1    H     H_    0.073155 0.670754 0.530899 0.113778
H2    H     H_    0.088633 0.889825 0.327791 0.087215
H3    H     H_    0.915113 0.196483 0.833546 0.106792
H4    H     H_    0.079288 0.809848 0.168970 0.105137
H5    H     H_    0.641898 0.555116 0.863401 0.149552
H6    H     H_    0.396483 0.456310 0.159793 0.145183
H7    H     H_    0.568317 0.752804 0.041450 0.101865
H8    H     H_    0.400487 0.226330 0.924446 0.101990
H9    H     H_    0.656716 0.877672 0.006827 0.144384
H10   H     H_    0.322198 0.102291 0.962417 0.153531
H11   H     H_    0.667150 0.619568 0.054542 0.145234
H12   H     H_    0.923122 0.325709 0.470178 0.104851
H13   H     H_    0.333589 0.375893 0.940702 0.145248
H14   H     H_    0.218563 0.858360 0.978707 0.147380
H15   H     H_    0.771865 0.132620 0.008408 0.141375
H16   H     H_    0.181257 0.748112 0.031773 0.096349
H17   H     H_    0.811029 0.253706 0.967280 0.096860
H18   H     H_    0.907252 0.542982 0.853737 0.111744
H19   H     H_    0.088200 0.438868 0.130817 0.105003
H20   H     H_    0.943036 0.656176 0.803981 0.144603
H21   H     H_    0.050339 0.314567 0.167650 0.094836
H22   H     H_    0.939081 0.605425 0.040008 0.146109
H23   H     H_    0.028454 0.221451 0.935870 0.117219
H24   H     H_    0.058726 0.392514 0.957776 0.144999
H25   H     H_    0.965308 0.370373 0.342248 0.120419
H26   H     H_    0.028895 0.624580 0.658346 0.129887
H27   H     H_    0.590230 0.070053 0.922406 0.103384
H28   H     H_    0.409384 0.930145 0.076729 0.102005
H29   H     H_    0.398847 0.937498 0.862399 0.096109
H30   H     H_    0.600695 0.062465 0.136638 0.097377
H31   H     H_    0.400595 0.058628 0.038217 0.153256
H32   H     H_    0.599207 0.942121 0.960003 0.157788
H33   H     H_    0.445010 0.320109 0.381511 0.104058
H34   H     H_    0.959465 0.768937 0.060066 0.122188
H35   H     H_    0.554391 0.677263 0.618718 0.112184
H36   H     H_    0.343486 0.405773 0.411189 0.155110
H37   H     H_    0.655645 0.589781 0.589382 0.134622
H38   H     H_    0.496191 0.584252 0.432092 0.139218
H39   H     H_    0.504152 0.414012 0.568590 0.108017
H40   H     H_    0.984321 0.888214 0.634530 0.096642
H41   H     H_    0.886455 0.811346 0.705641 0.095749
H42   H     H_    0.734282 0.775839 0.688478 0.098453
H43   H     H_    0.676178 0.808839 0.593819 0.095650
H44   H     H_    0.772286 0.884115 0.521299 0.086008
H45   H     H_    0.132932 0.173297 0.879837 0.102299
H46   H     H_    0.180067 0.109298 0.407040 0.088479
H47   H     H_    0.231092 0.204783 0.337285 0.085710
H48   H     H_    0.141668 0.259787 0.305466 0.104288
H49   H     H_    0.999922 0.216845 0.341176 0.114584
H50   H     H_    0.946558 0.118787 0.408405 0.084910
H51   H     H_    0.810569 0.871650 0.869465 0.084703
H52   H     H_    0.265338 0.153867 0.173059 0.086871
H53   H     H_    0.769077 0.712088 0.775820 0.080718
H54   H     H_    0.257866 0.286685 0.233074 0.073376
H55   H     H_    0.105141 0.456906 0.322186 0.098396
H56   H     H_    0.847664 0.806596 0.109678 0.101410
H57   H     H_    0.250984 0.515987 0.295801 0.144217
H58   H     H_    0.394255 0.650144 0.423739 0.122683
H59   H     H_    0.390463 0.728093 0.578820 0.097752
H60   H     H_    0.244526 0.672678 0.606426 0.100058
H61   H     H_    0.897604 0.466154 0.662050 0.107533
H62   H     H_    0.761399 0.418223 0.707008 0.121023
H63   H     H_    0.621187 0.364882 0.614766 0.112185
H64   H     H_    0.616675 0.356293 0.475234 0.099555
H65   H     H_    0.750081 0.399915 0.427505 0.112899
H66   H     H_    0.221877 0.828739 0.823576 0.115387
H67   H     H_    0.122868 0.097680 0.721229 0.086097
H68   H     H_    0.260245 0.937599 0.768041 0.093270
H69   H     H_    0.168786 0.003033 0.767077 0.095558
H70   H     H_    0.037979 0.958641 0.821364 0.101426
H71   H     H_    0.996707 0.847348 0.874847 0.104457
H72   H     H_    0.771463 0.146071 0.155667 0.112185
H73   H     H_    0.732926 0.027862 0.200770 0.094219
H74   H     H_    0.822053 0.956745 0.189154 0.100497
H75   H     H_    0.951302 0.005064 0.132997 0.119110
H76   H     H_    0.991926 0.124383 0.088698 0.098875
H77   H     H_    0.856563 0.887329 0.268395 0.085078
H78   H     H_    0.904916 0.121993 0.674923 0.086956
O1    O     O_3   0.251620 0.500000 0.748430 -0.439342
O2    O     O_R   0.570330 0.268390 0.136490 -0.542977
O3    O     O_R   0.134680 0.268390 0.572240 -0.537153
O4    O     O_R   0.865320 0.731610 0.427760 -0.536552
O5    O     O_R   0.306670 0.731630 0.863510 -0.556262
O6    O     O_R   0.693330 0.268370 0.136490 -0.554578
O7    O     O_R   0.135450 0.439270 0.865360 -0.547358
O8    O     O_R   0.864550 0.560730 0.134640 -0.545924
O9    O     O_R   0.429670 0.560710 0.692610 -0.539385
O10   O     O_R   0.570330 0.439290 0.307390 -0.536803
O11   O     O_R   0.308540 0.439240 0.865360 -0.556625
O12   O     O_3   0.748380 0.500000 0.251570 -0.440592
O13   O     O_R   0.691460 0.560760 0.134640 -0.557432
O14   O     O_R   0.133580 0.439310 0.571150 -0.533127
O15   O     O_R   0.866420 0.560690 0.428850 -0.543807
O16   O     O_R   0.430770 0.560690 0.864590 -0.536133
O17   O     O_R   0.569230 0.439310 0.135410 -0.532271
O18   O     O_R   0.133580 0.560760 0.692610 -0.555488
O19   O     O_R   0.866420 0.439240 0.307390 -0.548943
O20   O     O_2   0.745606 0.936803 0.916884 -0.544711
O21   O     O_2   0.235472 0.038769 0.050486 -0.548993
O22   O     O_2   0.757426 0.605841 0.788799 -0.547426
O23   O     O_R   0.134680 0.560740 0.864590 -0.537629
O24   O     O_2   0.341529 0.433633 0.278108 -0.566955
O25   O     O_R   0.865320 0.439260 0.135410 -0.536144
O26   O     O_R   0.306670 0.439270 0.571150 -0.542414
O27   O     O_R   0.693330 0.560730 0.428850 -0.543010
O28   O     O_R   0.135450 0.268370 0.694460 -0.536461
O29   O     O_R   0.864550 0.731630 0.305540 -0.536941
O30   O     O_R   0.429670 0.731610 0.863510 -0.539937
Zn1   Zn    Zn3+2 0.207400 0.586780 0.791530 0.915130
Zn2   Zn    Zn3+2 0.792600 0.413220 0.208470 0.918921
Zn3   Zn    Zn3+2 0.208510 0.413230 0.792630 0.925385
Zn4   Zn    Zn3+2 0.791490 0.586770 0.207370 0.928679
Zn5   Zn    Zn3+2 0.383150 0.586740 0.791530 0.935175
Zn6   Zn    Zn3+2 0.616850 0.413260 0.208470 0.934393
Zn7   Zn    Zn3+2 0.207400 0.413250 0.618010 0.936904
Zn8   Zn    Zn3+2 0.792600 0.586750 0.381990 0.931240

loop_
_geom_bond_atom_site_label_1
_geom_bond_atom_site_label_2
_ccdc_geom_bond_type
C38   C40   S    
C2    C24   S    
C2    C109  S    
C35   C41   S    
C126  C127  A    
C115  C121  S    
O1    Zn7   S    
C89   C102  A    
C1    O3    A    
C3    C130  A    
C112  O13   A    
C19   C20   A    
C72   O8    A    
C128  C129  A    
O1    Zn5   S    
C117  C119  S    
C104  C106  A    
C56   H3    S    
C123  C124  A    
C39   C41   S    
C49   H67   S    
C72   O25   A    
O17   Zn6   S    
O12   Zn6   S    
C94   C108  S    
C26   C27   A    
C84   C112  S    
O29   Zn4   S    
C28   H70   S    
C9    O24   D    
C24   C98   S    
C68   C81   A    
C23   C29   A    
C60   C62   A    
C28   C29   A    
C130  H47   S    
C3    H48   S    
C84   C86   A    
C90   H15   S    
C71   C107  S    
C45   H45   S    
O26   Zn7   S    
C30   C31   A    
C46   C59   A    
O14   Zn7   S    
C78   C80   A    
C53   C56   A    
C23   C102  S    
C41   C44   S    
C1    O28   A    
C76   C98   S    
C15   C16   A    
C53   H78   S    
C87   H30   S    
O23   Zn1   S    
C18   C19   A    
C122  C127  A    
C61   C63   A    
C125  H42   S    
C44   H39   S    
C31   H72   S    
C62   C64   A    
C59   H34   S    
C43   O29   A    
C114  O19   A    
C8    O22   D    
C35   H36   S    
C116  C118  S    
C115  C117  S    
C74   C77   A    
C6    O20   D    
C30   C103  S    
C70   C74   A    
C50   C52   A    
C98   H27   S    
C129  H46   S    
C69   C73   A    
O18   Zn1   S    
C95   O26   A    
C65   C121  S    
C114  O15   A    
C89   C91   A    
O27   Zn8   S    
C114  C119  S    
C82   C88   A    
C52   C55   A    
C19   H62   S    
C91   H16   S    
C50   H77   S    
C105  C107  A    
C127  H44   S    
C40   C42   S    
C105  H24   S    
C15   H59   S    
C63   C66   A    
C13   C109  S    
C98   C120  S    
O15   Zn8   S    
O5    Zn1   S    
C21   C22   A    
C78   H9    S    
C92   H17   S    
C70   H6    S    
C73   C75   A    
C41   C95   S    
C111  O11   A    
C40   C96   S    
C82   H11   S    
C117  H1    S    
C109  H28   S    
C1    C63   S    
C92   C94   A    
C75   C78   A    
C42   H38   S    
C46   C50   A    
C33   C34   A    
C39   C42   S    
O13   Zn4   S    
C77   C79   A    
C34   H75   S    
O8    Zn4   S    
C18   H61   S    
C105  C108  A    
C48   O6    A    
C45   C58   A    
O7    Zn3   S    
C29   H71   S    
C6    H51   S    
C35   C38   S    
C27   H69   S    
C77   H8    S    
C37   H37   S    
C35   C42   S    
C52   C64   S    
C5    H50   S    
O1    Zn3   S    
C54   H25   S    
C79   C81   A    
C97   H18   S    
C49   C51   A    
C25   C26   A    
C12   H57   S    
O12   Zn4   S    
O30   Zn5   S    
C101  H21   S    
C46   H56   S    
O11   Zn3   S    
C51   C53   A    
C51   C66   S    
O28   Zn3   S    
C39   H35   S    
C61   C64   A    
O6    Zn2   S    
C65   H26   S    
O9    Zn5   S    
C73   C88   S    
C38   C44   S    
C96   O10   A    
C58   H23   S    
C91   C93   A    
C47   O30   A    
C14   H58   S    
C90   C92   A    
C31   C32   A    
C13   C76   S    
C45   C49   A    
C54   C115  S    
C83   H13   S    
C100  C102  A    
C17   C18   A    
C36   H76   S    
C74   C86   S    
C60   C122  S    
C43   O4    A    
C126  H43   S    
C25   H66   S    
C16   H60   S    
C8    H53   S    
O4    Zn8   S    
C38   H33   S    
C7    C81   S    
C72   C106  S    
O10   Zn6   S    
C55   C57   A    
C75   H7    S    
C6    C80   S    
C21   H64   S    
C65   C116  S    
C57   H4    S    
C4    H49   S    
C3    C4    A    
C93   C97   A    
C20   H63   S    
C97   C100  A    
C2    C76   S    
C48   C120  S    
C129  C130  A    
C7    O21   D    
C85   C88   A    
O12   Zn8   S    
C65   C117  S    
C112  O17   A    
C7    H52   S    
C99   C101  A    
C11   H55   S    
O25   Zn2   S    
C24   H32   S    
C67   C80   A    
O1    Zn1   S    
C12   C14   A    
C4    C5    A    
C118  H12   S    
C11   C12   A    
C116  C119  S    
O16   Zn5   S    
C13   H31   S    
C22   H65   S    
C87   C109  S    
C2    C47   S    
C37   C40   S    
C89   H14   S    
C93   C110  S    
C33   H74   S    
C82   C84   A    
C17   C22   A    
C101  C103  A    
C30   C36   A    
C107  C110  A    
C100  H20   S    
C32   C33   A    
O3    Zn7   S    
C37   C44   S    
C54   C118  S    
C48   O2    A    
C9    C68   S    
O2    Zn6   S    
C87   C120  S    
C37   C39   S    
C9    H54   S    
C10   C16   A    
C76   H29   S    
C104  C110  A    
C104  H22   S    
C113  O18   A    
C125  C126  A    
C124  H41   S    
C106  C108  A    
C94   C99   A    
C32   H73   S    
C71   O7    A    
O19   Zn2   S    
C47   O5    A    
C5    C128  A    
C99   H19   S    
C95   O9    A    
C96   O27   A    
C56   C58   A    
C79   H10   S    
C61   C128  S    
C34   C36   A    
C111  O16   A    
C23   C25   A    
C83   C85   A    
C26   H68   S    
C24   C87   S    
C90   C103  A    
C123  H40   S    
C57   C59   A    
C10   C11   A    
C60   C66   A    
C85   C111  S    
C83   C86   A    
C113  C121  S    
C20   C21   A    
C43   C62   S    
C8    C67   S    
C69   H5    S    
C55   H2    S    
C27   C28   A    
C68   C70   A    
C71   O23   A    
C14   C15   A    
O12   Zn2   S    
C13   C120  S    
C67   C69   A    
C122  C123  A    
C54   C119  S    
C118  C121  S    
C113  O14   A    
C10   C115  S    
C17   C116  S    
C124  C125  A    
