data_mof_unit_47943.cif
_audit_creation_date              2012-12-11T16:31:31-0500
_audit_creation_method            fapswitch 2.2
_symmetry_space_group_name_H-M    P1
_symmetry_Int_Tables_number       1
_space_group_crystal_system       triclinic
_cell_length_a                    6.94199
_cell_length_b                    18.417707
_cell_length_c                    20.038639
_cell_angle_alpha                 68.322201
_cell_angle_beta                  90.621477
_cell_angle_gamma                 90.884593
_cell_volume                      2380.53165946

loop_
_atom_site_label
_atom_site_type_symbol
_atom_type_description
_atom_site_fract_x
_atom_site_fract_y
_atom_site_fract_z
_atom_type_partial_charge
O1    O     O_R   0.488990 0.443920 0.942160 -0.537765
O2    O     O_R   0.823840 0.406530 0.087600 -0.536259
O3    O     O_R   0.999650 0.556080 0.057840 -0.540637
C1    C     C_R   0.654936 0.383472 0.115025 0.688208
O4    O     O_R   0.818390 0.434590 0.944530 -0.525052
O5    O     O_R   0.994160 0.584350 0.913750 -0.535861
C2    C     C_R   0.648505 0.419473 0.924935 0.719850
O6    O     O_R   0.494480 0.415650 0.086250 -0.540438
O7    O     O_3   0.662600 0.549100 0.990070 -0.371347
V1    V     V_3+5 0.935320 0.490890 0.001840 1.477574
O8    O     O_R   0.324240 0.593470 0.912400 -0.538430
C3    C     C_R   0.155454 0.615996 0.884458 0.695229
O9    O     O_R   0.329690 0.565410 0.055470 -0.539064
C4    C     C_R   0.162072 0.579665 0.075855 0.711681
V2    V     V_3+5 0.435990 0.509110 0.998160 1.450175
O10   O     O_3   0.158840 0.450900 0.009930 -0.362294
C5    C     C_3   0.135347 0.656779 0.285828 -0.305591
C6    C     C_3   0.314467 0.767459 0.193162 -0.293679
C7    C     C_3   0.307818 0.813907 0.244065 -0.261166
H1    H     H_    0.250001 0.691336 0.372279 0.186912
H2    H     H_    0.316466 0.809106 0.136382 0.188929
H3    H     H_    0.450298 0.733712 0.202807 0.145192
H4    H     H_    0.435662 0.798725 0.280391 0.146429
H5    H     H_    0.319965 0.877543 0.212608 0.220669
C8    C     C_1   0.110149 0.875521 0.377759 -0.129738
C9    C     C_3   0.138320 0.711158 0.205438 0.159950
C10   C     C_3   0.124169 0.705197 0.334948 -0.407703
C11   C     C_3   0.120885 0.794274 0.289550 0.096311
C12   C     C_3   0.939826 0.809253 0.238791 0.387709
C13   C     C_3   0.953231 0.761022 0.189114 -0.360407
C14   C     C_1   0.114892 0.838812 0.338344 0.009840
C15   C     C_1   0.148496 0.664477 0.158600 -0.056017
C16   C     C_1   0.155470 0.626051 0.120697 -0.183241
H6    H     H_    0.824160 0.722132 0.197463 0.113323
H7    H     H_    0.952333 0.799915 0.131416 0.205568
H8    H     H_    0.810698 0.787899 0.273351 0.041982
H9    H     H_    0.992536 0.687664 0.368671 0.167577
C17   C     C_R   0.185337 0.774383 0.881140 -0.142932
C18   C     C_R   0.199604 0.849860 0.881416 -0.092311
C19   C     C_R   0.188198 0.914144 0.817360 -0.102236
C20   C     C_R   0.161964 0.903460 0.752521 -0.161236
C21   C     C_R   0.147048 0.827577 0.750540 0.060257
C22   C     C_R   0.159506 0.761651 0.816155 0.070587
C23   C     C_R   0.118538 0.816752 0.684678 -0.152577
C24   C     C_R   0.103938 0.740286 0.684253 0.080846
C25   C     C_R   0.119848 0.674218 0.749538 -0.004648
C26   C     C_R   0.145553 0.684854 0.815782 -0.147420
C27   C     C_R   0.077647 0.728377 0.619015 -0.229145
C28   C     C_R   0.072553 0.653653 0.617571 -0.172262
C29   C     C_R   0.092973 0.588816 0.680761 0.530089
C30   C     C_R   0.114537 0.598631 0.746502 -0.250508
H10   H     H_    0.194744 0.726295 0.932351 0.094842
H11   H     H_    0.199266 0.972639 0.817899 0.134398
H12   H     H_    0.057494 0.646468 0.566488 0.171085
H13   H     H_    0.132190 0.547093 0.794631 0.149230
H14   H     H_    0.933243 0.453541 0.308806 0.155609
C31   C     C_R   0.494583 0.234447 0.122291 -0.116783
C32   C     C_R   0.416536 0.163598 0.124029 -0.058586
C33   C     C_R   0.405025 0.100051 0.188591 -0.061781
C34   C     C_R   0.471503 0.106881 0.251903 -0.121175
C35   C     C_R   0.550446 0.178247 0.251986 0.060455
C36   C     C_R   0.562191 0.243369 0.185793 0.056554
C37   C     C_R   0.621231 0.184835 0.316262 -0.147716
C38   C     C_R   0.705337 0.256344 0.314227 0.000175
C39   C     C_R   0.717113 0.321389 0.248034 0.075522
C40   C     C_R   0.644677 0.315073 0.183863 -0.154043
C41   C     C_R   0.776076 0.264858 0.377552 -0.206307
C42   C     C_R   0.860036 0.335102 0.375573 0.439968
C43   C     C_R   0.870341 0.398614 0.310729 -0.214358
C44   C     C_R   0.799008 0.392294 0.247870 -0.218908
H15   H     H_    0.502963 0.281690 0.070512 0.112919
H16   H     H_    0.365854 0.157859 0.074897 0.159003
H17   H     H_    0.345391 0.044971 0.189603 0.165781
H18   H     H_    0.461777 0.055333 0.300464 0.115639
H19   H     H_    0.766203 0.217325 0.429058 0.152269
H20   H     H_    0.808599 0.443851 0.199320 0.132530
O11   O     O_R   0.770890 0.084490 0.414040 -0.533740
O12   O     O_R   0.445980 0.065450 0.555510 -0.530610
O13   O     O_R   0.270670 0.915620 0.586180 -0.539942
C45   C     C_R   0.615401 0.078415 0.577055 0.723324
O14   O     O_R   0.441480 0.093500 0.412450 -0.538032
O15   O     O_R   0.266140 0.943870 0.442100 -0.543416
C46   C     C_R   0.610495 0.116515 0.385102 0.699474
O16   O     O_R   0.775410 0.056240 0.558120 -0.536316
O17   O     O_3   0.602660 0.950990 0.510100 -0.373617
V3    V     V_3+5 0.329740 0.009100 0.498130 1.479916
O18   O     O_R   0.936120 0.934420 0.444240 -0.533720
C47   C     C_R   0.103859 0.920481 0.423791 0.715874
O19   O     O_R   0.940610 0.906370 0.587310 -0.542320
C48   C     C_R   0.109100 0.885142 0.615977 0.684492
V4    V     V_3+5 0.829110 0.990690 0.501470 1.473196
O20   O     O_3   0.106080 0.049010 0.489880 -0.358244
C49   C     C_3   0.816842 0.186553 0.758274 -0.466343
C50   C     C_3   0.623810 0.293150 0.668203 0.271923
C51   C     C_3   0.624882 0.338759 0.720116 -0.489002
H21   H     H_    0.946780 0.274814 0.793432 0.117022
H22   H     H_    0.944575 0.203186 0.722440 0.173344
H23   H     H_    0.757554 0.309480 0.635537 0.139359
H24   H     H_    0.749872 0.379637 0.707811 0.211533
C52   C     C_1   0.638054 0.370873 0.882142 -0.085515
C53   C     C_3   0.629292 0.203091 0.712339 0.063180
C54   C     C_3   0.822183 0.233362 0.809410 0.370983
C55   C     C_3   0.634583 0.282778 0.799802 0.027986
C56   C     C_3   0.453716 0.228742 0.813233 -0.242363
C57   C     C_3   0.457838 0.178356 0.765729 -0.298200
C58   C     C_1   0.634704 0.330438 0.845983 0.100404
C59   C     C_1   0.628668 0.157507 0.664531 0.059102
C60   C     C_1   0.625183 0.121428 0.624618 -0.083572
H25   H     H_    0.471671 0.115734 0.801002 0.174328
H26   H     H_    0.318837 0.183065 0.736639 0.197307
H27   H     H_    0.827623 0.122614 0.789164 0.215318
H28   H     H_    0.321453 0.264856 0.800358 0.194916
H29   H     H_    0.009535 0.615958 0.296387 0.165523
S1    S     S_3+6 0.894076 0.910843 0.186024 -0.031611
O21   O     O_2   0.876798 0.956967 0.233799 -0.348858
O22   O     O_2   0.051958 0.945470 0.132446 -0.336446
O23   O     O_3   0.684947 0.915996 0.141459 -0.512466
H30   H     H_    0.657957 0.972558 0.118718 0.386328
S2    S     S_3+6 0.110680 0.496501 0.674941 -0.009151
O24   O     O_2   0.307827 0.491684 0.647047 -0.316796
O25   O     O_2   0.083644 0.432417 0.747153 -0.371171
O26   O     O_3   0.944983 0.488090 0.616274 -0.508458
H31   H     H_    0.987524 0.443492 0.603974 0.409869
H32   H     H_    0.219503 0.858490 0.931651 0.136068
H33   H     H_    0.152929 0.955247 0.704115 0.102342
H34   H     H_    0.064399 0.776623 0.568084 0.121622
H35   H     H_    0.267441 0.620581 0.299292 0.177616
S3    S     S_3+6 0.951838 0.344562 0.454303 0.074319
O27   O     O_2   0.813851 0.391742 0.478470 -0.292654
O28   O     O_2   0.976171 0.265906 0.513214 -0.310771
O29   O     O_3   0.165176 0.392073 0.436609 -0.430919
H36   H     H_    0.246353 0.360646 0.417346 0.350886
S4    S     S_3+6 0.425948 0.324390 0.604577 0.130062
O30   O     O_2   0.422485 0.279127 0.555721 -0.280833
O31   O     O_2   0.237190 0.312803 0.643368 -0.307649
O32   O     O_3   0.452156 0.419823 0.553629 -0.392573
H37   H     H_    0.579712 0.435782 0.566480 0.364323
H38   H     H_    0.494492 0.374929 0.712229 0.273088
H39   H     H_    0.442717 0.190683 0.870753 0.226723
S5    S     S_3+6 0.871884 0.168994 0.900667 -0.017329
O33   O     O_2   0.886217 0.214700 0.949092 -0.335959
O34   O     O_2   0.717723 0.107056 0.927699 -0.329014
O35   O     O_3   0.083531 0.125329 0.902013 -0.521856
H40   H     H_    0.108721 0.094247 0.953368 0.386470

loop_
_geom_bond_atom_site_label_1
_geom_bond_atom_site_label_2
_ccdc_geom_bond_type
C53   C59   S    
O18   C47   A    
C9    C15   S    
H21   C54   S    
C6    H2    S    
C20   C21   A    
O2    C1    A    
C6    C9    S    
S5    O35   S    
C1    O6    A    
S3    O27   D    
C4    C16   S    
S1    O21   D    
O17   V4    S    
C5    H29   S    
C31   C36   A    
O17   V3    S    
C12   H8    S    
C13   H7    S    
C5    C9    S    
C11   C12   S    
C57   H26   S    
S5    O34   D    
O18   V4    S    
O5    C3    A    
C17   C18   A    
O12   C45   A    
S2    O26   S    
C17   H10   S    
O11   C46   A    
C51   H24   S    
O35   H40   S    
C50   S4    S    
C6    C7    S    
C35   C37   A    
O13   C48   A    
C57   H25   S    
C55   C56   S    
C12   S1    S    
C54   C55   S    
O8    V2    S    
C50   C53   S    
C42   C43   A    
S4    O32   S    
C59   C60   T    
O1    V2    S    
O16   V4    S    
O19   V4    S    
O7    V1    S    
C42   S3    S    
O14   V3    S    
C45   O16   A    
O12   V3    S    
O15   V3    S    
C33   C34   A    
O1    C2    A    
O9    C4    A    
C43   C44   A    
C21   C23   A    
C3    C26   S    
C56   C57   S    
O14   C46   A    
C51   C55   S    
S2    O25   D    
C53   C57   S    
C2    C52   S    
C36   C40   A    
C41   C42   A    
C5    C10   S    
C38   C41   A    
C20   H33   S    
S5    O33   D    
C49   C53   S    
V4    O20   S    
O4    C2    A    
C13   H6    S    
C5    H35   S    
C32   C33   A    
C24   C25   A    
C25   C30   A    
C8    C47   S    
C18   H32   S    
C29   S2    S    
C37   C46   S    
C34   C35   A    
C7    H4    S    
C12   C13   S    
O8    C3    A    
C29   C30   A    
C54   S5    S    
C31   H15   S    
C7    C11   S    
O3    C4    A    
C49   H27   S    
C19   C20   A    
H14   C43   S    
O6    V2    S    
O9    V2    S    
C44   H20   S    
S4    O30   D    
C41   H19   S    
C21   C22   A    
O29   H36   S    
O2    V1    S    
S3    O29   S    
C49   H22   S    
C18   C19   A    
C23   C48   S    
C23   C24   A    
C56   H28   S    
C24   C27   A    
C33   H17   S    
C25   C26   A    
O11   V4    S    
C51   H38   S    
C6    H3    S    
C8    C14   T    
C11   C14   S    
O32   H37   S    
S3    O28   D    
C49   C54   S    
O5    V1    S    
S1    O22   D    
S2    O24   D    
C19   H11   S    
C9    C13   S    
H1    C10   S    
C45   C60   S    
C52   C58   T    
C56   H39   S    
C15   C16   T    
C35   C36   A    
C7    H5    S    
O26   H31   S    
C17   C22   A    
O3    V1    S    
V1    O10   S    
O23   H30   S    
C38   C39   A    
C1    C40   S    
C32   H16   S    
C31   C32   A    
C10   H9    S    
O15   C47   A    
V2    O10   S    
C34   H18   S    
C55   C58   S    
C30   H13   S    
C39   C40   A    
O7    V2    S    
C50   C51   S    
S1    O23   S    
C27   H34   S    
C37   C38   A    
O4    V1    S    
C28   C29   A    
C27   C28   A    
C10   C11   S    
S4    O31   D    
C50   H23   S    
V3    O20   S    
C39   C44   A    
O19   C48   A    
C22   C26   A    
O13   V3    S    
C28   H12   S    
