data_mof_unit_36669.cif
_audit_creation_date              2012-12-10T18:36:07-0500
_audit_creation_method            fapswitch 2.2
_symmetry_space_group_name_H-M    P1
_symmetry_Int_Tables_number       1
_space_group_crystal_system       triclinic
_cell_length_a                    14.933469
_cell_length_b                    15.158185
_cell_length_c                    19.225808
_cell_angle_alpha                 90.078592
_cell_angle_beta                  104.932218
_cell_angle_gamma                 81.889269
_cell_volume                      4160.22667713

loop_
_atom_site_label
_atom_site_type_symbol
_atom_type_description
_atom_site_fract_x
_atom_site_fract_y
_atom_site_fract_z
_atom_type_partial_charge
C1    C     C_R   0.441488 0.663521 0.491117 0.881253
C2    C     C_R   0.558580 0.336491 0.511787 0.876530
C3    C     C_R   0.405936 0.758012 0.496908 -0.136132
C4    C     C_R   0.594114 0.242406 0.532926 -0.136365
C5    C     C_R   0.277415 0.880871 0.485945 0.184812
C6    C     C_R   0.719340 0.124433 0.593321 0.182285
C7    C     C_R   0.310262 0.790424 0.477842 -0.209345
C8    C     C_R   0.688661 0.212675 0.564814 -0.203306
C9    C     C_R   0.469745 0.814908 0.526000 -0.206243
C10   C     C_R   0.529354 0.184477 0.528771 -0.199271
C11   C     C_R   0.440750 0.901707 0.543399 0.049670
C12   C     C_R   0.553543 0.101708 0.565008 0.049655
C13   C     C_R   0.343552 0.937058 0.522156 0.052987
C14   C     C_R   0.649913 0.068246 0.595733 0.049816
C15   C     C_R   0.508693 0.956727 0.574475 0.008403
C16   C     C_R   0.482704 0.048784 0.564796 0.007557
C17   C     C_R   0.387156 0.084028 0.556298 0.046169
C18   C     C_R   0.601184 0.923991 0.614799 0.055784
C19   C     C_R   0.317719 0.027381 0.537705 0.019415
C20   C     C_R   0.671341 0.980324 0.627268 0.025685
C21   C     C_R   0.839960 0.642889 0.605868 -0.320628
C22   C     C_R   0.159946 0.354800 0.398053 -0.326191
C23   C     C_R   0.501739 0.499190 0.634572 0.906191
C24   C     C_R   0.498551 0.500087 0.365447 0.899332
C25   C     C_R   0.752971 0.614336 0.590848 0.014061
C26   C     C_R   0.245987 0.384848 0.410041 0.011898
C27   C     C_R   0.795502 0.511669 0.508238 -0.047927
C28   C     C_R   0.206681 0.486617 0.494423 -0.047562
C29   C     C_R   0.888587 0.529578 0.528004 -0.028942
C30   C     C_R   0.114119 0.467453 0.477658 -0.027349
C31   C     C_R   0.907624 0.604147 0.571152 0.108124
C32   C     C_R   0.094498 0.392349 0.435198 0.101097
C33   C     C_R   0.960690 0.479142 0.502685 -0.029039
C34   C     C_R   0.043220 0.517066 0.505027 -0.027109
C35   C     C_R   0.050678 0.604169 0.533002 0.047570
C36   C     C_R   0.953730 0.391396 0.476337 0.051349
C37   C     C_R   0.989584 0.641971 0.573635 0.177062
C38   C     C_R   0.014462 0.352795 0.435772 0.173548
C39   C     C_R   0.421832 0.519318 0.731222 -0.277893
C40   C     C_R   0.581442 0.473409 0.271004 -0.280612
C41   C     C_R   0.421725 0.518317 0.803585 0.121499
C42   C     C_R   0.583434 0.468386 0.199135 0.120588
C43   C     C_R   0.506954 0.494648 0.856167 0.011926
C44   C     C_R   0.499013 0.487858 0.145024 0.010550
C45   C     C_R   0.591769 0.472209 0.836334 0.032883
C46   C     C_R   0.413016 0.511708 0.162918 0.033346
C47   C     C_R   0.590875 0.473342 0.763422 0.104534
C48   C     C_R   0.412021 0.516532 0.235391 0.102263
C49   C     C_R   0.505489 0.497538 0.710959 -0.102911
C50   C     C_R   0.496697 0.497043 0.289388 -0.106370
C51   C     C_R   0.501991 0.488136 0.070200 0.289351
C52   C     C_R   0.506396 0.491391 0.931425 0.287922
H1    H     H_    0.356468 0.538339 0.690533 0.156568
H2    H     H_    0.646260 0.457533 0.312841 0.157494
H3    H     H_    0.232254 0.530015 0.536901 0.132118
H4    H     H_    0.771721 0.467380 0.465879 0.129507
H5    H     H_    0.297208 0.355127 0.382815 0.132155
H6    H     H_    0.700528 0.643788 0.616976 0.134754
H7    H     H_    0.851775 0.695979 0.643148 0.149964
H8    H     H_    0.147100 0.301498 0.361123 0.158236
H9    H     H_    0.458592 0.204855 0.496517 0.177284
H10   H     H_    0.543326 0.791295 0.533324 0.184330
H11   H     H_    0.737676 0.259255 0.566984 0.175356
H12   H     H_    0.262075 0.744800 0.454876 0.175321
N1    N     N_R   0.559803 0.540624 0.979423 -0.190299
N2    N     N_R   0.448743 0.438709 0.022231 -0.191115
N3    N     N_R   0.557756 0.538900 0.047960 -0.144345
N4    N     N_R   0.450773 0.440447 0.953666 -0.145357
N5    N     N_R   0.731690 0.552730 0.540620 -0.095070
N6    N     N_R   0.268310 0.447270 0.459380 -0.095165
O1    O     O_R   0.383120 0.605620 0.479520 -0.616327
O2    O     O_R   0.616880 0.394380 0.520480 -0.617945
O3    O     O_R   0.531890 0.639510 0.505590 -0.615595
O4    O     O_R   0.468110 0.360490 0.494410 -0.613293
O5    O     O_R   0.425590 0.483060 0.588820 -0.622787
O6    O     O_R   0.574410 0.516940 0.411180 -0.622551
O7    O     O_R   0.574360 0.516950 0.614890 -0.595710
O8    O     O_R   0.425640 0.483050 0.385110 -0.595657
Zn1   Zn    Zn3+2 0.400660 0.477370 0.482600 0.942569
Zn2   Zn    Zn3+2 0.599340 0.522630 0.517400 0.942132
C53   C     C_3   0.008479 0.727206 0.613776 -0.398392
C54   C     C_3   0.052980 0.706180 0.693922 -0.891295
H13   H     H_    0.007351 0.671236 0.718302 0.261982
H14   H     H_    0.121837 0.663320 0.701606 0.256908
H15   H     H_    0.064234 0.769129 0.722299 0.252851
H16   H     H_    0.056330 0.763638 0.593228 0.227871
H17   H     H_    0.943357 0.775755 0.605628 0.190235
C55   C     C_3   0.997079 0.265371 0.398704 -0.401724
C56   C     C_3   0.945916 0.282842 0.319263 -0.885084
H18   H     H_    0.876261 0.323331 0.313971 0.254826
H19   H     H_    0.986794 0.318907 0.291036 0.262488
H20   H     H_    0.935460 0.218457 0.293008 0.251954
H21   H     H_    0.063475 0.219262 0.404709 0.186888
H22   H     H_    0.954502 0.227278 0.423639 0.225801
N7    N     N_3   0.108390 0.661580 0.511336 -0.494299
H23   H     H_    0.120615 0.645167 0.461467 0.192529
H24   H     H_    0.170401 0.662248 0.551677 0.180594
N8    N     N_3   0.896221 0.334761 0.499296 -0.492594
H25   H     H_    0.834816 0.332312 0.458725 0.177237
H26   H     H_    0.882375 0.353679 0.548191 0.196794
N9    N     N_3   0.335694 0.542350 0.824213 -0.437910
H27   H     H_    0.339379 0.603154 0.849781 0.182322
H28   H     H_    0.278649 0.553262 0.778757 0.176808
N10   N     N_3   0.670666 0.442811 0.180589 -0.437377
H29   H     H_    0.668601 0.380085 0.158038 0.181203
H30   H     H_    0.726825 0.435272 0.226753 0.177572
N11   N     N_3   0.678917 0.444871 0.889043 -0.476226
H31   H     H_    0.695827 0.498433 0.921655 0.208076
H32   H     H_    0.671064 0.392134 0.920919 0.196385
N12   N     N_3   0.326506 0.534749 0.108542 -0.476094
H33   H     H_    0.311445 0.478570 0.078708 0.208358
H34   H     H_    0.334070 0.585169 0.074343 0.196857
N13   N     N_3   0.676082 0.447130 0.742451 -0.430837
H35   H     H_    0.724212 0.489225 0.766360 0.198343
H36   H     H_    0.703395 0.381956 0.762140 0.197695
N14   N     N_3   0.325534 0.543929 0.254209 -0.432422
H37   H     H_    0.278985 0.499520 0.232380 0.199084
H38   H     H_    0.297101 0.607373 0.230943 0.195903
N15   N     N_3   0.222709 0.061211 0.536924 -0.496889
H39   H     H_    0.198786 0.115810 0.500495 0.174694
H40   H     H_    0.220384 0.081882 0.588376 0.193651
N16   N     N_3   0.762633 0.948100 0.672632 -0.497982
H41   H     H_    0.791230 0.891136 0.650744 0.176397
H42   H     H_    0.756797 0.931852 0.723921 0.191356
C57   C     C_3   0.174506 0.917787 0.452411 -0.376493
C58   C     C_3   0.119094 0.860631 0.396148 -0.918215
H43   H     H_    0.156831 0.841730 0.354309 0.266744
H44   H     H_    0.106027 0.800228 0.422027 0.269025
H45   H     H_    0.049890 0.899386 0.369360 0.258417
H46   H     H_    0.137804 0.929495 0.495760 0.227306
H47   H     H_    0.171345 0.982066 0.423560 0.221602
C59   C     C_3   0.824335 0.090728 0.618979 -0.379582
C60   C     C_3   0.890043 0.149710 0.599326 -0.916508
H48   H     H_    0.870515 0.164257 0.540296 0.271651
H49   H     H_    0.888730 0.212593 0.628983 0.261216
H50   H     H_    0.962977 0.114119 0.615043 0.258383
H51   H     H_    0.844450 0.081282 0.678553 0.231048
H52   H     H_    0.838560 0.025780 0.594125 0.222607
N17   N     N_3   0.362397 0.174814 0.574088 -0.452541
H53   H     H_    0.333599 0.175223 0.618204 0.194154
H54   H     H_    0.312368 0.207907 0.530178 0.182761
N18   N     N_3   0.620722 0.837150 0.649821 -0.469682
H55   H     H_    0.638530 0.844239 0.705564 0.191002
H56   H     H_    0.677524 0.800568 0.635498 0.164078

loop_
_geom_bond_atom_site_label_1
_geom_bond_atom_site_label_2
_ccdc_geom_bond_type
C15   C18   A    
N2    N4    A    
N9    H27   S    
C27   C29   A    
N11   H32   S    
N7    H23   S    
C4    C8    A    
N10   H30   S    
C53   C54   S    
C39   C41   A    
C21   C31   A    
C1    O1    A    
C22   C32   A    
C35   C37   A    
C21   H7    S    
C3    C7    A    
C22   H8    S    
C43   C52   S    
C23   C49   S    
C16   C17   A    
C59   H52   S    
C15   C16   A    
C29   C33   A    
C33   C36   A    
N14   H37   S    
C34   C35   A    
N12   H33   S    
C11   C15   A    
C57   H46   S    
C12   C16   A    
C41   N9    S    
C59   C60   S    
N1    N3    A    
C60   H50   S    
N11   H31   S    
C32   C38   A    
C56   H19   S    
C20   N16   S    
C53   H16   S    
C27   N5    A    
C48   N14   S    
N17   H54   S    
C40   C42   A    
C57   C58   S    
C19   N15   S    
N9    H28   S    
C41   C43   A    
C37   C53   S    
C42   C44   A    
C2    O2    A    
O1    Zn1   S    
N10   H29   S    
C28   H3    S    
C44   C46   A    
C55   H22   S    
C45   C47   A    
C24   C50   S    
C46   C48   A    
C30   C34   A    
C9    H10   S    
C14   C20   A    
C18   N18   S    
C52   N4    A    
C6    C59   S    
C5    C7    A    
C13   C19   A    
C27   H4    S    
C24   O6    A    
C6    C8    A    
C58   H45   S    
C59   H51   S    
C31   C37   A    
C38   C55   S    
C1    C3    S    
C51   N2    A    
C2    C4    S    
C3    C9    A    
C6    C14   A    
C43   C45   A    
C57   H47   S    
N15   H39   S    
C33   C34   A    
C17   N17   S    
C51   N3    A    
C23   O7    A    
C56   H20   S    
C9    C11   A    
C53   H17   S    
N15   H40   S    
C10   C12   A    
C44   C51   S    
C24   O8    A    
C39   C49   A    
C12   C14   A    
C54   H13   S    
C54   H14   S    
O4    Zn1   S    
C46   N12   S    
C60   H48   S    
C26   N6    A    
N18   H56   S    
C10   H9    S    
C25   N5    A    
C25   H6    S    
C4    C10   A    
C36   C38   A    
N16   H42   S    
N13   H35   S    
O7    Zn2   S    
C47   N13   S    
C21   C25   A    
C55   H21   S    
C58   H44   S    
C42   N10   S    
N6    Zn1   S    
O8    Zn1   S    
N8    H26   S    
C5    C13   A    
C28   N6    A    
O6    Zn2   S    
C23   O5    A    
C2    O4    A    
N17   H53   S    
N7    H24   S    
C35   N7    S    
C47   C49   A    
C54   H15   S    
C40   H2    S    
C1    O3    A    
C28   C30   A    
C56   H18   S    
O2    Zn2   S    
C30   C32   A    
C11   C13   A    
C39   H1    S    
C58   H43   S    
C40   C50   A    
C48   C50   A    
C17   C19   A    
O3    Zn2   S    
N14   H38   S    
C18   C20   A    
C26   H5    S    
N12   H34   S    
C7    H12   S    
C8    H11   S    
C55   C56   S    
C29   C31   A    
N8    H25   S    
C22   C26   A    
C5    C57   S    
C60   H49   S    
N18   H55   S    
N5    Zn2   S    
C36   N8    S    
N16   H41   S    
O5    Zn1   S    
C52   N1    A    
C45   N11   S    
N13   H36   S    
