data_mof_unit_68464.cif
_audit_creation_date              2012-12-11T18:15:46-0500
_audit_creation_method            fapswitch 2.2
_symmetry_space_group_name_H-M    P1
_symmetry_Int_Tables_number       1
_space_group_crystal_system       triclinic
_cell_length_a                    20.184766
_cell_length_b                    20.112639
_cell_length_c                    8.370625
_cell_angle_alpha                 90.000062
_cell_angle_beta                  91.939334
_cell_angle_gamma                 89.897324
_cell_volume                      3396.26163175

loop_
_atom_site_label
_atom_site_type_symbol
_atom_type_description
_atom_site_fract_x
_atom_site_fract_y
_atom_site_fract_z
_atom_type_partial_charge
Ba1   Ba    Ba6+2 0.999980 0.452130 0.155200 1.657313
Ba2   Ba    Ba6+2 0.999980 0.547870 0.655200 1.652219
Ba3   Ba    Ba6+2 0.499980 0.952130 0.155200 1.646233
Ba4   Ba    Ba6+2 0.499980 0.047870 0.655200 1.635329
C1    C     C_3   0.956825 0.135639 0.414263 -0.395818
C2    C     C_R   0.113602 0.661194 0.179266 -0.299252
C3    C     C_R   0.612645 0.838930 0.680468 -0.285073
C4    C     C_R   0.613976 0.160917 0.179414 -0.296145
C5    C     C_R   0.124272 0.285255 0.579898 -0.001623
C6    C     C_R   0.127326 0.712961 0.075151 0.007060
C7    C     C_R   0.624437 0.785522 0.579843 -0.001202
C8    C     C_R   0.627768 0.212605 0.075425 0.013082
C9    C     C_R   0.169250 0.235942 0.627835 -0.152098
C10   C     C_R   0.175353 0.760009 0.118423 -0.149113
C11   C     C_R   0.669613 0.736405 0.627587 -0.149162
C12   C     C_3   0.955955 0.861131 0.942064 -0.410351
C13   C     C_R   0.675605 0.259884 0.118559 -0.143356
C14   C     C_R   0.208645 0.243278 0.768614 0.009064
C15   C     C_R   0.212228 0.754252 0.263071 0.005282
C16   C     C_R   0.708794 0.743574 0.768563 0.009367
C17   C     C_R   0.712118 0.254399 0.263790 0.005601
C18   C     C_R   0.200589 0.300269 0.866063 -0.019033
C19   C     C_R   0.202088 0.698861 0.364270 -0.026732
C20   C     C_R   0.700511 0.800332 0.866458 -0.019610
C21   C     C_R   0.701793 0.199139 0.365345 -0.030148
C22   C     C_R   0.797784 0.700883 0.948704 -0.025751
C23   C     C_3   0.457311 0.635479 0.414730 -0.398818
C24   C     C_R   0.797638 0.299490 0.449552 -0.034628
C25   C     C_R   0.298071 0.201026 0.948368 -0.022917
C26   C     C_R   0.298636 0.798704 0.447523 -0.031307
C27   C     C_R   0.788819 0.757128 0.048563 0.010560
C28   C     C_R   0.788176 0.243636 0.550559 0.017822
C29   C     C_R   0.289317 0.257502 0.047631 0.008467
C30   C     C_R   0.289243 0.742783 0.548347 0.014540
C31   C     C_R   0.846346 0.651747 0.994020 -0.027160
C32   C     C_R   0.845262 0.349119 0.496407 -0.022517
C33   C     C_R   0.346846 0.152077 0.993533 -0.010212
C34   C     C_3   0.463139 0.364184 0.966559 -0.398059
C35   C     C_R   0.346189 0.848406 0.494624 -0.011484
C36   C     C_R   0.882792 0.659747 0.137934 -0.260235
C37   C     C_R   0.880756 0.341674 0.641976 -0.240172
C38   C     C_R   0.383695 0.160507 0.136862 -0.275488
C39   C     C_R   0.381662 0.840943 0.640213 -0.246327
C40   C     C_3   0.995816 0.191561 0.841803 0.312120
C41   C     C_3   0.019154 0.790937 0.392757 0.353091
C42   C     C_3   0.496110 0.691105 0.842995 0.313655
C43   C     C_3   0.526603 0.286480 0.435523 0.350403
C44   C     C_R   0.871508 0.713346 0.239362 0.017131
C45   C     C_R   0.150480 0.347904 0.821578 0.053603
C46   C     C_R   0.870216 0.287608 0.742560 -0.005156
C47   C     C_R   0.372561 0.214327 0.238031 0.011111
C48   C     C_R   0.371097 0.786889 0.740792 -0.005819
C49   C     C_R   0.825642 0.762482 0.193764 -0.151281
C50   C     C_R   0.824456 0.238570 0.696718 -0.150836
C51   C     C_R   0.326463 0.263241 0.192350 -0.144265
C52   C     C_R   0.325529 0.737707 0.694546 -0.150878
C53   C     C_R   0.757108 0.695332 0.809575 -0.065971
C54   C     C_R   0.759412 0.303286 0.306061 -0.066953
C55   C     C_R   0.256950 0.195022 0.809965 -0.060730
C56   C     C_R   0.151334 0.651847 0.320715 0.039362
C57   C     C_R   0.259675 0.803046 0.305099 -0.057924
C58   C     C_3   0.046483 0.138376 0.888162 -0.345895
C59   C     C_3   0.049525 0.859849 0.395106 -0.392279
C60   C     C_3   0.546432 0.637692 0.889978 -0.347112
C61   C     C_3   0.562385 0.351737 0.464757 -0.377510
C62   C     C_3   0.760941 0.505586 0.973586 0.468249
C63   C     C_3   0.756945 0.491306 0.466024 0.509251
C64   C     C_3   0.262579 0.004870 0.978348 0.465964
C65   C     C_3   0.256284 0.989129 0.468774 0.472712
C66   C     C_3   0.700986 0.553002 0.972990 -0.389296
C67   C     C_R   0.650422 0.847959 0.821822 0.054738
C68   C     C_3   0.689807 0.465121 0.404480 -0.418535
C69   C     C_3   0.200809 0.049539 0.984264 -0.377360
C70   C     C_3   0.194610 0.947142 0.432181 -0.399872
C71   C     C_3   0.189520 0.540652 0.996761 0.333816
C72   C     C_3   0.189016 0.458667 0.495742 0.332687
C73   C     C_3   0.689734 0.040504 0.997092 0.333616
C74   C     C_3   0.689004 0.958760 0.496150 0.333815
C75   C     C_3   0.250630 0.584748 0.989046 -0.039094
C76   C     C_3   0.250531 0.414453 0.494712 -0.045432
C77   C     C_3   0.750874 0.084551 0.989271 -0.038370
C78   C     C_R   0.651363 0.151866 0.321231 0.037045
C79   C     C_3   0.750316 0.914387 0.493243 -0.043509
C80   C     C_3   0.980370 0.206855 0.395315 0.390478
C81   C     C_3   0.978851 0.791358 0.900896 0.350242
C82   C     C_3   0.480709 0.706747 0.395952 0.388149
C83   C     C_3   0.483284 0.293077 0.929739 0.344706
C84   C     C_R   0.242477 0.307019 0.003765 -0.043943
C85   C     C_R   0.242690 0.693098 0.504398 -0.044112
C86   C     C_R   0.742175 0.806829 0.004620 -0.043818
C87   C     C_R   0.741992 0.193696 0.506146 -0.043734
C88   C     C_3   0.370265 0.581934 0.038031 -0.211831
C89   C     C_R   0.112649 0.338797 0.680334 -0.284645
C90   C     C_3   0.368154 0.413520 0.572098 -0.194315
C91   C     C_3   0.870558 0.081566 0.037043 -0.212093
C92   C     C_3   0.868664 0.914217 0.562260 -0.196610
C93   C     C_3   0.689237 0.415961 0.856963 -0.248362
C94   C     C_3   0.745799 0.609484 0.381553 -0.161863
C95   C     C_3   0.193780 0.913635 0.861416 -0.255568
C96   C     C_3   0.273861 0.108220 0.402720 -0.087277
H1    H     H_    0.946857 0.232680 0.307566 0.097523
H2    H     H_    0.672905 0.492022 0.295197 0.126155
H3    H     H_    0.410312 0.549380 0.087784 0.100975
H4    H     H_    0.293074 0.453364 0.705901 0.221365
H5    H     H_    0.368428 0.363563 0.628842 0.139960
H6    H     H_    0.406840 0.444863 0.631619 0.097686
H7    H     H_    0.380163 0.408977 0.443958 0.132718
H8    H     H_    0.800814 0.042314 0.187354 0.215908
H9    H     H_    0.873833 0.131193 0.094738 0.142442
H10   H     H_    0.877364 0.086520 0.906391 0.114955
H11   H     H_    0.910673 0.049009 0.086464 0.100778
H12   H     H_    0.795151 0.954353 0.700614 0.220203
H13   H     H_    0.167318 0.031473 0.077287 0.110000
H14   H     H_    0.869783 0.864578 0.620513 0.138390
H15   H     H_    0.907916 0.946029 0.617877 0.100355
H16   H     H_    0.879043 0.909010 0.433307 0.126905
H17   H     H_    0.779321 0.403570 0.982096 0.206186
H18   H     H_    0.699849 0.365231 0.811959 0.104156
H19   H     H_    0.686909 0.449806 0.753115 0.107645
H20   H     H_    0.640232 0.415766 0.913151 0.128267
H21   H     H_    0.716410 0.568731 0.596270 0.152605
H22   H     H_    0.761244 0.658752 0.428031 0.102998
H23   H     H_    0.694137 0.612390 0.331939 0.082439
H24   H     H_    0.182766 0.946283 0.301712 0.135346
H25   H     H_    0.779698 0.598018 0.284425 0.097059
H26   H     H_    0.284929 0.903964 0.981310 0.211510
H27   H     H_    0.192763 0.946006 0.754489 0.111992
H28   H     H_    0.144295 0.915342 0.916034 0.129730
H29   H     H_    0.203946 0.862108 0.820669 0.104886
H30   H     H_    0.216474 0.070971 0.590663 0.162396
H31   H     H_    0.261888 0.158609 0.444761 0.072706
H32   H     H_    0.262579 0.106417 0.272648 0.063759
H33   H     H_    0.327626 0.099542 0.424480 0.137820
H34   H     H_    0.715166 0.601554 0.025534 0.052780
H35   H     H_    0.651657 0.471477 0.495689 0.073225
H36   H     H_    0.214561 0.101048 0.015341 0.058001
H37   H     H_    0.150945 0.967603 0.492930 0.093189
H38   H     H_    0.174660 0.536129 0.122155 -0.009641
H39   H     H_    0.171488 0.462842 0.619009 -0.011001
H40   H     H_    0.675033 0.035845 0.122581 -0.008371
H41   H     H_    0.945849 0.771117 0.804029 0.095462
H42   H     H_    0.672229 0.963075 0.620034 -0.010161
H43   H     H_    0.148984 0.564033 0.923061 0.023089
H44   H     H_    0.150035 0.435425 0.417309 0.026648
H45   H     H_    0.649135 0.064002 0.923815 0.022774
H46   H     H_    0.649541 0.935582 0.419021 0.026248
H47   H     H_    0.241418 0.633487 0.046098 0.017904
H48   H     H_    0.239263 0.364639 0.543656 0.017663
H49   H     H_    0.741817 0.133188 0.046986 0.017678
H50   H     H_    0.739529 0.864949 0.544929 0.016274
H51   H     H_    0.260812 0.593341 0.860900 0.084095
H52   H     H_    0.447059 0.732594 0.308493 0.097988
H53   H     H_    0.265074 0.408334 0.368526 0.085232
H54   H     H_    0.760849 0.093377 0.861104 0.083837
H55   H     H_    0.763502 0.907389 0.366357 0.084647
H56   H     H_    0.977205 0.232078 0.513013 -0.107197
H57   H     H_    0.973960 0.760123 0.009387 -0.046436
H58   H     H_    0.477651 0.731844 0.513838 -0.103309
H59   H     H_    0.485979 0.265551 0.045299 -0.050535
H60   H     H_    0.903999 0.135170 0.447403 0.075311
H61   H     H_    0.902503 0.860589 0.969334 0.082646
H62   H     H_    0.404512 0.634886 0.448094 0.076698
H63   H     H_    0.444519 0.270097 0.849977 0.076395
H64   H     H_    0.412759 0.364852 0.015931 0.083074
H65   H     H_    0.962258 0.108221 0.300713 0.129426
H66   H     H_    0.963779 0.895175 0.840301 0.126484
H67   H     H_    0.462710 0.608156 0.301026 0.129341
H68   H     H_    0.463018 0.394686 0.856144 0.119133
H69   H     H_    0.074610 0.124043 0.781692 0.055026
H70   H     H_    0.095415 0.859067 0.325923 0.076207
H71   H     H_    0.574377 0.622917 0.783572 0.053944
H72   H     H_    0.616517 0.342358 0.463007 0.076363
H73   H     H_    0.076272 0.375798 0.643405 0.060631
H74   H     H_    0.680650 0.561203 0.850079 0.100158
H75   H     H_    0.075697 0.625470 0.144941 0.066080
H76   H     H_    0.576211 0.875888 0.643607 0.061886
H77   H     H_    0.576197 0.125096 0.144821 0.066322
H78   H     H_    0.173178 0.192311 0.554148 0.073496
H79   H     H_    0.184425 0.800657 0.038566 0.080645
H80   H     H_    0.673867 0.692975 0.553866 0.063964
H81   H     H_    0.684693 0.300525 0.038238 0.080370
H82   H     H_    0.818153 0.804282 0.272699 0.060250
H83   H     H_    0.817093 0.196727 0.775515 0.054073
H84   H     H_    0.319029 0.305185 0.270894 0.062306
H85   H     H_    0.694004 0.411958 0.374688 0.082054
H86   H     H_    0.318079 0.695910 0.773421 0.054302
H87   H     H_    0.918895 0.622430 0.174541 0.076589
H88   H     H_    0.916438 0.379191 0.679077 0.071984
H89   H     H_    0.419931 0.123307 0.173369 0.076025
H90   H     H_    0.417113 0.878610 0.677722 0.072887
H91   H     H_    0.238861 0.350262 0.079506 0.094462
H92   H     H_    0.238085 0.650649 0.582199 0.096586
H93   H     H_    0.738496 0.849951 0.080714 0.095220
H94   H     H_    0.737461 0.151235 0.583926 0.097743
H95   H     H_    0.762302 0.653179 0.732681 0.104170
H96   H     H_    0.173441 0.050295 0.867200 0.101899
H97   H     H_    0.764967 0.344896 0.226651 0.100213
H98   H     H_    0.261702 0.152374 0.734305 0.088949
H99   H     H_    0.264337 0.845347 0.227394 0.105807
H100  H     H_    0.987241 0.110087 0.508756 0.106424
H101  H     H_    0.984760 0.879810 0.047995 0.110337
H102  H     H_    0.487845 0.609928 0.509023 0.105304
H103  H     H_    0.498762 0.386126 0.055881 0.109990
H104  H     H_    0.023281 0.234855 0.794503 -0.001732
H105  H     H_    0.053666 0.756705 0.458815 0.080569
H106  H     H_    0.523852 0.734185 0.795510 -0.001652
H107  H     H_    0.202292 0.895790 0.476243 0.059435
H108  H     H_    0.548975 0.249512 0.519783 0.113724
H109  H     H_    0.961461 0.171135 0.748069 -0.015815
H110  H     H_    0.013504 0.774829 0.266147 -0.059565
H111  H     H_    0.461731 0.670720 0.749224 -0.016384
H112  H     H_    0.534265 0.270590 0.310269 -0.044066
H113  H     H_    0.081748 0.157815 0.981595 0.148300
H114  H     H_    0.061687 0.875089 0.520238 0.136348
H115  H     H_    0.581863 0.657118 0.983076 0.146592
H116  H     H_    0.550360 0.372255 0.583713 0.149939
H117  H     H_    0.021230 0.093720 0.934693 0.107171
H118  H     H_    0.660702 0.532575 0.045039 0.100719
H119  H     H_    0.014389 0.896365 0.339728 0.110894
H120  H     H_    0.520910 0.593319 0.937156 0.106267
H121  H     H_    0.547837 0.388304 0.370257 0.101620
H122  H     H_    0.790467 0.514357 0.083825 0.054696
H123  H     H_    0.772434 0.462658 0.574403 0.005742
H124  H     H_    0.293306 0.014650 0.086331 0.062369
H125  H     H_    0.279700 0.972883 0.583653 0.036020
H126  H     H_    0.300284 0.542928 0.188051 0.215459
H127  H     H_    0.373505 0.631590 0.095604 0.142313
H128  H     H_    0.377227 0.586805 0.907426 0.114909
N1    N     N_2   0.306856 0.552448 0.068483 -0.404608
N2    N     N_2   0.304204 0.444584 0.588389 -0.410836
N3    N     N_2   0.807193 0.052047 0.067804 -0.404533
N4    N     N_2   0.804900 0.945098 0.582467 -0.409555
N5    N     N_2   0.739912 0.436348 0.974105 -0.430224
N6    N     N_2   0.750578 0.560813 0.509746 -0.384155
N7    N     N_2   0.244253 0.934945 0.978143 -0.431255
N8    N     N_2   0.235434 0.058069 0.482364 -0.426849
O1    O     O_2   0.130070 0.404060 0.104920 -0.467792
O2    O     O_3   0.957737 0.793229 0.466582 -0.613097
O3    O     O_3   0.459810 0.708483 0.976760 -0.590388
O4    O     O_3   0.458880 0.294928 0.463063 -0.616451
O5    O     O_3   0.924190 0.533610 0.949240 -0.471754
O6    O     O_3   0.924190 0.466390 0.449240 -0.456187
O7    O     O_3   0.424190 0.033610 0.949240 -0.469709
O8    O     O_3   0.424190 0.966390 0.449240 -0.466657
O9    O     O_3   0.075780 0.466370 0.861070 -0.492293
O10   O     O_3   0.075780 0.533630 0.361070 -0.492509
O11   O     O_3   0.575780 0.966370 0.861070 -0.491434
O12   O     O_2   0.130070 0.595940 0.604920 -0.469156
O13   O     O_3   0.575780 0.033630 0.361070 -0.491136
O14   O     O_3   0.022320 0.344950 0.359800 -0.485659
O15   O     O_3   0.022320 0.655050 0.859800 -0.485510
O16   O     O_3   0.522320 0.844950 0.359800 -0.482686
O17   O     O_3   0.522320 0.155050 0.859800 -0.480419
O18   O     O_2   0.132476 0.292280 0.247871 -0.478636
O19   O     O_2   0.130206 0.709654 0.740759 -0.490069
O20   O     O_2   0.632555 0.792413 0.247851 -0.480040
O21   O     O_2   0.630528 0.209951 0.741596 -0.502425
O22   O     O_3   0.206081 0.477942 0.938207 -0.642346
O23   O     O_2   0.630070 0.904060 0.104920 -0.467218
O24   O     O_3   0.206148 0.521597 0.439648 -0.638517
O25   O     O_3   0.706149 0.977854 0.937965 -0.641562
O26   O     O_3   0.706093 0.021597 0.439424 -0.637258
O27   O     O_3   0.045195 0.206085 0.338844 -0.583401
O28   O     O_3   0.044221 0.794229 0.847819 -0.598815
O29   O     O_3   0.545475 0.706121 0.339118 -0.587867
O30   O     O_3   0.544028 0.293645 0.851735 -0.605803
O31   O     O_2   0.869860 0.403670 0.205810 -0.456879
O32   O     O_2   0.869860 0.596330 0.705810 -0.417451
O33   O     O_2   0.369860 0.903670 0.205810 -0.453910
O34   O     O_2   0.630070 0.095940 0.604920 -0.470793
O35   O     O_2   0.369860 0.096330 0.705810 -0.446556
O36   O     O_3   0.977590 0.344880 0.951200 -0.456977
O37   O     O_3   0.977590 0.655120 0.451200 -0.476192
O38   O     O_3   0.477590 0.844880 0.951200 -0.456026
O39   O     O_3   0.477590 0.155120 0.451200 -0.488903
O40   O     O_2   0.871554 0.291115 0.077678 -0.495732
O41   O     O_2   0.871127 0.710389 0.574947 -0.491677
O42   O     O_2   0.371234 0.791101 0.075929 -0.496123
O43   O     O_2   0.372480 0.212651 0.574345 -0.494762
O44   O     O_3   0.802500 0.486109 0.344066 -0.629868
O45   O     O_3   0.799834 0.516077 0.839935 -0.628719
O46   O     O_3   0.299973 0.983371 0.342734 -0.639565
O47   O     O_3   0.298631 0.017555 0.841449 -0.642808
O48   O     O_3   0.959508 0.208512 0.975852 -0.591121
P1    P     P_3+3 0.136530 0.426510 0.931350 0.970370
P2    P     P_3+3 0.917601 0.717363 0.432908 0.950023
P3    P     P_3+3 0.417684 0.782727 0.934473 0.953971
P4    P     P_3+3 0.418868 0.218713 0.431704 0.925291
P5    P     P_3+3 0.082499 0.717037 0.880357 0.944897
P6    P     P_3+3 0.082349 0.282787 0.381548 0.965811
P7    P     P_3+3 0.582834 0.216638 0.881387 0.934234
P8    P     P_3+3 0.582475 0.782912 0.381600 0.961302
P9    P     P_3+3 0.136530 0.573490 0.431350 0.967893
P10   P     P_3+3 0.636530 0.926510 0.931350 0.971457
P11   P     P_3+3 0.636530 0.073490 0.431350 0.966039
P12   P     P_3+3 0.863410 0.426100 0.379280 0.996740
P13   P     P_3+3 0.863410 0.573900 0.879280 0.994499
P14   P     P_3+3 0.363410 0.926100 0.379280 0.980959
P15   P     P_3+3 0.363410 0.073900 0.879280 0.979959
P16   P     P_3+3 0.917459 0.282939 0.935151 0.954636

loop_
_geom_bond_atom_site_label_1
_geom_bond_atom_site_label_2
_ccdc_geom_bond_type
C29   C51   A    
C30   C52   A    
C23   H102  S    
C62   H122  S    
C48   P3    S    
C63   N6    S    
Ba1   O36   S    
C8    P7    S    
C72   O24   S    
C66   H118  S    
C73   O25   S    
C9    C14   A    
C53   H95   S    
C29   C84   A    
C23   H62   S    
C79   N4    S    
C25   C29   A    
C59   H119  S    
C33   C38   A    
C5    C9    A    
C46   P16   S    
C7    C11   A    
C19   C85   A    
Ba4   O7    S    
C64   O47   S    
C94   H23   S    
C92   H14   S    
O17   P7    S    
C61   H121  S    
C1    H100  S    
C11   C16   A    
C70   H37   S    
O42   P3    D    
C95   H29   S    
O9    P1    S    
C47   P4    S    
C24   C28   A    
C91   H9    S    
C36   H87   S    
C13   C17   A    
C23   C82   S    
C15   C19   A    
C82   H52   S    
Ba1   O31   S    
C71   O22   S    
C27   C86   A    
Ba2   O32   S    
C65   C70   S    
C63   H123  S    
C71   H43   S    
C18   C45   A    
C75   H47   S    
C72   H44   S    
C7    P8    S    
C12   C81   S    
O15   P5    S    
C96   N8    S    
Ba3   O38   S    
C36   C44   A    
O3    P3    S    
O4    P4    S    
Ba1   P12   S    
C10   C15   A    
C65   N8    S    
Ba3   P10   S    
C76   N2    S    
C59   H70   S    
C71   H38   S    
C20   C86   A    
C96   H32   S    
C95   H28   S    
C24   C54   A    
C60   H71   S    
C31   C36   A    
Ba2   O15   S    
C80   H56   S    
C62   C66   S    
C86   H93   S    
C15   C57   A    
Ba3   O23   S    
C89   H73   S    
C83   H59   S    
O12   P9    D    
C35   P14   S    
C47   C51   A    
C22   C53   A    
C68   H85   S    
C74   H46   S    
C83   O30   S    
O47   P15   S    
C22   C31   A    
C32   P12   S    
H21   N6    S    
C77   N3    S    
C26   C57   A    
C66   H34   S    
C50   H83   S    
C92   H16   S    
C45   C89   A    
O18   P6    D    
C71   C75   S    
C33   P15   S    
C84   H91   S    
C73   H40   S    
C57   H99   S    
O8    P14   S    
C76   H53   S    
Ba2   O9    S    
C77   H49   S    
C39   C48   A    
C79   H55   S    
C9    H78   S    
C63   C68   S    
C75   N1    S    
C94   H25   S    
C65   O46   S    
C88   H127  S    
C51   H84   S    
C79   H50   S    
C74   O26   S    
Ba2   P9    S    
C64   H124  S    
C74   C79   S    
O33   P14   D    
C70   H107  S    
C44   C49   A    
C90   H7    S    
C26   C30   A    
C61   H72   S    
C58   H117  S    
C6    C10   A    
C81   H41   S    
C1    C80   S    
C68   H35   S    
Ba1   O1    S    
C93   H19   S    
C76   H48   S    
Ba4   O11   S    
C64   N7    S    
Ba2   O6    S    
O14   P6    S    
C56   P9    S    
C94   N6    S    
H17   N5    S    
C4    C8    A    
C1    H60   S    
C3    H76   S    
C42   O3    S    
C66   H74   S    
C24   C32   A    
C69   H96   S    
Ba2   P13   S    
Ba3   Ba4   S    
O21   P7    D    
C72   H39   S    
C42   H106  S    
C17   C21   A    
C14   C18   A    
Ba4   O39   S    
C72   C76   S    
Ba3   O33   S    
C30   C85   A    
C17   C54   A    
O19   P5    D    
C49   H82   S    
C68   H2    S    
C88   N1    S    
H30   N8    S    
O44   P12   S    
C85   H92   S    
C26   C35   A    
O28   P5    S    
C59   H114  S    
Ba1   O6    S    
C13   H81   S    
C14   C55   A    
O7    P15   S    
C40   H104  S    
C25   C55   A    
Ba4   O8    S    
C70   H24   S    
C54   H97   S    
C5    C89   A    
C60   H115  S    
Ba4   P11   S    
O1    P1    D    
Ba1   P1    S    
C34   H68   S    
O11   P10   S    
C90   N2    S    
C46   C50   A    
C43   H108  S    
O22   P1    S    
C4    C78   A    
C91   N3    S    
C78   P11   S    
C74   H42   S    
C5    P6    S    
C2    H75   S    
C55   H98   S    
C42   H111  S    
C40   O48   S    
C90   H5    S    
C69   H13   S    
C94   H22   S    
Ba2   O12   S    
C44   P2    S    
C4    H77   S    
C39   H90   S    
C8    C13   A    
C18   C84   A    
O36   P16   S    
Ba4   O35   S    
O37   P2    S    
C32   C37   A    
C81   H57   S    
O39   P4    S    
C28   C50   A    
O40   P16   D    
O13   P11   S    
C62   N5    S    
Ba3   O13   S    
O45   P13   S    
C95   H27   S    
O48   P16   S    
C37   H88   S    
O16   P8    S    
C62   O45   S    
H4    N2    S    
C69   H36   S    
C73   C77   S    
C52   H86   S    
C34   H103  S    
C21   C78   A    
C58   H113  S    
C81   O28   S    
C12   H101  S    
C37   C46   A    
C58   H69   S    
C41   H105  S    
C91   H10   S    
C65   H125  S    
C2    C6    A    
O5    P13   S    
O6    P12   S    
C12   H61   S    
O10   P9    S    
H12   N4    S    
C34   C83   S    
O35   P15   D    
Ba2   O37   S    
C38   H89   S    
C88   H128  S    
C25   C33   A    
O38   P3    S    
C82   O29   S    
C83   H63   S    
C96   H31   S    
C3    C7    A    
C45   P1    S    
C40   H109  S    
Ba1   O10   S    
C3    C67   A    
C11   H80   S    
C28   C87   A    
Ba1   Ba2   S    
C93   H18   S    
C41   O2    S    
C88   H3    S    
O34   P11   D    
C16   C20   A    
C12   H66   S    
O29   P8    S    
C80   O27   S    
O30   P7    S    
Ba4   P15   S    
C1    H65   S    
C10   H79   S    
O2    P2    S    
C38   C47   A    
Ba3   O8    S    
C34   H64   S    
C22   C27   A    
C43   H112  S    
C80   H1    S    
Ba4   O17   S    
C6    P5    S    
Ba4   O34   S    
C19   C56   A    
C31   P13   S    
C21   C87   A    
C60   H120  S    
C2    C56   A    
Ba3   O16   S    
O23   P10   D    
C61   H116  S    
C87   H94   S    
Ba1   O14   S    
C35   C39   A    
C40   C58   S    
C64   C69   S    
C41   C59   S    
C77   H54   S    
C42   C60   S    
C67   P10   S    
Ba3   P14   S    
O32   P13   D    
C95   N7    S    
C93   N5    S    
C92   H15   S    
Ba3   O7    S    
C27   C49   A    
H26   N7    S    
C82   H58   S    
Ba1   O5    S    
O27   P6    S    
C73   H45   S    
O20   P8    D    
C96   H33   S    
O46   P14   S    
C75   H51   S    
C90   H6    S    
H126  N1    S    
O41   P2    D    
C41   H110  S    
O43   P4    D    
C93   H20   S    
C63   O44   S    
C91   H11   S    
C92   N4    S    
O31   P12   D    
Ba2   O5    S    
C43   O4    S    
O24   P9    S    
O26   P11   S    
C16   C53   A    
O25   P10   S    
C43   C61   S    
C48   C52   A    
C20   C67   A    
C23   H67   S    
H8    N3    S    
