data_mof_unit_51250.cif
_audit_creation_date              2012-12-10T18:09:16-0500
_audit_creation_method            fapswitch 2.2
_symmetry_space_group_name_H-M    P1
_symmetry_Int_Tables_number       1
_space_group_crystal_system       triclinic
_cell_length_a                    21.771632
_cell_length_b                    21.773289
_cell_length_c                    18.314952
_cell_angle_alpha                 90.414268
_cell_angle_beta                  90.050333
_cell_angle_gamma                 89.924818
_cell_volume                      8681.78280705

loop_
_atom_site_label
_atom_site_type_symbol
_atom_type_description
_atom_site_fract_x
_atom_site_fract_y
_atom_site_fract_z
_atom_type_partial_charge
C1    C     C_R   0.000181 0.379854 0.500085 0.878740
C2    C     C_R   0.500011 0.999822 0.359055 0.918431
C3    C     C_3   0.873923 0.291485 0.344425 -0.353157
C4    C     C_3   0.832006 0.340199 0.311258 -0.948419
C5    C     C_3   0.681027 0.911841 0.406652 -0.348567
C6    C     C_3   0.712938 0.865381 0.356299 -0.353929
C7    C     C_3   0.667905 0.816000 0.330119 -0.945009
C8    C     C_3   0.603518 0.812459 0.073930 -0.350904
C9    C     C_3   0.586716 0.848317 0.143647 -0.312050
C10   C     C_3   0.638718 0.891555 0.166041 -0.856769
C11   C     C_3   0.811113 0.391195 0.059591 -0.343911
C12   C     C_3   0.848028 0.401349 0.130151 -0.307266
C13   C     C_R   0.000017 0.499886 0.640944 0.918761
C14   C     C_3   0.894057 0.349209 0.141556 -0.843213
C15   C     C_3   0.392384 0.189374 0.062426 -0.344679
C16   C     C_3   0.403861 0.152619 0.132424 -0.307984
C17   C     C_3   0.352120 0.106491 0.144985 -0.842971
C18   C     C_3   0.188784 0.607400 0.063313 -0.345757
C19   C     C_3   0.151704 0.595698 0.133098 -0.306513
C20   C     C_3   0.105960 0.647798 0.146982 -0.843665
C21   C     C_3   0.603140 0.187308 0.925855 -0.350652
C22   C     C_3   0.586143 0.151465 0.856197 -0.312009
C23   C     C_3   0.638148 0.108182 0.833656 -0.856856
C24   C     C_R   0.499976 0.000177 0.640945 0.918430
C25   C     C_3   0.810802 0.608935 0.940454 -0.343817
C26   C     C_3   0.847634 0.598836 0.869860 -0.307367
C27   C     C_3   0.893664 0.650872 0.858646 -0.843840
C28   C     C_3   0.391903 0.810742 0.938980 -0.344441
C29   C     C_3   0.402719 0.847613 0.868995 -0.306152
C30   C     C_3   0.350833 0.893873 0.857127 -0.842514
C31   C     C_3   0.187713 0.397108 0.924028 -0.352127
C32   C     C_3   0.152711 0.414977 0.854463 -0.313685
C33   C     C_3   0.110021 0.363195 0.829887 -0.860207
C34   C     C_3   0.103482 0.148789 0.625762 -0.790322
C35   C     C_R   0.499967 0.999894 0.859062 0.921469
C36   C     C_3   0.154192 0.875753 0.587743 -0.809614
C37   C     C_3   0.868848 0.844967 0.568672 -0.816698
C38   C     C_3   0.851602 0.103241 0.625981 -0.791975
C39   C     C_3   0.122363 0.845773 0.405864 -0.818916
C40   C     C_3   0.154747 0.129932 0.428421 -0.814543
C41   C     C_3   0.869979 0.155164 0.427558 -0.818261
C42   C     C_3   0.851331 0.898704 0.371144 -0.785188
C43   C     C_3   0.579497 0.679312 0.160420 -0.742669
C44   C     C_3   0.680761 0.415204 0.154868 -0.746211
C45   C     C_3   0.418319 0.319881 0.157090 -0.744642
C46   C     C_R   0.999800 0.499827 0.859065 0.920836
C47   C     C_3   0.319008 0.581546 0.157856 -0.745746
C48   C     C_3   0.578845 0.320505 0.839454 -0.742756
C49   C     C_3   0.680482 0.584818 0.845062 -0.746080
C50   C     C_3   0.417681 0.680478 0.843407 -0.745862
C51   C     C_3   0.322668 0.418974 0.840590 -0.741832
C52   C     C_R   0.500013 0.000083 0.140937 0.921607
C53   C     C_R   0.999952 0.500182 0.140935 0.921692
C54   C     C_1   0.999937 0.500407 0.282406 -0.210040
C55   C     C_1   0.500024 0.999555 0.282402 -0.211136
C56   C     C_1   0.000009 0.499627 0.717594 -0.211074
C57   C     C_R   0.379943 0.000062 0.499744 0.875572
C58   C     C_1   0.499918 0.000439 0.717598 -0.211282
C59   C     C_1   0.499903 0.000247 0.782427 -0.210139
C60   C     C_1   0.999903 0.499541 0.782424 -0.209098
C61   C     C_1   0.500030 0.999736 0.217572 -0.210029
C62   C     C_1   0.999934 0.500494 0.217575 -0.211923
C63   C     C_R   0.041378 0.281873 0.547657 0.021920
C64   C     C_R   0.282474 0.959915 0.548900 0.024184
C65   C     C_R   0.958387 0.718221 0.547282 0.024512
C66   C     C_R   0.718105 0.040303 0.549246 0.021811
C67   C     C_R   0.040406 0.717237 0.450911 0.024266
C68   C     C_R   0.999973 0.620062 0.500242 0.875929
C69   C     C_R   0.282079 0.041590 0.452707 0.024418
C70   C     C_R   0.959032 0.281906 0.451718 0.025213
C71   C     C_R   0.718164 0.959951 0.450712 0.022097
C72   C     C_R   0.547974 0.780476 0.038886 0.044146
C73   C     C_R   0.779975 0.449956 0.032469 0.042594
C74   C     C_R   0.450548 0.220174 0.033072 0.041473
C75   C     C_R   0.219892 0.549255 0.033431 0.041518
C76   C     C_R   0.547682 0.219393 0.961068 0.043963
C77   C     C_R   0.779823 0.550185 0.967561 0.042575
C78   C     C_R   0.450407 0.779889 0.967569 0.041410
C79   C     C_R   0.620135 0.999980 0.500091 0.882400
C80   C     C_R   0.219684 0.452039 0.960665 0.044469
C81   C     C_R   0.034123 0.218329 0.554856 0.175567
C82   C     C_R   0.218364 0.963011 0.551586 0.179918
C83   C     C_R   0.960453 0.782359 0.548175 0.180830
C84   C     C_R   0.781742 0.033209 0.555648 0.179304
C85   C     C_R   0.036727 0.781289 0.447410 0.179317
C86   C     C_R   0.217947 0.039221 0.451306 0.179632
C87   C     C_R   0.961168 0.217751 0.450475 0.180301
C88   C     C_R   0.781714 0.967419 0.443935 0.178539
C89   C     C_R   0.545515 0.716417 0.041325 0.140844
C90   C     C_R   0.499949 0.879562 0.000908 0.894196
C91   C     C_R   0.716103 0.453253 0.036924 0.140658
C92   C     C_R   0.454087 0.284029 0.037610 0.142040
C93   C     C_R   0.283708 0.545638 0.038174 0.141799
C94   C     C_R   0.545190 0.283444 0.958608 0.141200
C95   C     C_R   0.715944 0.546908 0.963128 0.140468
C96   C     C_R   0.454030 0.716059 0.962785 0.142292
C97   C     C_R   0.283811 0.454089 0.959020 0.141188
C98   C     C_R   0.998213 0.186598 0.502040 -0.216732
C99   C     C_R   0.186709 0.000628 0.500910 -0.208276
C100  C     C_R   0.999150 0.813280 0.498371 -0.208522
C101  C     C_R   0.879498 0.500030 0.999996 0.892913
C102  C     C_R   0.813376 0.000276 0.499823 -0.230618
C103  C     C_R   0.500307 0.685360 0.001065 -0.184848
C104  C     C_R   0.685194 0.500095 0.000056 -0.181654
C105  C     C_R   0.500126 0.314618 0.998989 -0.184980
C106  C     C_R   0.314623 0.499361 0.999571 -0.185556
C107  C     C_R   0.879541 0.000141 0.499950 0.925265
C108  C     C_R   0.999187 0.120424 0.500602 0.930015
C109  C     C_R   0.120455 0.000264 0.500228 0.916290
C110  C     C_R   0.999775 0.879539 0.499523 0.916627
C111  C     C_R   0.380051 0.499378 0.999932 0.886428
C112  C     C_R   0.499892 0.120432 0.999196 0.894769
C113  C     C_R   0.500538 0.619946 0.000274 0.884970
C114  C     C_R   0.619889 0.500062 0.000023 0.884351
C115  C     C_R   0.500397 0.380044 0.999736 0.884422
C116  C     C_R   0.000666 0.313176 0.499250 -0.205292
C117  C     C_R   0.313393 0.000302 0.500168 -0.205534
C118  C     C_R   0.999877 0.686614 0.499849 -0.205789
C119  C     C_R   0.686772 1.000000 0.500102 -0.203236
C120  C     C_R   0.499535 0.812583 0.002425 -0.190822
C121  C     C_R   0.812409 0.500071 0.000023 -0.193615
C122  C     C_R   0.499431 0.187396 0.997784 -0.190688
C123  C     C_R   0.120432 0.500041 0.999041 0.894771
C124  C     C_R   0.187408 0.500397 0.997666 -0.190118
C125  C     C_3   0.090340 0.319103 0.590227 -0.345750
C126  C     C_3   0.137326 0.287394 0.639527 -0.354619
C127  C     C_3   0.186972 0.332507 0.664748 -0.944838
C128  C     C_3   0.321104 0.914565 0.594994 -0.337223
C129  C     C_3   0.293942 0.875485 0.656410 -0.353726
C130  C     C_3   0.343184 0.833049 0.687583 -0.950402
C131  C     C_3   0.912583 0.680481 0.593624 -0.337827
C132  C     C_3   0.873298 0.709349 0.654509 -0.353183
C133  C     C_3   0.831690 0.660841 0.688340 -0.947938
C134  C     C_R   0.999978 0.500123 0.359056 0.917611
C135  C     C_3   0.680866 0.088373 0.593367 -0.348675
C136  C     C_3   0.712678 0.135081 0.643471 -0.353664
C137  C     C_3   0.667363 0.184191 0.669913 -0.945665
C138  C     C_3   0.086184 0.678295 0.405171 -0.338363
C139  C     C_3   0.126977 0.705204 0.345152 -0.352290
C140  C     C_3   0.169719 0.655642 0.314542 -0.950883
C141  C     C_3   0.320137 0.087490 0.406910 -0.337804
C142  C     C_3   0.291834 0.127228 0.346596 -0.353224
C143  C     C_3   0.340582 0.169451 0.314230 -0.947757
C144  C     C_3   0.913254 0.319955 0.405517 -0.338228
H1    H     H_    0.216235 0.346031 0.617888 0.261788
H2    H     H_    0.323852 0.806969 0.734035 0.261712
H3    H     H_    0.346385 0.924995 0.905140 0.272029
H4    H     H_    0.360839 0.922488 0.808702 0.255504
H5    H     H_    0.447063 0.872488 0.870234 0.222506
H6    H     H_    0.405181 0.815314 0.822094 0.206781
H7    H     H_    0.354860 0.777250 0.926819 0.200763
H8    H     H_    0.370672 0.838631 0.983159 0.209125
H9    H     H_    0.137000 0.321194 0.816986 0.249927
H10   H     H_    0.076452 0.352381 0.873534 0.274939
H11   H     H_    0.084234 0.377380 0.780459 0.253497
H12   H     H_    0.125174 0.457214 0.862960 0.220094
H13   H     H_    0.275310 0.905382 0.700583 0.236477
H14   H     H_    0.186070 0.424653 0.810215 0.208062
H15   H     H_    0.220442 0.360274 0.908344 0.207309
H16   H     H_    0.158176 0.373046 0.963818 0.212286
H17   H     H_    0.014482 0.177756 0.655257 0.232432
H18   H     H_    0.132929 0.161875 0.672764 0.217607
H19   H     H_    0.131342 0.150672 0.575513 0.231922
H20   H     H_    0.088871 0.100996 0.636207 0.274085
H21   H     H_    0.164364 0.958875 0.645685 0.243120
H22   H     H_    0.140978 0.850590 0.637814 0.233484
H23   H     H_    0.183911 0.845550 0.554014 0.230311
H24   H     H_    0.258408 0.844213 0.635345 0.258376
H25   H     H_    0.112229 0.886320 0.557161 0.262425
H26   H     H_    0.945711 0.840163 0.638314 0.246072
H27   H     H_    0.838742 0.860847 0.613923 0.233847
H28   H     H_    0.842639 0.812333 0.533694 0.233535
H29   H     H_    0.881988 0.885034 0.536211 0.250433
H30   H     H_    0.824026 0.013923 0.655550 0.234732
H31   H     H_    0.838823 0.132662 0.673249 0.216895
H32   H     H_    0.848598 0.130896 0.575748 0.231127
H33   H     H_    0.899751 0.089255 0.635907 0.273576
H34   H     H_    0.037811 0.833597 0.352251 0.242499
H35   H     H_    0.340970 0.880749 0.555887 0.227780
H36   H     H_    0.147934 0.854507 0.354585 0.233454
H37   H     H_    0.152111 0.818929 0.442868 0.231997
H38   H     H_    0.112030 0.890233 0.431414 0.268142
H39   H     H_    0.161231 0.051861 0.360381 0.246088
H40   H     H_    0.139682 0.159263 0.382414 0.235514
H41   H     H_    0.186446 0.156886 0.463756 0.231252
H42   H     H_    0.114034 0.117088 0.460119 0.252922
H43   H     H_    0.947841 0.160387 0.359684 0.245541
H44   H     H_    0.840399 0.139841 0.381531 0.233681
H45   H     H_    0.843358 0.187464 0.462561 0.233096
H46   H     H_    0.358698 0.941327 0.621302 0.201764
H47   H     H_    0.882640 0.114713 0.459707 0.250356
H48   H     H_    0.823355 0.988560 0.344363 0.234295
H49   H     H_    0.838257 0.870148 0.323254 0.216151
H50   H     H_    0.848881 0.870085 0.420611 0.230730
H51   H     H_    0.899375 0.912895 0.361140 0.273093
H52   H     H_    0.607650 0.643534 0.059222 0.215468
H53   H     H_    0.569811 0.631047 0.175862 0.244825
H54   H     H_    0.540056 0.708353 0.178022 0.234468
H55   H     H_    0.621250 0.694885 0.189965 0.226198
H56   H     H_    0.642515 0.391733 0.053357 0.215275
H57   H     H_    0.797496 0.644421 0.647600 0.262043
H58   H     H_    0.633327 0.426889 0.172465 0.245856
H59   H     H_    0.712175 0.452167 0.174167 0.234988
H60   H     H_    0.694519 0.371468 0.181008 0.225866
H61   H     H_    0.392714 0.357751 0.056460 0.216592
H62   H     H_    0.430180 0.367354 0.174595 0.245696
H63   H     H_    0.455706 0.288510 0.174940 0.234877
H64   H     H_    0.375112 0.306186 0.184596 0.225307
H65   H     H_    0.357081 0.607165 0.057339 0.217297
H66   H     H_    0.366519 0.569956 0.175133 0.245762
H67   H     H_    0.287882 0.543990 0.175445 0.235128
H68   H     H_    0.859010 0.620842 0.706915 0.276700
H69   H     H_    0.304864 0.624682 0.185792 0.225083
H70   H     H_    0.607390 0.356092 0.940653 0.215782
H71   H     H_    0.569195 0.368817 0.824055 0.244811
H72   H     H_    0.539307 0.291635 0.821921 0.234424
H73   H     H_    0.620486 0.304767 0.809817 0.226169
H74   H     H_    0.642121 0.608313 0.946432 0.215215
H75   H     H_    0.633103 0.573018 0.827381 0.245769
H76   H     H_    0.712067 0.547901 0.825874 0.234960
H77   H     H_    0.694035 0.628557 0.818895 0.225920
H78   H     H_    0.392638 0.642457 0.944063 0.217334
H79   H     H_    0.806397 0.681191 0.735242 0.261392
H80   H     H_    0.429608 0.633041 0.825732 0.245922
H81   H     H_    0.454868 0.711906 0.825430 0.235072
H82   H     H_    0.374284 0.694188 0.816168 0.225013
H83   H     H_    0.356524 0.391361 0.942505 0.214867
H84   H     H_    0.371328 0.427771 0.825835 0.245245
H85   H     H_    0.294535 0.458742 0.822493 0.234564
H86   H     H_    0.306909 0.377273 0.810889 0.225562
H87   H     H_    0.903214 0.729714 0.697495 0.233171
H88   H     H_    0.841578 0.744110 0.632377 0.261589
H89   H     H_    0.166069 0.374541 0.688650 0.278674
H90   H     H_    0.879088 0.659781 0.554856 0.227107
H91   H     H_    0.939169 0.643365 0.620699 0.200701
H92   H     H_    0.653649 0.214222 0.623884 0.261495
H93   H     H_    0.625422 0.162783 0.692659 0.278994
H94   H     H_    0.689271 0.213145 0.712743 0.257187
H95   H     H_    0.731817 0.111584 0.692054 0.248884
H96   H     H_    0.748506 0.159547 0.612253 0.247939
H97   H     H_    0.658160 0.118130 0.552517 0.236189
H98   H     H_    0.645524 0.064079 0.626115 0.196273
H99   H     H_    0.202791 0.640647 0.357105 0.261479
H100  H     H_    0.216590 0.310479 0.706468 0.256832
H101  H     H_    0.143074 0.614967 0.296169 0.278183
H102  H     H_    0.196361 0.674472 0.268181 0.261444
H103  H     H_    0.098380 0.724170 0.300353 0.239515
H104  H     H_    0.158011 0.740310 0.367731 0.256383
H105  H     H_    0.119201 0.658244 0.444678 0.229012
H106  H     H_    0.059585 0.640927 0.378089 0.201269
H107  H     H_    0.356125 0.203434 0.355835 0.261667
H108  H     H_    0.381086 0.142588 0.295761 0.277213
H109  H     H_    0.320819 0.195001 0.267520 0.261276
H110  H     H_    0.272158 0.097655 0.302760 0.233955
H111  H     H_    0.114163 0.269142 0.688769 0.249526
H112  H     H_    0.256675 0.158554 0.369016 0.261194
H113  H     H_    0.340588 0.120803 0.446178 0.227758
H114  H     H_    0.357382 0.060961 0.379523 0.200899
H115  H     H_    0.797969 0.356355 0.352311 0.262009
H116  H     H_    0.859131 0.380324 0.292924 0.276993
H117  H     H_    0.806510 0.320119 0.264339 0.261460
H118  H     H_    0.903778 0.271462 0.301169 0.233626
H119  H     H_    0.842384 0.256563 0.366228 0.261571
H120  H     H_    0.879728 0.340465 0.444378 0.227397
H121  H     H_    0.939807 0.357174 0.378785 0.200989
H122  H     H_    0.161174 0.250879 0.608096 0.247338
H123  H     H_    0.654665 0.785920 0.376237 0.261514
H124  H     H_    0.625684 0.837167 0.307536 0.278730
H125  H     H_    0.689847 0.787143 0.287212 0.257232
H126  H     H_    0.731464 0.889077 0.307599 0.249145
H127  H     H_    0.749236 0.841150 0.387186 0.247304
H128  H     H_    0.658648 0.881978 0.447548 0.235837
H129  H     H_    0.645408 0.936063 0.374082 0.196500
H130  H     H_    0.625248 0.918039 0.215536 0.253636
H131  H     H_    0.681035 0.864935 0.178002 0.248788
H132  H     H_    0.648677 0.924502 0.121615 0.274752
H133  H     H_    0.119673 0.341089 0.548408 0.234872
H134  H     H_    0.544185 0.875511 0.136261 0.220279
H135  H     H_    0.577949 0.815500 0.188529 0.207666
H136  H     H_    0.640329 0.779639 0.088943 0.206200
H137  H     H_    0.627257 0.841378 0.033258 0.211714
H138  H     H_    0.922536 0.358715 0.190611 0.254866
H139  H     H_    0.869557 0.304984 0.148918 0.240790
H140  H     H_    0.925301 0.345063 0.093873 0.271756
H141  H     H_    0.873107 0.445586 0.129921 0.222919
H142  H     H_    0.815750 0.403576 0.176820 0.207239
H143  H     H_    0.777754 0.353920 0.070559 0.201424
H144  H     H_    0.066727 0.354997 0.623453 0.198079
H145  H     H_    0.838988 0.370547 0.015093 0.209256
H146  H     H_    0.362494 0.078103 0.193542 0.254878
H147  H     H_    0.307889 0.130893 0.153758 0.241087
H148  H     H_    0.347361 0.075184 0.097187 0.272775
H149  H     H_    0.448201 0.127635 0.130644 0.222184
H150  H     H_    0.406610 0.184923 0.179348 0.207167
H151  H     H_    0.355379 0.222909 0.074880 0.201439
H152  H     H_    0.370805 0.161397 0.018580 0.209316
H153  H     H_    0.077447 0.637319 0.195500 0.255503
H154  H     H_    0.130683 0.691712 0.156508 0.241370
H155  H     H_    0.358464 0.799438 0.645398 0.261775
H156  H     H_    0.074753 0.653209 0.099462 0.272067
H157  H     H_    0.126378 0.551656 0.130491 0.222536
H158  H     H_    0.183922 0.592054 0.179693 0.207198
H159  H     H_    0.222147 0.644375 0.076273 0.201504
H160  H     H_    0.161000 0.629070 0.019730 0.209504
H161  H     H_    0.680370 0.134768 0.821554 0.248936
H162  H     H_    0.648344 0.075246 0.878064 0.274871
H163  H     H_    0.624549 0.081692 0.784213 0.253516
H164  H     H_    0.543684 0.124318 0.863720 0.220386
H165  H     H_    0.577155 0.184288 0.811340 0.207619
H166  H     H_    0.383748 0.859835 0.705937 0.277923
H167  H     H_    0.639872 0.220051 0.910719 0.206137
H168  H     H_    0.627082 0.158379 0.966459 0.211724
H169  H     H_    0.869161 0.695176 0.851371 0.240807
H170  H     H_    0.924944 0.654846 0.906370 0.271793
H171  H     H_    0.922110 0.641386 0.809598 0.254609
H172  H     H_    0.872708 0.554525 0.869989 0.222708
H173  H     H_    0.815333 0.596848 0.823122 0.207306
H174  H     H_    0.777337 0.646233 0.929551 0.201389
H175  H     H_    0.838724 0.629513 0.984966 0.209240
H176  H     H_    0.306572 0.869570 0.848534 0.240356
N1    N     N_2   0.050861 0.189842 0.622349 -0.298021
N2    N     N_2   0.682765 0.407587 0.076232 -0.311704
N3    N     N_2   0.409277 0.317686 0.078710 -0.311166
N4    N     N_2   0.317013 0.590550 0.079565 -0.311429
N5    N     N_2   0.589770 0.316672 0.917380 -0.311771
N6    N     N_2   0.682451 0.592511 0.923693 -0.311644
N7    N     N_2   0.409046 0.682538 0.921836 -0.311310
N8    N     N_2   0.317503 0.408871 0.918500 -0.312055
N9    N     N_2   0.186498 0.931377 0.607962 -0.305626
N10   N     N_2   0.922886 0.815587 0.598436 -0.308752
N11   N     N_2   0.811247 0.050111 0.622832 -0.296741
N12   N     N_2   0.066564 0.812464 0.389101 -0.303768
N13   N     N_2   0.185123 0.075672 0.400031 -0.308069
N14   N     N_2   0.924356 0.184767 0.399193 -0.307985
N15   N     N_2   0.810793 0.951727 0.376094 -0.296994
N16   N     N_2   0.590205 0.683071 0.082470 -0.311873
O1    O     O_R   0.948270 0.408400 0.500040 -0.636087
O2    O     O_R   0.908400 0.551730 0.000040 -0.624674
O3    O     O_R   0.551730 0.091600 0.000040 -0.626231
O4    O     O_R   0.091600 0.448270 0.000040 -0.626050
O5    O     O_R   0.448270 0.091600 0.999960 -0.625443
O6    O     O_R   0.908400 0.448270 0.999960 -0.624862
O7    O     O_R   0.551730 0.908400 0.999960 -0.626104
O8    O     O_R   0.091600 0.551730 0.999960 -0.625507
O9    O     O_R   0.948270 0.500020 0.392700 -0.621053
O10   O     O_R   0.500020 0.051730 0.392700 -0.621334
O11   O     O_R   0.051730 0.499980 0.392700 -0.621465
O12   O     O_R   0.408400 0.051730 0.500040 -0.636977
O13   O     O_R   0.499980 0.948270 0.392700 -0.621282
O14   O     O_R   0.948270 0.499980 0.607300 -0.621141
O15   O     O_R   0.500020 0.948270 0.607300 -0.621179
O16   O     O_R   0.051730 0.500020 0.607300 -0.621443
O17   O     O_R   0.499980 0.051730 0.607300 -0.621164
O18   O     O_R   0.448270 0.000020 0.892700 -0.622688
O19   O     O_R   0.000020 0.551730 0.892700 -0.622528
O20   O     O_R   0.551730 0.999980 0.892700 -0.620147
O21   O     O_R   0.999980 0.448270 0.892700 -0.620858
O22   O     O_R   0.448270 0.999980 0.107300 -0.622791
O23   O     O_R   0.051730 0.591600 0.500040 -0.637602
O24   O     O_R   0.000020 0.448270 0.107300 -0.620452
O25   O     O_R   0.551730 0.000020 0.107300 -0.620247
O26   O     O_R   0.999980 0.551730 0.107300 -0.621462
O27   O     O_R   0.908270 0.000020 0.560600 -0.624315
O28   O     O_R   0.000020 0.091730 0.560600 -0.636443
O29   O     O_R   0.091730 0.999980 0.560600 -0.638652
O30   O     O_R   0.999980 0.908270 0.560600 -0.632604
O31   O     O_R   0.908270 0.999980 0.439400 -0.625214
O32   O     O_R   0.000020 0.908270 0.439400 -0.639842
O33   O     O_R   0.091730 0.000020 0.439400 -0.635435
O34   O     O_R   0.591600 0.948270 0.500040 -0.638269
O35   O     O_R   0.999980 0.091730 0.439400 -0.630011
O36   O     O_R   0.408270 0.500020 0.060600 -0.622047
O37   O     O_R   0.500020 0.591730 0.060600 -0.621857
O38   O     O_R   0.591730 0.499980 0.060600 -0.622918
O39   O     O_R   0.499980 0.408270 0.060600 -0.622049
O40   O     O_R   0.408270 0.499980 0.939400 -0.621257
O41   O     O_R   0.500020 0.408270 0.939400 -0.622512
O42   O     O_R   0.591730 0.500020 0.939400 -0.622971
O43   O     O_R   0.499980 0.591730 0.939400 -0.621789
O44   O     O_R   0.948270 0.591600 0.499960 -0.636432
O45   O     O_R   0.408400 0.948270 0.499960 -0.637109
O46   O     O_R   0.051730 0.408400 0.499960 -0.638838
O47   O     O_R   0.591600 0.051730 0.499960 -0.638303
O48   O     O_R   0.448270 0.908400 0.000040 -0.625295
Zn1   Zn    Zn3+2 0.930920 0.500000 0.500000 0.924489
Zn2   Zn    Zn3+2 0.000000 0.000000 0.419070 0.896357
Zn3   Zn    Zn3+2 0.500000 0.500000 0.080930 0.906573
Zn4   Zn    Zn3+2 0.500000 0.500000 0.919070 0.905867
Zn5   Zn    Zn3+2 0.500000 0.069080 0.500000 0.923799
Zn6   Zn    Zn3+2 0.069080 0.500000 0.500000 0.923279
Zn7   Zn    Zn3+2 0.500000 0.930920 0.500000 0.923862
Zn8   Zn    Zn3+2 0.430920 0.000000 0.000000 0.895322
Zn9   Zn    Zn3+2 0.000000 0.569080 0.000000 0.896509
Zn10  Zn    Zn3+2 0.569080 0.000000 0.000000 0.904206
Zn11  Zn    Zn3+2 0.000000 0.430920 0.000000 0.901170
Zn12  Zn    Zn3+2 1.000000 0.000000 0.580930 0.886363

loop_
_geom_bond_atom_site_label_1
_geom_bond_atom_site_label_2
_ccdc_geom_bond_type
C50   N7    S    
C110  O30   A    
C126  C127  S    
C6    H126  S    
C134  O9    A    
C19   C20   S    
C10   H131  S    
C138  H105  S    
C139  H103  S    
C37   H28   S    
C39   H36   S    
C21   C76   S    
C50   H80   S    
C143  H107  S    
O29   Zn12  S    
C113  O37   A    
C90   O7    A    
O23   Zn6   S    
O2    Zn9   S    
C115  O39   A    
C2    C55   S    
O48   Zn8   S    
H56   N2    S    
C5    C6    S    
C101  O2    A    
C130  H2    S    
C51   N8    S    
C81   N1    S    
C54   C134  S    
O18   Zn8   S    
C47   N4    S    
C98   C108  S    
C22   H164  S    
C74   C92   A    
C67   C138  S    
C76   C94   A    
C107  O31   A    
C144  H121  S    
O4    Zn11  S    
C78   C96   A    
C27   H170  S    
C44   H59   S    
C141  H114  S    
C4    H116  S    
C21   C22   S    
C51   H86   S    
O42   Zn4   S    
C48   H73   S    
C133  H57   S    
C67   C85   A    
C135  C136  S    
O28   Zn12  S    
C17   H147  S    
C131  H91   S    
C123  O8    A    
C140  H101  S    
C82   N9    S    
C78   C120  A    
C37   N10   S    
C30   H176  S    
C44   N2    S    
C68   O44   A    
C43   H53   S    
C114  O38   A    
C86   C99   A    
C63   C125  S    
O20   Zn10  S    
C127  H1    S    
H30   N11   S    
C73   C121  A    
C83   C100  A    
C136  H96   S    
C9    H134  S    
C50   H82   S    
C5    H129  S    
C112  O3    A    
C75   C93   A    
C25   H175  S    
C46   C60   S    
C40   N13   S    
O47   Zn5   S    
H83   N8    S    
C88   C102  A    
C139  C140  S    
C6    C7    S    
H34   N12   S    
C14   H139  S    
C109  O33   A    
C101  O6    A    
C52   C61   S    
C76   C122  A    
C135  H97   S    
C11   H143  S    
O36   Zn3   S    
C34   N1    S    
C128  H46   S    
C137  H93   S    
C42   H51   S    
C67   C118  A    
O22   Zn8   S    
C29   H5    S    
C71   C88   A    
C17   H146  S    
C51   H84   S    
C22   C23   S    
C23   H162  S    
C111  O40   A    
C45   H62   S    
C47   H67   S    
C80   C97   A    
C84   C102  A    
C113  O43   A    
C128  C129  S    
C123  C124  S    
C49   H75   S    
C140  H102  S    
C34   H20   S    
C49   N6    S    
C93   C106  A    
C33   H9    S    
C40   H42   S    
C142  H112  S    
C84   N11   S    
O27   Zn12  S    
C91   N2    S    
C12   H142  S    
O25   Zn10  S    
C32   H12   S    
C2    O13   A    
C21   H168  S    
C9    C10   S    
C92   N3    S    
C48   H71   S    
C38   H33   S    
C27   H171  S    
C89   C103  A    
C44   H58   S    
C70   C87   A    
H48   N15   S    
C106  C111  S    
C15   H152  S    
C127  H89   S    
O14   Zn1   S    
C41   H47   S    
H70   N5    S    
C75   C124  A    
C107  O27   A    
C25   C26   S    
C16   H150  S    
C90   C120  S    
C42   H49   S    
C29   C30   S    
C36   N9    S    
O1    Zn1   S    
C31   C32   S    
C48   N5    S    
O34   Zn7   S    
C64   C82   A    
C18   H159  S    
C72   C120  A    
O15   Zn7   S    
C20   H153  S    
C19   H158  S    
C102  C107  S    
C7    H123  S    
H43   N14   S    
C45   H64   S    
C66   C119  A    
C96   C103  A    
C3    C4    S    
C132  H87   S    
C129  C130  S    
C130  H166  S    
C2    O10   A    
C5    H128  S    
C129  H24   S    
C49   H77   S    
C6    H127  S    
O40   Zn4   S    
C53   O26   A    
C105  C115  S    
O19   Zn9   S    
C10   H132  S    
C136  C137  S    
C138  H106  S    
C37   H29   S    
C37   H27   S    
C33   H11   S    
C87   N14   S    
C142  H110  S    
O30   Zn12  S    
C57   O45   A    
C55   C61   T    
C22   H165  S    
C38   N11   S    
C39   H38   S    
C77   C121  A    
C88   N15   S    
C28   H7    S    
C143  H109  S    
C44   H60   S    
C141  H113  S    
C126  H122  S    
C85   N12   S    
O3    Zn10  S    
C94   C105  A    
C100  C110  S    
C109  O29   A    
O43   Zn4   S    
C51   H85   S    
C82   C99   A    
C23   H163  S    
O12   Zn5   S    
O17   Zn5   S    
C65   C131  S    
C31   C80   S    
C39   N12   S    
C26   C27   S    
C18   C75   S    
C86   N13   S    
C28   C29   S    
H78   N7    S    
C81   C98   A    
C69   C141  S    
C99   C109  S    
C35   C59   S    
C18   C19   S    
O38   Zn3   S    
C16   C17   S    
C79   C119  S    
C31   H16   S    
C87   C98   A    
O45   Zn7   S    
C10   H130  S    
C139  H104  S    
C25   H174  S    
H39   N13   S    
C8    C72   S    
C89   N16   S    
O33   Zn2   S    
C114  O42   A    
C30   H3    S    
C143  H108  S    
C79   O34   A    
C90   O48   A    
O26   Zn9   S    
O16   Zn6   S    
C54   C62   T    
C14   H140  S    
C58   C59   T    
C36   H23   S    
C101  C121  S    
C64   C117  A    
C56   C60   T    
C41   H44   S    
O31   Zn2   S    
C68   O23   A    
C11   C12   S    
C94   N5    S    
C128  H35   S    
C137  H92   S    
C63   C116  A    
C74   C122  A    
C4    H115  S    
C11   C73   S    
C125  C126  S    
C23   H161  S    
C53   O24   A    
C131  C132  S    
C144  H120  S    
C57   C117  S    
C80   C124  A    
C3    C144  S    
C30   H4    S    
C17   H148  S    
C70   C144  S    
C130  H155  S    
C140  H99   S    
C70   C116  A    
C32   C33   S    
C42   N15   S    
C5    C71   S    
C112  O5    A    
C38   H31   S    
O11   Zn6   S    
C125  H133  S    
C47   H69   S    
C133  H79   S    
C43   H54   S    
C138  C139  S    
C66   C135  S    
C92   C105  A    
C11   H145  S    
C15   C74   S    
C1    O46   A    
O46   Zn6   S    
C24   C58   S    
C136  H95   S    
C21   H167  S    
H21   N9    S    
C142  C143  S    
C9    H135  S    
C50   H81   S    
O32   Zn2   S    
C43   N16   S    
C35   O20   A    
C40   H40   S    
O35   Zn2   S    
C8    C9    S    
C48   H72   S    
C8    H137  S    
C91   C104  A    
C46   O19   A    
C129  H13   S    
O21   Zn11  S    
O9    Zn1   S    
C14   H138  S    
C15   H151  S    
C36   H25   S    
C63   C81   A    
C83   N10   S    
C25   C77   S    
C135  H98   S    
C103  C113  S    
C52   O25   A    
O7    Zn10  S    
C65   C83   A    
C15   C16   S    
C137  H94   S    
C42   H50   S    
C79   O47   A    
C29   H6    S    
C38   H32   S    
C132  C133  S    
C64   C128  S    
C18   H160  S    
H52   N16   S    
C96   N7    S    
O39   Zn3   S    
C19   H157  S    
C126  H111  S    
H74   N6    S    
C1    C116  S    
C28   C78   S    
C13   O14   A    
C68   C118  S    
C123  O4    A    
C3    H118  S    
H61   N3    S    
C125  H144  S    
H17   N1    S    
C45   H63   S    
C132  H88   S    
C8    H136  S    
C32   H14   S    
C131  H90   S    
C110  O32   A    
C49   H76   S    
C134  O11   A    
C7    H125  S    
C73   C91   A    
C34   H19   S    
O10   Zn5   S    
C33   H10   S    
C4    H117  S    
C40   H41   S    
O5    Zn8   S    
C26   H172  S    
C77   C95   A    
C112  C122  S    
C115  O41   A    
C57   O12   A    
C12   H141  S    
C53   C62   S    
C20   H154  S    
C36   H22   S    
C97   N8    S    
C52   O22   A    
C39   H37   S    
O6    Zn11  S    
C95   N6    S    
C104  C114  S    
C108  O35   A    
C26   H173  S    
C12   C14   S    
C28   H8    S    
C65   C118  A    
C3    H119  S    
C71   C119  A    
C27   H169  S    
C47   H66   S    
C97   C106  A    
C1    O1    A    
C95   C104  A    
C34   H18   S    
C127  H100  S    
O13   Zn7   S    
C45   N3    S    
C41   H45   S    
C108  O28   A    
C111  O36   A    
C35   O18   A    
O24   Zn11  S    
C16   H149  S    
C13   C56   S    
C85   C100  A    
C141  C142  S    
H65   N4    S    
C72   C89   A    
C69   C117  A    
C20   H156  S    
O44   Zn1   S    
C7    H124  S    
O37   Zn3   S    
C46   O21   A    
O8    Zn9   S    
C93   N4    S    
H26   N10   S    
C13   O16   A    
C66   C84   A    
C24   O17   A    
C24   O15   A    
C41   N14   S    
C133  H68   S    
C43   H55   S    
O41   Zn4   S    
C31   H15   S    
C69   C86   A    
