data_mof_unit_24023.cif
_audit_creation_date              2013-03-05T15:52:30-0500
_audit_creation_method            fapswitch 2.2
_symmetry_space_group_name_H-M    P1
_symmetry_Int_Tables_number       1
_space_group_crystal_system       triclinic
_cell_length_a                    11.144743
_cell_length_b                    11.145869
_cell_length_c                    18.742102
_cell_angle_alpha                 90.774692
_cell_angle_beta                  91.33521
_cell_angle_gamma                 59.813026
_cell_volume                      2011.83661802

loop_
_atom_site_label
_atom_site_type_symbol
_atom_site_description
_atom_site_fract_x
_atom_site_fract_y
_atom_site_fract_z
_atom_type_partial_charge
O1    O     O_R   0.748670 0.497520 0.427970 -0.557770
O2    O     O_R   0.476470 0.723930 0.429450 -0.499684
C1    C     C_R   0.376912 0.768781 0.395989 0.593703
O3    O     O_R   0.264730 0.744140 0.416740 -0.434824
O4    O     O_R   0.309440 0.472410 0.418220 -0.429572
C2    C     C_R   0.389045 0.362623 0.381782 0.598688
O5    O     O_R   0.501630 0.260530 0.414310 -0.536417
O6    O     O_R   0.727920 0.305730 0.428950 -0.407535
C3    C     C_R   0.763148 0.383429 0.395047 0.548367
O7    O     O_R   0.738670 0.496020 0.588600 -0.466497
O8    O     O_R   0.467190 0.722540 0.578350 -0.398427
C4    C     C_R   0.354693 0.754845 0.612070 0.584568
O9    O     O_R   0.254720 0.742640 0.577370 -0.436733
O10   O     O_R   0.300170 0.471020 0.567120 -0.518792
C5    C     C_R   0.375219 0.360677 0.604103 0.531564
O11   O     O_R   0.491630 0.259030 0.574940 -0.468470
O12   O     O_R   0.718640 0.304340 0.577850 -0.481601
C6    C     C_R   0.749289 0.381403 0.617392 0.541410
Cr1   Cr    Cr6+3 0.601740 0.606840 0.505840 1.096894
Cr2   Cr    Cr6+3 0.291500 0.601560 0.495070 1.063130
Cr3   Cr    Cr6+3 0.606780 0.291630 0.499130 1.130345
O13   O     O_3   0.500010 0.500010 0.500020 -0.273297
C7    C     C_R   0.780230 0.837434 0.091751 0.214979
C8    C     C_R   0.820048 0.906097 0.143507 0.046437
C9    C     C_R   0.705720 0.014157 0.186116 -0.081522
C10   C     C_R   0.574031 0.078982 0.162356 -0.020504
C11   C     C_R   0.340302 0.308497 0.166811 -0.014349
C12   C     C_R   0.475662 0.225410 0.279141 0.092860
C13   C     C_R   0.460613 0.207177 0.204147 -0.109008
C14   C     C_R   0.180105 0.645517 0.366817 0.210473
C15   C     C_R   0.076732 0.765519 0.404761 0.273257
C16   C     C_R   0.533348 0.006562 0.114604 0.358646
C17   C     C_R   0.636304 0.888159 0.076293 0.053219
C18   C     C_R   0.237152 0.428239 0.202594 0.259783
C19   C     C_R   0.253442 0.446947 0.276997 -0.035100
C20   C     C_R   0.933607 0.815743 0.389130 -0.112765
C21   C     C_R   0.893657 0.747333 0.337547 -0.112613
C22   C     C_R   0.997240 0.627478 0.301518 0.205982
C23   C     C_R   0.141101 0.576866 0.316363 -0.069571
C24   C     C_R   0.373820 0.345869 0.314425 0.017232
H1    H     H_    0.603541 0.831700 0.034667 0.163398
H2    H     H_    0.931149 0.859120 0.154070 0.111432
H3    H     H_    0.739226 0.064019 0.224127 0.179568
H4    H     H_    0.843614 0.905830 0.421552 0.223884
H5    H     H_    0.776975 0.788759 0.325263 0.172989
C25   C     C_R   0.894385 0.323581 0.185582 -0.018512
C26   C     C_R   0.873297 0.222364 0.220241 0.020517
C27   C     C_R   0.827936 0.242839 0.291975 0.011123
C28   C     C_R   0.818360 0.455545 0.306129 -0.000080
C29   C     C_R   0.865084 0.427974 0.208593 0.066428
C30   C     C_3   0.880981 0.096516 0.216941 0.342090
C31   C     C_3   0.830654 0.114254 0.292397 0.485705
C32   C     C_R   0.803722 0.364622 0.329962 -0.036734
H6    H     H_    0.800053 0.561883 0.348733 0.221219
H7    H     H_    0.879052 0.515305 0.147639 0.307452
C33   C     C_R   0.325470 0.877076 0.178440 0.018505
C34   C     C_R   0.443267 0.857786 0.219276 0.023196
C35   C     C_R   0.458277 0.816400 0.291793 -0.056714
C36   C     C_R   0.237787 0.813442 0.282081 -0.044668
C37   C     C_R   0.222843 0.854852 0.210244 -0.033484
C38   C     C_3   0.571098 0.859564 0.224310 0.116423
C39   C     C_3   0.585950 0.818054 0.297371 -0.229329
C40   C     C_R   0.356309 0.795657 0.322969 -0.034283
H8    H     H_    0.154069 0.793448 0.306658 0.210282
H9    H     H_    0.141033 0.868649 0.174999 0.202166
H10   H     H_    0.553767 0.968626 0.221026 0.199763
H11   H     H_    0.680766 0.708369 0.306484 0.176863
H12   H     H_    0.576995 0.897385 0.340792 0.172170
C41   C     C_R   0.300195 0.301993 0.812487 0.015313
C42   C     C_R   0.424905 0.201656 0.778646 -0.051133
C43   C     C_R   0.450788 0.221879 0.707152 0.027905
C44   C     C_R   0.227093 0.442856 0.702780 -0.190960
C45   C     C_R   0.201537 0.422594 0.774118 -0.148288
C46   C     C_3   0.554220 0.073950 0.781447 0.246099
C47   C     C_3   0.580143 0.094211 0.709240 0.572674
C48   C     C_R   0.351928 0.342379 0.669176 -0.000933
H13   H     H_    0.146458 0.540679 0.671637 0.131493
H14   H     H_    0.121307 0.500118 0.792231 0.310084
H15   H     H_    0.624695 0.079829 0.826130 0.165501
C49   C     C_R   0.854200 0.317739 0.831913 0.004651
C50   C     C_R   0.834625 0.440496 0.797952 -0.017018
C51   C     C_R   0.798411 0.462475 0.724377 -0.136043
C52   C     C_R   0.802215 0.239482 0.717675 -0.175746
C53   C     C_R   0.837588 0.216715 0.792229 0.071065
C54   C     C_3   0.833062 0.569913 0.802046 0.466608
C55   C     C_3   0.796871 0.591793 0.727558 -0.107534
C56   C     C_R   0.781783 0.361657 0.684377 -0.011821
H16   H     H_    0.794011 0.161240 0.681600 0.282834
H17   H     H_    0.685681 0.669814 0.722472 0.238216
H18   H     H_    0.878159 0.589292 0.688719 0.176119
C57   C     C_R   0.285195 0.870999 0.824434 -0.003467
C58   C     C_R   0.186741 0.849621 0.784772 -0.129383
C59   C     C_R   0.210704 0.809596 0.711805 -0.052833
C60   C     C_R   0.431959 0.812494 0.717781 0.186780
C61   C     C_R   0.407612 0.852318 0.791176 0.256544
C62   C     C_3   0.058998 0.847915 0.781387 0.304747
C63   C     C_3   0.082751 0.807700 0.707778 0.161153
C64   C     C_R   0.333168 0.791025 0.678365 -0.054746
H19   H     H_    0.983039 0.960485 0.784284 0.278377
H20   H     H_    0.099972 0.697427 0.698232 0.117802
O14   O     O_R   0.186620 0.923750 0.087000 -0.518949
O15   O     O_R   0.957350 0.194160 0.084660 -0.427627
C65   C     C_R   0.929376 0.305425 0.119742 0.508954
O16   O     O_R   0.935120 0.407280 0.085350 -0.511901
O17   O     O_R   0.203800 0.365060 0.067090 -0.372112
C66   C     C_R   0.320762 0.291825 0.099212 0.529957
O18   O     O_R   0.417470 0.174910 0.067830 -0.518044
O19   O     O_R   0.375160 0.946380 0.070880 -0.444606
C67   C     C_R   0.304952 0.913148 0.112427 0.561626
O20   O     O_R   0.160500 0.919670 0.926690 -0.414758
O21   O     O_R   0.933140 0.190380 0.936050 -0.417792
C68   C     C_R   0.893135 0.299867 0.897832 0.545998
O22   O     O_R   0.909010 0.403210 0.925030 -0.402101
O23   O     O_R   0.179590 0.361290 0.918480 -0.375267
C69   C     C_R   0.283753 0.283865 0.878550 0.573430
O24   O     O_R   0.391360 0.170840 0.907510 -0.535228
O25   O     O_R   0.350950 0.942600 0.922260 -0.557010
C70   C     C_R   0.268736 0.907603 0.890536 0.549732
Cr4   Cr    Cr6+3 0.062440 0.063060 0.008240 1.169802
Cr5   Cr    Cr6+3 0.062950 0.375000 0.998920 1.246457
Cr6   Cr    Cr6+3 0.374550 0.061770 0.992470 1.024006
O26   O     O_3   0.166650 0.166610 0.999880 -0.310481
O27   O     O_3   0.577335 0.115588 0.325975 -0.728772
H21   H     H_    0.586736 0.156899 0.356600 0.497760
N1    N     N_R   0.958406 0.556151 0.255008 0.024098
O28   O     O_R   0.028402 0.479633 0.206022 -0.430836
O29   O     O_R   0.853860 0.599389 0.273789 -0.556415
O30   O     O_3   0.006153 0.981073 0.214881 -0.698733
H22   H     H_    0.999971 0.935580 0.167495 0.297168
O31   O     O_3   0.798474 0.112478 0.142479 -0.669617
H23   H     H_    0.695185 0.185628 0.165831 0.244189
O32   O     O_3   0.713266 0.144689 0.303803 -0.728431
H24   H     H_    0.641809 0.194983 0.259186 0.260295
N2    N     N_R   0.931409 0.016179 0.346828 0.152266
O33   O     O_R   0.886427 0.021233 0.404396 -0.347890
O34   O     O_R   0.058526 0.948345 0.333269 -0.396108
O35   O     O_3   0.665792 0.764698 0.175265 -0.735199
H25   H     H_    0.671232 0.676813 0.184692 0.351255
O36   O     O_3   0.540533 0.964420 0.782495 -0.537670
H26   H     H_    0.600989 0.919313 0.829826 0.387386
O37   O     O_3   0.689195 0.109754 0.706728 -0.724773
H27   H     H_    0.683728 0.177143 0.743504 0.290144
N3    N     N_R   0.116893 0.841483 0.465357 0.164486
O38   O     O_R   0.232228 0.770548 0.489993 -0.206421
O39   O     O_R   0.041288 0.971306 0.468834 -0.242488
O40   O     O_3   0.579584 0.003234 0.656590 -0.522429
H28   H     H_    0.661919 0.975935 0.628711 0.378263
N4    N     N_R   0.857225 0.086003 0.831304 -0.034376
O41   O     O_R   0.889884 0.068710 0.893958 -0.272259
O42   O     O_R   0.823234 0.993255 0.792398 -0.347336
N5    N     N_R   0.961959 0.548664 0.825949 0.099696
O43   O     O_R   0.002060 0.644164 0.785582 -0.451333
O44   O     O_R   0.054123 0.450092 0.856896 -0.391895
O45   O     O_3   0.733647 0.657990 0.851425 -0.592748
H29   H     H_    0.647381 0.662396 0.836527 0.343096
N6    N     N_R   0.561102 0.794868 0.677514 0.058947
O46   O     O_R   0.584258 0.759508 0.619164 -0.312147
O47   O     O_R   0.652271 0.826566 0.719025 -0.280734
O48   O     O_3   0.489267 0.858773 0.837777 -0.792712
H30   H     H_    0.472428 0.900623 0.871497 0.437855
N7    N     N_R   0.891763 0.708314 0.052915 0.100525
O49   O     O_R   0.018652 0.667686 0.068244 -0.274718
O50   O     O_R   0.849909 0.650500 0.007021 -0.274950
O51   O     O_3   0.064147 0.752160 0.831379 -0.513566
H31   H     H_    0.146960 0.664563 0.819596 0.332939
O52   O     O_3   0.994252 0.903642 0.656525 -0.647620
H32   H     H_    0.968554 0.850961 0.624173 0.344766
O53   O     O_3   0.325140 0.594579 0.373247 -0.649904
H33   H     H_    0.334014 0.653617 0.347274 0.317027
O54   O     O_3   0.394277 0.063897 0.115128 -0.691354
H34   H     H_    0.338989 0.135440 0.131630 0.355974
O55   O     O_3   0.128948 0.536341 0.155801 -0.510371
H35   H     H_    0.066668 0.602792 0.199412 0.359667

loop_
_geom_bond_atom_site_label_1
_geom_bond_atom_site_label_2
_geom_bond_distance
_ccdc_geom_bond_type
C35   C39   1.433618 S    
C52   C56   1.414280 A    
C10   C16   1.409850 A    
O11   Cr3   2.089398 S    
C11   C13   1.420456 A    
C31   N2    1.496305 S    
O17   C66   1.278505 A    
O21   C68   1.289433 A    
O19   Cr6   1.963578 S    
C44   C48   1.428750 A    
O30   H22   1.034738 S    
C9    H3    1.068383 S    
O23   C69   1.291502 A    
C12   O27   1.463086 S    
O27   H21   0.768765 S    
O4    Cr2   1.963309 S    
C54   C55   1.433591 S    
C33   C34   1.424521 A    
C4    O9    1.341313 A    
O8    Cr1   1.965030 S    
C36   H8    1.168018 S    
C21   C22   1.426284 A    
C39   H11   1.156924 S    
C61   O48   1.274075 S    
C30   O30   1.341354 S    
O51   H31   0.975350 S    
N4    O42   1.450672 A    
O2    C1    1.136900 A    
C15   C20   1.424145 A    
C43   C48   1.423203 A    
C49   C50   1.428888 A    
N3    O38   1.204462 A    
C66   O18   1.342423 A    
C60   C64   1.427398 A    
O14   C67   1.340060 A    
C28   H6    1.350112 S    
C62   H19   1.107238 S    
C58   C62   1.433252 S    
C8    H2    1.088979 S    
O19   C67   1.297461 A    
O21   Cr4   1.955893 S    
C18   C19   1.428087 A    
O25   Cr6   1.962885 S    
C47   O37   1.312997 S    
O15   C65   1.290803 A    
C38   H10   1.133186 S    
O48   H30   0.749478 S    
O32   H24   1.086458 S    
C7    C17   1.430820 A    
C42   C46   1.428755 S    
C20   C21   1.419753 A    
C7    C8    1.423005 A    
O17   Cr5   1.960663 S    
C41   C45   1.426853 A    
C42   C43   1.421639 A    
C4    C64   1.291148 S    
C49   C53   1.426854 A    
C52   H16   1.134629 S    
N5    O43   1.555975 A    
C36   C37   1.408027 A    
C11   C18   1.421733 A    
Cr3   O13   2.007771 S    
O20   C70   1.343420 A    
O52   H32   0.972530 S    
C41   C42   1.429492 A    
C68   O22   1.342661 A    
N7    O50   1.281128 A    
C30   O31   1.614681 S    
Cr5   O26   2.007864 S    
C50   C51   1.417091 A    
C53   N4    1.551625 S    
C47   O40   1.407478 S    
C27   C32   1.427111 A    
C22   N1    1.374371 S    
O1    Cr1   2.086343 S    
C5    O11   1.342992 A    
C30   C31   1.507156 S    
O14   Cr4   2.076291 S    
C26   C27   1.422163 A    
O10   Cr2   1.963537 S    
Cr1   O13   2.015792 S    
O1    C3    1.341987 A    
C8    C9    1.479853 A    
C55   H18   1.164531 S    
C57   C58   1.425968 A    
O6    C3    1.294739 A    
C26   C30   1.362268 S    
C11   C66   1.307129 S    
C9    C10   1.336468 A    
C51   C55   1.433261 S    
O12   Cr3   1.958871 S    
C33   C37   1.430207 A    
C31   O32   1.198785 S    
C19   C23   1.549089 S    
C54   N5    1.396819 S    
C44   H13   1.159510 S    
O22   Cr5   2.078127 S    
C52   C53   1.433718 A    
O7    Cr1   2.075165 S    
C45   H14   0.943721 S    
C62   C63   1.433609 S    
C49   C68   1.284167 S    
O12   C6    1.292167 A    
Cr6   O26   2.010235 S    
C57   C70   1.287109 S    
C60   C61   1.429188 A    
N4    O41   1.210023 A    
O45   H29   0.972141 S    
N2    O33   1.189019 A    
O53   H33   0.869534 S    
Cr2   O13   2.009342 S    
C37   H9    1.060641 S    
C46   H15   1.158510 S    
N1    O28   1.233676 A    
C51   C56   1.428018 A    
C20   H4    1.175812 S    
C3    C32   1.288348 S    
O18   Cr6   2.083475 S    
C21   H5    1.158580 S    
C1    O3    1.469907 A    
C12   C13   1.435472 A    
C59   C63   1.436972 S    
C33   C67   1.285491 S    
C63   H20   1.156692 S    
C18   O55   1.480939 S    
O55   H35   1.091564 S    
O40   H28   0.972034 S    
C46   O36   1.304636 S    
Cr4   O26   2.016639 S    
C35   C40   1.408939 A    
N3    O39   1.257732 A    
C16   O54   1.347288 S    
C25   C26   1.429500 A    
C41   C69   1.289191 S    
C7    N7    1.536513 S    
O9    Cr2   2.082200 S    
O2    Cr1   1.956316 S    
C22   C23   1.428318 A    
C25   C65   1.285318 S    
C29   H7    1.570832 S    
C44   C45   1.417883 A    
C55   H17   1.101792 S    
O6    Cr3   1.969565 S    
O20   Cr4   2.083261 S    
N2    O34   1.256045 A    
O36   H26   1.066395 S    
C34   C38   1.435621 S    
C2    O5    1.337214 A    
C1    C40   1.393793 S    
O35   H25   0.968952 S    
C25   C29   1.121327 A    
C36   C40   1.436996 A    
C6    C56   1.289139 S    
C39   H12   1.161732 S    
C17   H1    1.158659 S    
C16   C17   1.436570 A    
N6    O47   1.441942 A    
O31   H23   1.118650 S    
C14   O53   1.421074 S    
O5    Cr3   2.080238 S    
O25   C70   1.293420 A    
C43   C47   1.428487 S    
C14   C15   1.443891 A    
C38   O35   1.404786 S    
C34   C35   1.420108 A    
O4    C2    1.290246 A    
N7    O49   1.275921 A    
O7    C6    1.341954 A    
C28   C32   1.197928 A    
C58   C59   1.421716 A    
C14   C23   1.401571 A    
C19   C24   1.420806 A    
C2    C24   1.293393 S    
C54   O45   1.406126 S    
N5    O44   1.205455 A    
C15   N3    1.593232 S    
C38   C39   1.430413 S    
O23   Cr5   1.967584 S    
C57   C61   1.429568 A    
O3    Cr2   2.082210 S    
C62   O51   1.408261 S    
C27   C31   1.418320 S    
N6    O46   1.147638 A    
C46   C47   1.434572 S    
C10   C13   1.566016 S    
C60   N6    1.562665 S    
C28   C29   1.890917 A    
O54   H34   0.786942 S    
C65   O16   1.342836 A    
N1    O29   1.078679 A    
C12   C24   1.416555 A    
O10   C5    1.286134 A    
C5    C48   1.292727 S    
O24   Cr6   2.084172 S    
C69   O24   1.337402 A    
O37   H27   0.992420 S    
C59   C64   1.432006 A    
C50   C54   1.434820 S    
O15   Cr4   1.964386 S    
C63   O52   1.400711 S    
O8    C4    1.295270 A    
O16   Cr5   2.087908 S    
