data_mof_unit_68232.cif
_audit_creation_date              2013-03-05T16:10:12-0500
_audit_creation_method            fapswitch 2.2
_symmetry_space_group_name_H-M    P1
_symmetry_Int_Tables_number       1
_space_group_crystal_system       triclinic
_cell_length_a                    14.77414
_cell_length_b                    7.32174
_cell_length_c                    13.191635
_cell_angle_alpha                 90.172302
_cell_angle_beta                  100.48901
_cell_angle_gamma                 89.66342
_cell_volume                      1403.09913162

loop_
_atom_site_label
_atom_site_type_symbol
_atom_site_description
_atom_site_fract_x
_atom_site_fract_y
_atom_site_fract_z
_atom_type_partial_charge
O1    O     O_R   0.648180 0.355050 0.151550 -0.577576
O2    O     O_R   0.351820 0.644950 0.848450 -0.577560
O3    O     O_R   0.851820 0.855050 0.348450 -0.547378
O4    O     O_R   0.148180 0.144950 0.651550 -0.547525
O5    O     O_R   0.835240 0.681980 0.154280 -0.589078
O6    O     O_R   0.164760 0.318020 0.845720 -0.589143
O7    O     O_R   0.664760 0.181980 0.345720 -0.592121
O8    O     O_R   0.335240 0.818020 0.654280 -0.592149
C1    C     C_R   0.865438 0.515870 0.135589 0.899668
C2    C     C_R   0.134554 0.484127 0.864400 0.899215
C3    C     C_R   0.634813 0.016888 0.364804 0.887376
C4    C     C_R   0.365187 0.983112 0.635197 0.887314
O9    O     O_R   0.647870 0.684600 0.139630 -0.544800
O10   O     O_R   0.352130 0.315400 0.860370 -0.544797
O11   O     O_R   0.852130 0.184600 0.360370 -0.565051
O12   O     O_R   0.147870 0.815400 0.639630 -0.565165
O13   O     O_R   0.663110 0.857440 0.333700 -0.586146
O14   O     O_R   0.336890 0.142560 0.666300 -0.586140
O15   O     O_R   0.836890 0.357440 0.166300 -0.596468
O16   O     O_R   0.163110 0.642560 0.833700 -0.596448
C5    C     C_R   0.615420 0.516302 0.113314 0.938263
C6    C     C_R   0.384579 0.483698 0.886686 0.938347
C7    C     C_R   0.884564 0.016046 0.386689 0.931250
C8    C     C_R   0.115436 0.983954 0.613310 0.931272
O17   O     O_3   0.755220 0.522230 0.313690 -0.262275
O18   O     O_3   0.244780 0.477770 0.686310 -0.262382
O19   O     O_3   0.744780 0.022230 0.186310 -0.260174
O20   O     O_3   0.255220 0.977770 0.813690 -0.260132
V1    V     V_3+5 0.749030 0.796100 0.238190 1.219659
V2    V     V_3+5 0.250970 0.203900 0.761810 1.219521
V3    V     V_3+5 0.750970 0.296100 0.261810 1.215075
V4    V     V_3+5 0.249030 0.703900 0.738190 1.214868
C9    C     C_1   0.965842 0.005484 0.466694 -0.149103
C10   C     C_1   0.034159 0.994512 0.533304 -0.149158
C11   C     C_1   0.534145 0.505769 0.033295 -0.158193
C12   C     C_1   0.465854 0.494232 0.966706 -0.158226
C13   C     C_R   0.570036 0.986170 0.719930 -0.208265
C14   C     C_R   0.429970 0.013866 0.280075 -0.208251
C15   C     C_R   0.929792 0.500379 0.780173 -0.206496
C16   C     C_R   0.070185 0.499468 0.219797 -0.206494
C17   C     C_R   0.666815 0.990405 0.757467 -0.043440
C18   C     C_R   0.333193 0.009610 0.242532 -0.043399
C19   C     C_R   0.832995 0.501220 0.742740 -0.044217
C20   C     C_R   0.166977 0.498669 0.257242 -0.044314
C21   C     C_R   0.728604 0.997743 0.687290 0.112375
C22   C     C_R   0.271401 0.002227 0.312705 0.112385
C23   C     C_R   0.771194 0.497762 0.813018 0.115408
C24   C     C_R   0.228784 0.502204 0.186970 0.115431
C25   C     C_R   0.691641 0.003688 0.581727 -0.235240
C26   C     C_R   0.308361 0.996270 0.418270 -0.235527
C27   C     C_R   0.808241 0.497078 0.918661 -0.230181
C28   C     C_R   0.191743 0.502923 0.081324 -0.230356
C29   C     C_R   0.595870 0.001951 0.541291 0.109002
C30   C     C_R   0.404132 0.998036 0.458710 0.109090
C31   C     C_R   0.904049 0.500332 0.958926 0.107688
C32   C     C_R   0.095935 0.499653 0.041053 0.107764
C33   C     C_R   0.532720 0.991942 0.610585 0.030091
C34   C     C_R   0.467282 0.008066 0.389419 0.030087
C35   C     C_R   0.967173 0.498699 0.889435 0.030099
C36   C     C_R   0.032809 0.501248 0.110539 0.030146
C37   C     C_R   0.564252 0.009685 0.432197 -0.257005
C38   C     C_R   0.435750 0.990315 0.567806 -0.256983
C39   C     C_R   0.935802 0.504757 0.068018 -0.259597
C40   C     C_R   0.064183 0.495226 0.931960 -0.259397
H1    H     H_    0.740909 0.009638 0.530395 0.129092
H2    H     H_    0.259092 0.990290 0.469599 0.129092
H3    H     H_    0.759068 0.494560 0.970199 0.126865
H4    H     H_    0.240919 0.505487 0.029790 0.126930
C41   C     C_2   0.701021 0.973525 0.870162 0.534875
H5    H     H_    0.730062 0.846063 0.902343 -0.020946
O21   O     O_2   0.695969 0.101675 0.928201 -0.559210
C42   C     C_2   0.298996 0.026519 0.129837 0.534567
H6    H     H_    0.269897 0.153952 0.097675 -0.020827
O22   O     O_2   0.304125 0.898432 0.071776 -0.559133
C43   C     C_2   0.798988 0.520309 0.630096 0.503962
H7    H     H_    0.766315 0.645758 0.599311 -0.010349
O23   O     O_2   0.808497 0.396808 0.570579 -0.554995
C44   C     C_2   0.200967 0.479600 0.369890 0.503127
H8    H     H_    0.233771 0.354262 0.400671 -0.010051
O24   O     O_2   0.191255 0.602960 0.429421 -0.554956
C45   C     C_2   0.511048 0.965118 0.798640 0.529720
H9    H     H_    0.474413 0.839457 0.803098 0.022440
O25   O     O_2   0.505553 0.086506 0.860792 -0.530161
C46   C     C_2   0.488959 0.034997 0.201373 0.529867
H10   H     H_    0.525536 0.160728 0.196902 0.022334
O26   O     O_2   0.494521 0.913592 0.139250 -0.530104
C47   C     C_2   0.988771 0.517094 0.701369 0.546720
H11   H     H_    0.020489 0.646150 0.690914 0.019761
O27   O     O_2   0.998875 0.388729 0.645301 -0.541454
C48   C     C_2   0.011210 0.482501 0.298585 0.547679
H12   H     H_    0.979811 0.353156 0.309223 0.019164
O28   O     O_2   0.000774 0.610994 0.354443 -0.541425
C49   C     C_3   0.165390 0.999785 0.286262 -0.430973
C50   C     C_3   0.115852 0.995673 0.173170 -0.327031
C51   C     C_3   0.011677 0.982521 0.165047 -0.808014
H13   H     H_    0.993686 0.863532 0.208778 0.282512
H14   H     H_    0.984277 0.107902 0.195880 0.234831
H15   H     H_    0.978185 0.966516 0.083129 0.245450
H16   H     H_    0.129101 0.123481 0.133813 0.201519
H17   H     H_    0.139058 0.875364 0.133304 0.243127
H18   H     H_    0.141987 0.878485 0.324061 0.263807
H19   H     H_    0.138744 0.119567 0.323538 0.157646
C52   C     C_3   0.834616 0.000149 0.713724 -0.430915
C53   C     C_3   0.884167 0.004206 0.826810 -0.327062
C54   C     C_3   0.988343 0.017245 0.834906 -0.807960
H20   H     H_    0.015688 0.891896 0.803977 0.234819
H21   H     H_    0.006358 0.136301 0.791241 0.282413
H22   H     H_    0.021862 0.033068 0.916826 0.245461
H23   H     H_    0.861002 0.124539 0.866690 0.243155
H24   H     H_    0.870886 0.876411 0.866162 0.201514
H25   H     H_    0.861249 0.880373 0.676432 0.157661
H26   H     H_    0.858028 0.121450 0.675936 0.263914
C55   C     C_3   0.334835 0.505974 0.213476 -0.429716
C56   C     C_3   0.384258 0.515432 0.326518 -0.324768
C57   C     C_3   0.488162 0.535363 0.334673 -0.813418
H27   H     H_    0.517541 0.411180 0.304936 0.239446
H28   H     H_    0.504447 0.654566 0.289917 0.278340
H29   H     H_    0.521156 0.554662 0.416563 0.246092
H30   H     H_    0.358956 0.634643 0.365362 0.242266
H31   H     H_    0.373282 0.387412 0.366986 0.200824
H32   H     H_    0.362086 0.384937 0.178020 0.154754
H33   H     H_    0.357911 0.625512 0.173936 0.264385
C58   C     C_3   0.665142 0.494048 0.786519 -0.429760
C59   C     C_3   0.615716 0.484567 0.673479 -0.324676
C60   C     C_3   0.511808 0.464738 0.665332 -0.813476
H34   H     H_    0.495499 0.345535 0.710074 0.278324
H35   H     H_    0.482464 0.588939 0.695090 0.239462
H36   H     H_    0.478803 0.445491 0.583442 0.246098
H37   H     H_    0.626728 0.612543 0.632987 0.200804
H38   H     H_    0.640986 0.365298 0.634657 0.242346
H39   H     H_    0.642048 0.374548 0.826075 0.264420
H40   H     H_    0.637910 0.615121 0.821959 0.154750

loop_
_geom_bond_atom_site_label_1
_geom_bond_atom_site_label_2
_geom_bond_distance
_ccdc_geom_bond_type
O17   V3    1.786703 S    
C47   H11   1.077492 S    
O1    C5    1.338118 A    
C49   C50   1.537747 S    
C16   C36   1.446607 A    
C31   C35   1.421728 A    
C58   H40   1.108185 S    
O19   V1    1.789831 S    
O13   V1    1.993166 S    
O3    C7    1.338750 A    
C51   H13   1.106357 S    
C15   C47   1.478775 S    
O15   V3    1.998226 S    
C45   H9    1.077351 S    
C51   H15   1.109760 S    
O4    V2    1.951367 S    
C58   C59   1.537917 S    
O7    C3    1.330003 A    
C54   H21   1.106371 S    
C35   C40   1.440980 A    
C26   C30   1.418498 A    
C25   H1    1.081781 S    
C36   C39   1.440942 A    
C52   H25   1.108937 S    
C46   O26   1.219742 D    
C14   C18   1.425891 A    
C30   C34   1.422352 A    
C53   H23   1.108767 S    
O4    C8    1.338756 A    
C44   O24   1.219971 D    
C57   H27   1.106439 S    
O1    V3    1.949355 S    
O2    V4    1.949352 S    
C18   C22   1.414870 A    
C41   O21   1.219745 D    
C21   C52   1.541560 S    
C14   C34   1.448061 A    
C48   O28   1.219560 D    
C1    O15   1.326036 A    
C55   H33   1.106933 S    
C11   C12   1.214317 T    
C2    O16   1.326048 A    
C7    C9    1.449056 S    
C31   C39   1.430470 A    
O2    C6    1.338119 A    
C60   H36   1.110270 S    
C32   C40   1.430472 A    
O14   V2    1.993165 S    
C21   C25   1.400900 A    
C16   C20   1.425382 A    
C56   H30   1.107863 S    
C28   H4    1.081860 S    
C14   C46   1.480984 S    
C34   C37   1.441130 A    
O11   C7    1.344710 A    
O12   C8    1.344704 A    
C13   C45   1.481000 S    
C50   C51   1.526830 S    
C29   C37   1.431060 A    
O10   V2    1.972572 S    
C53   C54   1.526829 S    
C45   O25   1.219715 D    
C56   C57   1.527019 S    
O5    V1    2.010203 S    
C19   C43   1.486142 S    
C54   H22   1.109750 S    
O7    V3    2.019172 S    
C59   H38   1.107853 S    
O8    V4    2.019169 S    
C33   C38   1.441145 A    
C46   H10   1.077379 S    
C42   O22   1.219776 D    
C49   H18   1.107248 S    
C29   C33   1.422357 A    
C44   H8    1.080407 S    
C15   C19   1.425422 A    
C30   C38   1.431071 A    
C57   H28   1.107020 S    
C8    C10   1.449057 S    
C32   C36   1.421697 A    
C52   H26   1.107237 S    
C43   H7    1.080396 S    
O5    C1    1.330752 A    
C4    C38   1.489381 S    
C23   C58   1.542374 S    
C50   H17   1.108767 S    
O8    C4    1.330004 A    
C57   H29   1.110278 S    
C15   C35   1.446660 A    
C18   C42   1.485793 S    
C9    C10   1.214028 T    
O9    C5    1.346300 A    
C27   H3    1.081860 S    
C26   H2    1.081783 S    
O6    V2    2.010204 S    
C47   O27   1.219437 D    
C60   H34   1.107025 S    
C17   C41   1.485787 S    
C55   C56   1.537920 S    
O16   V4    1.998229 S    
O9    V1    1.972573 S    
C3    O13   1.326605 A    
C58   H39   1.106937 S    
C1    C39   1.489231 S    
C2    C40   1.489209 S    
C42   H6    1.080106 S    
C3    C37   1.489385 S    
C49   H19   1.108940 S    
O6    C2    1.330736 A    
C23   C27   1.401438 A    
C51   H14   1.106969 S    
O11   V3    1.968537 S    
C5    C11   1.449547 S    
O12   V4    1.968538 S    
C6    C12   1.449546 S    
C54   H20   1.106979 S    
C22   C26   1.400917 A    
O10   C6    1.346301 A    
O20   V2    1.789832 S    
C53   H24   1.107085 S    
O3    V1    1.951365 S    
C48   H12   1.077697 S    
C22   C49   1.541562 S    
C50   H16   1.107086 S    
C25   C29   1.418487 A    
C20   C44   1.486152 S    
C59   H37   1.107345 S    
C27   C31   1.418748 A    
C13   C17   1.425910 A    
C41   H5    1.080097 S    
C13   C33   1.448079 A    
C28   C32   1.418766 A    
C24   C28   1.401460 A    
C55   H32   1.108194 S    
C43   O23   1.219923 D    
C4    O14   1.326603 A    
C52   C53   1.537729 S    
C60   H35   1.106432 S    
C17   C21   1.414861 A    
C59   C60   1.527007 S    
C16   C48   1.478716 S    
C19   C23   1.415068 A    
O18   V4    1.786704 S    
C56   H31   1.107330 S    
C20   C24   1.415079 A    
C24   C55   1.542370 S    
