data_mof_unit_9538.cif
_audit_creation_date              2012-12-11T21:14:47-0500
_audit_creation_method            fapswitch 2.2
_symmetry_space_group_name_H-M    P1
_symmetry_Int_Tables_number       1
_space_group_crystal_system       triclinic
_cell_length_a                    8.405122
_cell_length_b                    18.765562
_cell_length_c                    26.91325
_cell_angle_alpha                 99.898513
_cell_angle_beta                  92.643389
_cell_angle_gamma                 88.11595
_cell_volume                      4175.95831713

loop_
_atom_site_label
_atom_site_type_symbol
_atom_type_description
_atom_site_fract_x
_atom_site_fract_y
_atom_site_fract_z
_atom_type_partial_charge
Ba1   Ba    Ba6+2 0.160810 0.465630 0.521640 1.758389
Ba2   Ba    Ba6+2 0.649380 0.534380 0.478400 1.750542
C1    C     C_3   0.357573 0.315736 0.707550 -0.247647
C2    C     C_R   0.061303 0.093111 0.448474 0.019532
C3    C     C_R   0.196604 0.066869 0.421755 -0.051964
C4    C     C_3   0.879371 0.282218 0.651721 0.393804
C5    C     C_R   0.255840 0.996564 0.422228 -0.048724
C6    C     C_R   0.178142 0.950127 0.448239 0.053101
C7    C     C_R   0.039367 0.974819 0.473954 0.027653
C8    C     C_R   0.236901 0.879389 0.448376 -0.083281
C9    C     C_R   0.154697 0.830373 0.471485 0.006010
C10   C     C_R   0.013425 0.854708 0.496985 0.040939
C11   C     C_R   0.958539 0.927611 0.498983 0.012537
C12   C     C_3   0.404077 0.320553 0.653357 0.312954
C13   C     C_R   0.209334 0.757797 0.470131 0.012011
C14   C     C_R   0.118136 0.709948 0.490724 -0.263214
C15   C     C_R   0.980645 0.732963 0.516863 0.053192
C16   C     C_3   0.796838 0.258351 0.696199 0.599232
C17   C     C_R   0.929283 0.806967 0.521552 -0.009305
C18   C     C_R   0.845712 0.072700 0.501363 0.009865
C19   C     C_R   0.792523 0.145936 0.503970 0.003143
C20   C     C_R   0.877308 0.193733 0.479529 -0.027687
C21   C     C_R   0.006604 0.164995 0.449960 -0.026558
C22   C     C_R   0.798543 0.835255 0.550506 0.017924
C23   C     C_3   0.394399 0.311277 0.384048 0.571926
C24   C     C_R   0.742915 0.906978 0.551720 0.018114
C25   C     C_R   0.821643 0.953175 0.525406 0.016867
C26   C     C_R   0.764858 0.025482 0.526434 0.036023
C27   C     C_R   0.608782 0.933301 0.578958 -0.024229
C28   C     C_3   0.821356 0.631043 0.633463 0.306384
C29   C     C_R   0.550189 0.003935 0.578960 -0.013931
C30   C     C_R   0.627541 0.050516 0.552871 0.041145
C31   C     C_R   0.654928 0.171049 0.531080 -0.042797
C32   C     C_R   0.571541 0.122047 0.553961 -0.052099
C33   C     C_R   0.606162 0.244676 0.535180 -0.011416
C34   C     C_3   0.353902 0.232397 0.362907 -0.301358
C35   C     C_R   0.702101 0.293024 0.516381 -0.170350
C36   C     C_R   0.833937 0.268968 0.487140 0.164492
C37   C     C_R   0.292881 0.454674 0.174242 0.613971
C38   C     C_R   0.175047 0.572747 0.173535 0.638675
C39   C     C_2   0.050676 0.553811 0.272393 -0.015092
C40   C     C_3   0.785263 0.661087 0.688234 -0.292118
C41   C     C_3   0.047602 0.586625 0.327511 -0.008668
C42   C     C_1   0.287906 0.509771 0.338534 -0.046925
C43   C     C_2   0.318628 0.506112 0.290154 -0.081865
C44   C     C_2   0.189012 0.524003 0.253348 0.196787
C45   C     C_3   0.850651 0.740825 0.384502 0.396832
C46   C     C_R   0.298116 0.508827 0.097975 -0.083457
C47   C     C_R   0.335620 0.450439 0.123493 -0.045027
C48   C     C_R   0.412782 0.388707 0.097354 -0.019283
C49   C     C_R   0.213951 0.569482 0.122904 -0.034977
C50   C     C_2   0.173976 0.553895 0.359956 -0.238633
C51   C     C_2   0.642855 0.471723 0.638113 -0.292357
C52   C     C_3   0.986141 0.337425 0.354732 0.373316
C53   C     C_R   0.502765 0.450103 0.975531 -0.056314
C54   C     C_R   0.331483 0.557708 0.969237 0.044923
C55   C     C_R   0.437352 0.501704 0.946874 0.060908
C56   C     C_3   0.820644 0.816870 0.372081 -0.196214
C57   C     C_R   0.633179 0.405051 0.955688 -0.100415
C58   C     C_R   0.670051 0.399749 0.904309 0.393101
C59   C     C_R   0.587035 0.444102 0.873277 -0.082995
C60   C     C_R   0.479337 0.498190 0.895777 -0.122378
C61   C     C_R   0.414050 0.549521 0.867302 -0.017254
C62   C     C_R   0.458760 0.547390 0.817314 0.600920
C63   C     C_R   0.613109 0.438528 0.820838 0.641606
C64   C     C_3   0.978953 0.290648 0.301490 0.284580
C65   C     C_2   0.747273 0.474338 0.726794 -0.103942
C66   C     C_3   0.788047 0.478236 0.673262 -0.059413
C67   C     C_3   0.363392 0.730117 0.354381 0.244586
C68   C     C_1   0.512397 0.506230 0.655168 0.045245
C69   C     C_2   0.471429 0.504749 0.702106 -0.109442
C70   C     C_2   0.595254 0.488756 0.741395 0.175623
C71   C     C_R   0.439360 0.447728 0.023722 0.052970
C72   C     C_R   0.344583 0.506625 0.047392 0.071157
C73   C     C_R   0.295647 0.563286 0.020921 0.025008
C74   C     C_R   0.461053 0.386937 0.048221 -0.050754
C75   C     C_R   0.172776 0.626765 0.097118 -0.008487
C76   C     C_3   0.327908 0.692903 0.603695 0.263121
C77   C     C_R   0.264549 0.606495 0.939013 -0.085609
C78   C     C_3   0.405354 0.767785 0.311133 0.226168
C79   C     C_R   0.306193 0.602823 0.889384 -0.033238
C80   C     C_R   0.211967 0.623720 0.047216 -0.090114
C81   C     C_3   0.316400 0.770459 0.632691 0.583526
C82   C     C_2   0.921628 0.412043 0.353487 0.844044
C83   C     C_2   0.438924 0.201417 0.315512 1.063536
C84   C     C_2   0.363488 0.241083 0.720796 1.063525
C85   C     C_2   0.899672 0.826336 0.324834 0.930800
C86   C     C_2   0.971209 0.220240 0.621321 0.944929
C87   C     C_2   0.749878 0.374426 0.990259 0.915510
C88   C     C_R   0.982070 0.046955 0.474688 0.007338
Cl1   Cl    Cl    0.779409 0.273112 0.277752 -0.474905
Cl2   Cl    Cl    0.179434 0.776222 0.681924 -0.542470
Cl3   Cl    Cl    0.255540 0.833466 0.593271 -0.740004
Cl4   Cl    Cl    0.585663 0.310657 0.409017 -0.719553
Cl5   Cl    Cl    0.680095 0.179785 0.676008 -0.624108
Cl6   Cl    Cl    0.263995 0.749273 0.260014 -0.611179
Cl7   Cl    Cl    0.837517 0.345009 0.881766 -0.459044
Cl8   Cl    Cl    0.936350 0.240351 0.744822 -0.420909
H1    H     H_    0.350868 0.372385 0.645284 0.073012
H2    H     H_    0.237170 0.339063 0.714867 0.125834
H3    H     H_    0.435260 0.786807 0.649851 0.053028
H4    H     H_    0.534805 0.324207 0.652644 -0.066594
H5    H     H_    0.437701 0.351241 0.734294 0.049696
H6    H     H_    0.318912 0.330913 0.416042 0.076023
H7    H     H_    0.387848 0.199670 0.392615 0.066732
H8    H     H_    0.224767 0.226130 0.356424 -0.023719
H9    H     H_    0.806642 0.740031 0.422681 0.039402
H10   H     H_    0.981189 0.729096 0.384932 -0.181980
H11   H     H_    0.691015 0.828675 0.367983 0.070165
H12   H     H_    0.709255 0.711102 0.690093 0.154195
H13   H     H_    0.868211 0.857129 0.403770 0.007838
H14   H     H_    0.241127 0.748163 0.365503 -0.002067
H15   H     H_    0.368194 0.670640 0.341551 0.050226
H16   H     H_    0.524609 0.748954 0.297596 0.128816
H17   H     H_    0.406263 0.827197 0.324200 0.067094
H18   H     H_    0.257637 0.100734 0.400640 0.072419
H19   H     H_    0.361811 0.978265 0.401759 0.079978
H20   H     H_    0.160662 0.654580 0.489131 0.049975
H21   H     H_    0.345776 0.863148 0.429459 0.087873
H22   H     H_    0.069655 0.198303 0.428938 0.094329
H23   H     H_    0.720490 0.621366 0.705092 0.058658
H24   H     H_    0.737795 0.802117 0.572322 0.101268
H25   H     H_    0.549412 0.899149 0.600414 0.136079
H26   H     H_    0.445568 0.022487 0.600054 0.133283
H27   H     H_    0.466016 0.139615 0.574632 0.129967
H28   H     H_    0.786500 0.301409 0.625993 -0.340221
H29   H     H_    0.664495 0.349315 0.520312 0.069134
H30   H     H_    0.437381 0.490793 0.277194 0.147184
H31   H     H_    0.436573 0.341322 0.114843 0.154932
H32   H     H_    0.842906 0.466828 0.754101 0.128267
H33   H     H_    0.511725 0.336388 0.029312 0.104999
H34   H     H_    0.898083 0.674108 0.710700 0.165465
H35   H     H_    0.950713 0.564958 0.247657 0.126334
H36   H     H_    0.109669 0.674712 0.115531 0.156306
H37   H     H_    0.176237 0.647497 0.952306 0.083182
H38   H     H_    0.251754 0.641957 0.868062 0.138743
H39   H     H_    0.348833 0.515250 0.712386 0.151724
H40   H     H_    0.179114 0.670878 0.030752 0.088385
H41   H     H_    0.179951 0.573450 0.400282 0.069939
H42   H     H_    0.647675 0.443279 0.599519 0.067713
H43   H     H_    0.717078 0.303022 0.713410 0.045148
H44   H     H_    0.708560 0.612954 0.612893 0.006104
H45   H     H_    0.109625 0.342190 0.367620 -0.304383
H46   H     H_    0.907688 0.584596 0.632014 0.029310
H47   H     H_    0.049913 0.454777 0.415984 0.255472
H48   H     H_    0.307961 0.260356 0.271583 0.288641
H49   H     H_    0.293449 0.137488 0.703877 0.360700
H50   H     H_    0.060094 0.880567 0.293188 0.357497
H51   H     H_    0.090467 0.184472 0.559645 0.315186
H52   H     H_    0.886991 0.392411 0.054595 0.322638
H53   H     H_    0.036806 0.237024 0.301877 0.049319
H54   H     H_    0.041601 0.317665 0.274645 0.011866
H55   H     H_    0.206868 0.672886 0.592031 0.022764
H56   H     H_    0.400073 0.691348 0.569936 0.012358
N1    N     N_R   0.217024 0.516359 0.199392 -0.434918
N2    N     N_R   0.554389 0.491286 0.793922 -0.439267
O1    O     O_2   0.106080 0.324280 0.466820 -0.501082
O2    O     O_2   0.713819 0.553408 0.324648 -0.426068
O3    O     O_3   0.766724 0.690195 0.349152 -0.578125
O4    O     O_3   0.859130 0.413620 0.470620 -0.443725
O5    O     O_3   0.459240 0.537930 0.559910 -0.489898
O6    O     O_2   0.583120 0.462390 0.379940 -0.348436
O7    O     O_3   0.381687 0.356393 0.347201 -0.623397
O8    O     O_2   0.532440 0.757112 0.489630 -0.473355
O9    O     O_3   0.475544 0.749307 0.394203 -0.622281
O10   O     O_2   0.322559 0.403301 0.195882 -0.552848
O11   O     O_2   0.684614 0.385755 0.798724 -0.508012
O12   O     O_3   0.404560 0.651851 0.636735 -0.640273
O13   O     O_2   0.105349 0.626731 0.194805 -0.511785
O14   O     O_2   0.414056 0.596280 0.794836 -0.570541
O15   O     O_3   0.376230 0.370290 0.556910 -0.479249
O16   O     O_2   0.280948 0.241708 0.517932 -0.471961
O17   O     O_3   0.902114 0.303046 0.387126 -0.581799
O18   O     O_3   0.350232 0.262309 0.616524 -0.542635
O19   O     O_2   0.227190 0.537650 0.620070 -0.457710
O20   O     O_3   0.971110 0.406970 0.583250 -0.453622
O21   O     O_2   0.107830 0.457971 0.670512 -0.493340
O22   O     O_2   0.840614 0.425485 0.317325 -0.543452
O23   O     O_3   0.988551 0.336100 0.671607 -0.617733
O24   O     O_R   0.958228 0.467324 0.393155 -0.723336
O25   O     O_2   0.543315 0.154968 0.317143 -0.510799
O26   O     O_R   0.398946 0.223486 0.269410 -0.635290
O27   O     O_2   0.437677 0.230160 0.759057 -0.491831
O28   O     O_R   0.280695 0.184936 0.690649 -0.655791
O29   O     O_2   0.857851 0.790553 0.284162 -0.523709
O30   O     O_R   0.018870 0.877356 0.327565 -0.751304
O31   O     O_2   0.988045 0.160859 0.634617 -0.518470
O32   O     O_R   0.038789 0.231239 0.577206 -0.729655
O33   O     O_2   0.792499 0.310594 0.981131 -0.505128
O34   O     O_2   0.704230 0.675760 0.533200 -0.477145
O35   O     O_R   0.808908 0.419011 0.033876 -0.756608
O36   O     O_3   0.951180 0.586390 0.529420 -0.494243
O37   O     O_3   0.434080 0.629720 0.443130 -0.477962
O38   O     O_3   0.888967 0.685946 0.613044 -0.591877
O39   O     O_3   0.351080 0.462080 0.440130 -0.491896
O40   O     O_3   0.839200 0.593040 0.416790 -0.432983
P1    P     P_3+3 0.929380 0.335110 0.452880 1.076367
P2    P     P_3+3 0.398530 0.559060 0.613740 1.010261
P3    P     P_3+3 0.956208 0.418018 0.648821 0.998286
P4    P     P_3+3 0.880940 0.664900 0.547160 0.998752
P5    P     P_3+3 0.842131 0.603537 0.353720 1.083476
P6    P     P_3+3 0.406151 0.278436 0.557083 1.003107
P7    P     P_3+3 0.397044 0.448172 0.375676 1.050610
P8    P     P_3+3 0.409008 0.723646 0.448832 0.949666

loop_
_geom_bond_atom_site_label_1
_geom_bond_atom_site_label_2
_ccdc_geom_bond_type
H49   O28   S    
Ba1   O20   S    
C83   O26   S    
C70   N2    S    
C53   C57   A    
C4    O23   S    
C56   H11   S    
C71   C72   A    
C5    H19   S    
Ba1   P2    S    
C56   C85   S    
Ba2   O6    S    
C39   H35   S    
C13   P8    S    
O34   P4    D    
C55   C60   A    
C69   H39   S    
C45   O3    S    
C43   C44   S    
C44   N1    S    
O7    P7    S    
C24   C25   A    
C35   C36   A    
C54   C77   A    
O12   P2    S    
O5    P2    S    
C61   C79   A    
C66   P3    S    
Ba2   P4    S    
C52   O17   S    
C33   C35   A    
O9    P8    S    
Ba2   O36   S    
C29   H26   S    
C65   C70   D    
C63   N2    Am   
C48   C74   A    
C74   H33   S    
C41   C50   S    
O3    P5    S    
O39   P7    S    
C43   H30   S    
H50   O30   S    
C13   C14   A    
C20   C36   A    
O18   P6    S    
C50   H41   S    
C28   H46   S    
C54   C55   A    
C10   C17   A    
C15   P4    S    
Ba1   Ba2   S    
C57   C87   S    
C82   O24   S    
C51   C66   S    
C7    C11   A    
C8    H21   S    
O8    P8    D    
C15   C17   A    
H52   O35   S    
C9    C13   A    
C76   C81   S    
C86   O31   D    
O38   P4    S    
C14   C15   A    
C41   P5    S    
C42   P7    S    
C39   C44   D    
C38   N1    Am   
C68   C69   D    
C78   Cl6   S    
Ba2   O40   S    
C64   H53   S    
C42   C50   D    
C52   H45   S    
Ba1   O5    S    
C57   C58   A    
C68   P2    S    
C54   C73   A    
C19   C20   A    
C1    C84   S    
C84   O28   S    
C16   Cl5   S    
C39   C41   S    
C86   O32   S    
C28   C40   S    
C51   C68   D    
C1    H2    S    
Ba2   O5    S    
C52   C82   S    
C38   O13   D    
C85   O30   S    
C2    C88   A    
C46   C49   A    
C4    C16   S    
C72   C73   A    
H48   O26   S    
O17   P1    S    
C56   H13   S    
C76   H56   S    
C46   C72   A    
C5    C6    A    
C4    H28   S    
C85   O29   D    
C58   Cl7   S    
C21   H22   S    
C3    C5    A    
C2    C21   A    
C6    C7    A    
C18   C26   A    
C34   H8    S    
Ba1   O15   S    
C65   C66   S    
C37   N1    Am   
C58   C59   A    
C30   C32   A    
O16   P6    D    
C49   C75   A    
O19   P2    D    
C64   H54   S    
C60   C61   A    
C81   Cl2   S    
C48   H31   S    
C14   H20   S    
C29   C30   A    
C78   H17   S    
C26   C30   A    
C27   C29   A    
C67   H15   S    
C22   H24   S    
C31   C32   A    
C87   O35   S    
C36   P1    S    
C73   C80   A    
C18   C19   A    
C82   O22   D    
O37   P8    S    
C64   Cl1   S    
C1    C12   S    
H51   O32   S    
C52   C64   S    
Ba2   O4    S    
C46   C47   A    
C37   C47   A    
C78   H16   S    
O15   P6    S    
C67   H14   S    
C45   H9    S    
C53   C55   A    
C3    H18   S    
C84   O27   D    
C71   C74   A    
C65   H32   S    
C75   H36   S    
O20   P3    S    
C42   C43   D    
C79   H38   S    
C77   C79   A    
C1    H5    S    
C45   H10   S    
C63   O11   D    
Ba1   O19   S    
C83   O25   D    
C81   H3    S    
Ba1   O39   S    
C34   H7    S    
C51   H42   S    
Ba1   O4    S    
Ba1   P1    S    
Ba2   O34   S    
C22   C24   A    
C2    C3    A    
C7    C88   A    
C9    C10   A    
C23   H6    S    
O4    P1    S    
Ba2   O39   S    
C34   C83   S    
C38   C49   A    
C77   H37   S    
C62   N2    Am   
C76   O12   S    
C28   H44   S    
O6    P7    D    
Ba2   O37   S    
C37   O10   D    
Ba1   O1    S    
C17   C22   A    
C40   H12   S    
C69   C70   S    
C12   O18   S    
C33   P6    S    
C4    C86   S    
C80   H40   S    
C45   C56   S    
C76   H55   S    
C12   H1    S    
O23   P3    S    
C28   O38   S    
C18   C88   A    
C75   C80   A    
C23   O7    S    
C32   H27   S    
C27   H25   S    
H47   O24   S    
C31   C33   A    
O1    P1    D    
O36   P4    S    
C62   O14   D    
C59   C60   A    
C67   O9    S    
C12   H4    S    
C8    C9    A    
C23   C34   S    
C61   C62   A    
C53   C71   A    
Ba1   O36   S    
C59   C63   A    
C23   Cl4   S    
C19   C31   A    
C10   C11   A    
C24   C27   A    
C6    C8    A    
C47   C48   A    
O21   P3    D    
C25   C26   A    
O2    P5    D    
C87   O33   D    
C20   C21   A    
C11   C25   A    
C67   C78   S    
C40   H34   S    
C16   Cl8   S    
O40   P5    S    
C16   H43   S    
C40   H23   S    
C35   H29   S    
C81   Cl3   S    
