data_mof_unit_33283.cif
_audit_creation_date              2013-03-05T16:53:32-0500
_audit_creation_method            fapswitch 2.2
_symmetry_space_group_name_H-M    P1
_symmetry_Int_Tables_number       1
_space_group_crystal_system       triclinic
_cell_length_a                    17.459878
_cell_length_b                    16.904146
_cell_length_c                    10.71283
_cell_angle_alpha                 91.326715
_cell_angle_beta                  92.500067
_cell_angle_gamma                 90.239271
_cell_volume                      3157.93209517

loop_
_atom_site_label
_atom_site_type_symbol
_atom_site_description
_atom_site_fract_x
_atom_site_fract_y
_atom_site_fract_z
_atom_type_partial_charge
O1    O     O_R   0.389110 0.566570 0.499990 -0.603826
O2    O     O_R   0.610890 0.566570 0.500010 -0.602741
O3    O     O_R   0.389090 0.433480 0.499980 -0.658258
O4    O     O_R   0.610910 0.433480 0.500020 -0.632508
C1    C     C_R   0.353261 0.499982 0.497245 0.896729
C2    C     C_R   0.646465 0.500319 0.498015 0.897223
O5    O     O_R   0.500000 0.566530 0.319070 -0.623619
O6    O     O_R   0.500000 0.566530 0.680930 -0.621565
O7    O     O_R   0.499970 0.433440 0.319070 -0.631282
O8    O     O_R   0.500030 0.433440 0.680930 -0.638046
C3    C     C_R   0.497343 0.498765 0.261569 0.933743
C4    C     C_R   0.497806 0.500641 0.737292 0.931936
Zn1   Zn    Zn3+2 0.500000 0.588860 0.500000 0.948722
Zn2   Zn    Zn3+2 0.500000 0.411140 0.500000 0.891973
C5    C     C_2   0.454586 0.443899 0.925072 0.105326
C6    C     C_2   0.476519 0.431282 0.055694 0.105152
C7    C     C_2   0.494453 0.500244 0.869027 -0.398142
C8    C     C_2   0.478670 0.496825 0.130164 -0.409568
H1    H     H_    0.534490 0.539640 0.920623 0.131516
H2    H     H_    0.460585 0.553386 0.092447 0.147596
C9    C     C_R   0.850613 0.564817 0.525794 0.392434
C10   C     C_R   0.156917 0.564648 0.394706 0.466124
C11   C     C_R   0.772610 0.560190 0.544367 -0.289994
C12   C     C_R   0.235771 0.563554 0.417000 -0.279154
H3    H     H_    0.746222 0.601703 0.607754 0.192808
H4    H     H_    0.270310 0.611616 0.384324 0.198741
C13   C     C_R   0.728070 0.501871 0.482118 -0.131282
C14   C     C_R   0.270611 0.500562 0.479528 -0.117902
C15   C     C_R   0.760155 0.449050 0.397262 -0.196324
C16   C     C_R   0.226873 0.437542 0.519451 -0.246092
H5    H     H_    0.722888 0.407180 0.346688 0.140171
H6    H     H_    0.254631 0.388704 0.566433 0.147373
C17   C     C_R   0.838685 0.451809 0.376700 0.085567
C18   C     C_R   0.147407 0.437839 0.500582 0.075613
C19   C     C_R   0.883392 0.510240 0.442488 -0.057616
C20   C     C_R   0.112699 0.502343 0.438828 -0.032443
C21   C     C_1   0.963933 0.510065 0.432013 0.056182
C22   C     C_1   0.031797 0.507232 0.430513 0.118254
C23   C     C_R   0.478023 0.832463 0.398523 0.031234
C24   C     C_R   0.528711 0.830260 0.614962 0.022997
C25   C     C_R   0.476788 0.748320 0.397661 -0.011939
C26   C     C_R   0.525829 0.746268 0.606053 -0.010312
H7    H     H_    0.457296 0.714584 0.315669 0.134222
H8    H     H_    0.544458 0.710612 0.683539 0.136954
N1    N     N_R   0.500000 0.707230 0.500000 -0.117890
C27   C     C_R   0.503259 0.874519 0.509784 0.058938
C28   C     C_1   0.502812 0.962524 0.515183 -0.083836
C29   C     C_1   0.501063 0.035267 0.516351 -0.036795
C30   C     C_R   0.451730 0.162362 0.421124 0.031498
C31   C     C_R   0.538545 0.169968 0.603323 0.000526
C32   C     C_R   0.447118 0.248208 0.425220 0.107539
C33   C     C_R   0.547920 0.252869 0.584185 0.161546
N2    N     N_R   0.500000 0.292770 0.500000 -0.140026
C34   C     C_R   0.497438 0.123367 0.513084 0.024241
C35   C     C_3   0.393656 0.391740 0.856780 -0.364947
C36   C     C_3   0.323997 0.378159 0.935811 -0.378697
C37   C     C_3   0.262846 0.328330 0.864258 -0.889239
H9    H     H_    0.242409 0.358965 0.778882 0.260178
H10   H     H_    0.286364 0.269675 0.837547 0.259531
H11   H     H_    0.213228 0.319186 0.923704 0.257692
H12   H     H_    0.342239 0.346517 0.021137 0.235011
H13   H     H_    0.298945 0.435962 0.963612 0.242650
H14   H     H_    0.372140 0.420020 0.769512 0.216869
H15   H     H_    0.419360 0.333980 0.830643 0.195240
C38   C     C_3   0.502531 0.348769 0.092256 -0.361394
C39   C     C_3   0.589796 0.343641 0.113302 -0.319210
C40   C     C_3   0.612913 0.261303 0.156515 -0.922071
H16   H     H_    0.589019 0.249620 0.248807 0.269000
H17   H     H_    0.591677 0.215376 0.087461 0.259403
H18   H     H_    0.676202 0.257160 0.165644 0.248373
H19   H     H_    0.617710 0.355827 0.024357 0.210012
H20   H     H_    0.610938 0.388113 0.184616 0.226265
H21   H     H_    0.472787 0.328480 0.174292 0.215760
H22   H     H_    0.485827 0.305353 0.016476 0.174465
C41   C     C_3   0.377010 0.292782 0.372835 -0.350358
C42   C     C_3   0.322857 0.263188 0.264947 -0.476835
C43   C     C_3   0.260088 0.323913 0.236569 -0.880459
H23   H     H_    0.222144 0.329862 0.316622 0.272418
H24   H     H_    0.285174 0.382708 0.217606 0.264750
H25   H     H_    0.224469 0.303627 0.153556 0.260563
H26   H     H_    0.354960 0.253085 0.178990 0.218812
H27   H     H_    0.292265 0.209585 0.290610 0.267899
H28   H     H_    0.340668 0.304192 0.453644 0.216834
H29   H     H_    0.398384 0.348267 0.337341 0.263718
C44   C     C_3   0.617899 0.292759 0.647199 -0.352984
C45   C     C_3   0.687741 0.281481 0.565799 -0.342984
C46   C     C_3   0.760793 0.314590 0.631361 -0.879618
H30   H     H_    0.753440 0.377914 0.657652 0.268657
H31   H     H_    0.775024 0.280915 0.717044 0.257171
H32   H     H_    0.809204 0.309253 0.567852 0.254346
H33   H     H_    0.696502 0.217944 0.542962 0.203781
H34   H     H_    0.677774 0.309960 0.474683 0.241068
H35   H     H_    0.608432 0.355242 0.669854 0.245614
H36   H     H_    0.632007 0.268637 0.740387 0.174132
S1    S     S_3+6 0.905580 0.639725 0.606788 0.055050
O9    O     O_2   0.933994 0.696651 0.513472 -0.190066
O10   O     O_2   0.858161 0.684195 0.698641 -0.302006
O11   O     O_3   0.981436 0.599643 0.683459 -0.526970
H37   H     H_    0.959040 0.564663 0.745392 0.340444
S2    S     S_3+6 0.115448 0.645774 0.315171 0.045652
O12   O     O_2   0.085272 0.703083 0.410161 -0.219788
O13   O     O_2   0.174511 0.686821 0.241381 -0.304495
O14   O     O_3   0.042981 0.614358 0.217546 -0.561998
H38   H     H_    0.015764 0.663091 0.192086 0.398281
C47   C     C_3   0.876632 0.393960 0.287191 -0.394739
C48   C     C_3   0.822850 0.333897 0.218014 -0.378325
C49   C     C_3   0.866750 0.280056 0.130234 -0.860988
H39   H     H_    0.894769 0.315531 0.058900 0.262292
H40   H     H_    0.911054 0.246294 0.183850 0.264817
H41   H     H_    0.826370 0.237447 0.081618 0.249723
H42   H     H_    0.794799 0.296465 0.286956 0.223117
H43   H     H_    0.778349 0.365709 0.161549 0.227078
H44   H     H_    0.905895 0.428884 0.216371 0.221888
H45   H     H_    0.921121 0.360619 0.341353 0.191233
C50   C     C_3   0.101319 0.369026 0.546815 -0.437127
C51   C     C_3   0.065442 0.389916 0.671521 -0.308004
C52   C     C_3   0.019735 0.320347 0.718457 -0.886830
H46   H     H_    0.972489 0.303853 0.649809 0.262086
H47   H     H_    0.057677 0.268536 0.733526 0.267433
H48   H     H_    0.994487 0.337199 0.808591 0.252879
H49   H     H_    0.111214 0.406489 0.742731 0.235168
H50   H     H_    0.026385 0.441089 0.660673 0.237329
H51   H     H_    0.056006 0.351500 0.475251 0.192807
H52   H     H_    0.138835 0.316524 0.559658 0.202168
C53   C     C_3   0.452204 0.878587 0.283737 -0.425903
C54   C     C_3   0.435755 0.829254 0.162877 -0.359209
C55   C     C_3   0.411089 0.881438 0.053898 -0.851669
H53   H     H_    0.352645 0.904728 0.067100 0.264873
H54   H     H_    0.451317 0.931872 0.045784 0.248334
H55   H     H_    0.409968 0.845863 0.965380 0.257159
H56   H     H_    0.488362 0.796639 0.138119 0.224477
H57   H     H_    0.388714 0.786195 0.176293 0.238114
H58   H     H_    0.399716 0.911421 0.306858 0.224869
H59   H     H_    0.497816 0.922274 0.264850 0.207349
C56   C     C_3   0.559685 0.873292 0.733686 -0.415640
C57   C     C_3   0.586316 0.819346 0.841129 -0.365702
C58   C     C_3   0.620286 0.866395 0.953537 -0.848972
H60   H     H_    0.673597 0.897027 0.928288 0.272469
H61   H     H_    0.578583 0.910364 0.987256 0.253897
H62   H     H_    0.634772 0.825500 0.030603 0.256844
H63   H     H_    0.536799 0.784322 0.871915 0.220302
H64   H     H_    0.631382 0.778377 0.808774 0.236227
H65   H     H_    0.609166 0.910365 0.708760 0.224549
H66   H     H_    0.514351 0.913274 0.767988 0.207573
C59   C     C_3   0.408133 0.109613 0.324669 -0.391717
C60   C     C_3   0.335625 0.073205 0.378142 -0.348597
C61   C     C_3   0.280688 0.039688 0.275051 -0.867912
H67   H     H_    0.258248 0.087158 0.214002 0.255000
H68   H     H_    0.310124 0.995656 0.216361 0.263388
H69   H     H_    0.231504 0.010351 0.317643 0.270472
H70   H     H_    0.351940 0.024550 0.441607 0.229850
H71   H     H_    0.304999 0.117719 0.435037 0.221547
H72   H     H_    0.396779 0.139358 0.235753 0.196465
H73   H     H_    0.445822 0.060744 0.294156 0.187198
C62   C     C_3   0.562452 0.133294 0.727770 -0.412760
C63   C     C_3   0.642879 0.097121 0.729718 -0.329970
C64   C     C_3   0.665967 0.069134 0.860203 -0.903355
H74   H     H_    0.673904 0.120718 0.925745 0.261929
H75   H     H_    0.620947 0.029977 0.894969 0.266873
H76   H     H_    0.720753 0.036156 0.857540 0.263407
H77   H     H_    0.644006 0.046421 0.662080 0.226490
H78   H     H_    0.686167 0.140857 0.703752 0.232868
H79   H     H_    0.557508 0.177458 0.805392 0.187154
H80   H     H_    0.520590 0.086425 0.749940 0.200487

loop_
_geom_bond_atom_site_label_1
_geom_bond_atom_site_label_2
_geom_bond_distance
_ccdc_geom_bond_type
C53   H59   1.112029 S    
C16   H6    1.082154 S    
C35   C36   1.531411 S    
C3    C8    1.430653 S    
C64   H74   1.111173 S    
C23   C53   1.523883 S    
C13   C15   1.395881 A    
C25   H7    1.077809 S    
S1    O9    1.501754 D    
C46   H30   1.109940 S    
C59   C60   1.543602 S    
S1    O11   1.681129 S    
C56   C57   1.542111 S    
C23   C25   1.422251 A    
C48   H43   1.111904 S    
C43   H23   1.109330 S    
C51   C52   1.525519 S    
C24   C27   1.422994 A    
C58   H61   1.108207 S    
C21   C22   1.186867 T    
C51   H50   1.108828 S    
O1    C1    1.284763 A    
C47   H44   1.112299 S    
C63   C64   1.524277 S    
C61   H68   1.105978 S    
C32   C41   1.532451 S    
C45   H33   1.108715 S    
C52   H47   1.110875 S    
C41   H29   1.090648 S    
C37   H10   1.110893 S    
C48   C49   1.526186 S    
C30   C34   1.416966 A    
C15   C17   1.398928 A    
C38   H21   1.100898 S    
C36   C37   1.525859 S    
O2    Zn1   1.973989 S    
C57   H64   1.111815 S    
C61   H67   1.108933 S    
C17   C19   1.412419 A    
C44   H35   1.093125 S    
C39   H20   1.109747 S    
C28   C29   1.229946 T    
C30   C32   1.453485 A    
C35   H14   1.111411 S    
C4    C7    1.415196 S    
C31   C33   1.430738 A    
C49   H39   1.110989 S    
C11   C13   1.392555 A    
C18   C20   1.413441 A    
C2    C13   1.442523 S    
C36   H13   1.111847 S    
C59   H72   1.098187 S    
C24   C26   1.421347 A    
C39   C40   1.527320 S    
C63   H78   1.103805 S    
C64   H75   1.107847 S    
C49   H40   1.110892 S    
O2    C2    1.283099 A    
C26   H8    1.076755 S    
C24   C56   1.527453 S    
C48   H42   1.111917 S    
C43   H24   1.111029 S    
C58   H62   1.110468 S    
C50   H51   1.111795 S    
C51   H49   1.110933 S    
C16   C18   1.393404 A    
C40   H16   1.111279 S    
C47   H45   1.112288 S    
C61   H69   1.110262 S    
C10   S2    1.771848 S    
C42   C43   1.530346 S    
O4    C2    1.287959 A    
O8    Zn2   1.965979 S    
C52   H48   1.110543 S    
C42   H27   1.096467 S    
C45   C46   1.526788 S    
C37   H11   1.109749 S    
C9    S1    1.773027 S    
C62   H79   1.111001 S    
C18   C50   1.516425 S    
C44   C45   1.539739 S    
S2    O14   1.682231 S    
C38   H22   1.110269 S    
C32   N2    1.401224 A    
C26   N1    1.359316 A    
C5    C35   1.529302 S    
C29   C34   1.492020 S    
O5    C3    1.287705 A    
O7    Zn2   1.983116 S    
C55   H54   1.109730 S    
C57   H63   1.111946 S    
C1    C14   1.447367 S    
C44   H36   1.105346 S    
C39   H19   1.112049 S    
C54   H57   1.111392 S    
C31   C62   1.525720 S    
O6    C4    1.280381 A    
C35   H15   1.111347 S    
S2    O13   1.503442 D    
C30   C59   1.524885 S    
C31   C34   1.403455 A    
O7    C3    1.276879 A    
O3    Zn2   1.974493 S    
O8    C4    1.275605 A    
C23   C27   1.425676 A    
C60   H71   1.110954 S    
C59   H73   1.110449 S    
C56   H66   1.112045 S    
C63   H77   1.110211 S    
O11   H37   0.990765 S    
C64   H76   1.110249 S    
C9    C11   1.387088 A    
C53   C54   1.539438 S    
C49   H41   1.110610 S    
C10   C12   1.387307 A    
O1    Zn1   1.970901 S    
C55   H53   1.108888 S    
C62   C63   1.533447 S    
C33   N2    1.391172 A    
C50   C51   1.534547 S    
C60   C61   1.528010 S    
C47   C48   1.535671 S    
C43   H25   1.109538 S    
C53   H58   1.107677 S    
C5    C7    1.345216 D    
C27   C28   1.487511 S    
C33   C44   1.517675 S    
C41   C42   1.534275 S    
C50   H52   1.112790 S    
C19   C21   1.415588 S    
C12   C14   1.398391 A    
C12   H4    1.083395 S    
C57   C58   1.524408 S    
O3    C1    1.289074 A    
C42   H26   1.108979 S    
S1    O10   1.503616 D    
C9    C19   1.409258 A    
C62   H80   1.112361 S    
C10   C20   1.405995 A    
C58   H60   1.110011 S    
C17   C47   1.527122 S    
C40   H18   1.107732 S    
C20   C22   1.414343 S    
C55   H55   1.110460 S    
C14   C16   1.394182 A    
C15   H5    1.079589 S    
C45   H34   1.105660 S    
C52   H46   1.111176 S    
Zn1   N1    2.000944 S    
C41   H28   1.109266 S    
C37   H9    1.107715 S    
C54   H56   1.112066 S    
C54   C55   1.527611 S    
C56   H65   1.110743 S    
S2    O12   1.502335 D    
C7    H1    1.087670 S    
C8    H2    1.089208 S    
C11   H3    1.083393 S    
O4    Zn2   1.971393 S    
C60   H70   1.109411 S    
O6    Zn1   1.983246 S    
O5    Zn1   1.966089 S    
Zn2   N2    2.000944 S    
C6    C8    1.349643 D    
C38   C39   1.533575 S    
C46   H32   1.110611 S    
O14   H38   0.990554 S    
C46   H31   1.110770 S    
C25   N1    1.359230 A    
C36   H12   1.105325 S    
C6    C38   1.523242 S    
C40   H17   1.111083 S    
C5    C6    1.455345 S    
