data_mof_unit_33515.cif
_audit_creation_date              2012-12-10T18:32:43-0500
_audit_creation_method            fapswitch 2.2
_symmetry_space_group_name_H-M    P1
_symmetry_Int_Tables_number       1
_space_group_crystal_system       triclinic
_cell_length_a                    15.013094
_cell_length_b                    15.407454
_cell_length_c                    15.725883
_cell_angle_alpha                 90.308771
_cell_angle_beta                  104.95903
_cell_angle_gamma                 82.099488
_cell_volume                      3479.25497913

loop_
_atom_site_label
_atom_site_type_symbol
_atom_type_description
_atom_site_fract_x
_atom_site_fract_y
_atom_site_fract_z
_atom_type_partial_charge
C1    C     C_R   0.441759 0.662443 0.484382 0.853051
C2    C     C_3   0.405285 0.482468 0.022512 -0.447192
C3    C     C_3   0.501094 0.499548 0.083265 0.215743
C4    C     C_3   0.587507 0.432240 0.071517 0.610360
C5    C     C_3   0.582470 0.431149 0.970899 -0.504926
C6    C     C_1   0.497390 0.498623 0.173835 -0.025658
C7    C     C_1   0.505283 0.502901 0.827336 -0.059509
C8    C     C_1   0.504242 0.502263 0.751613 -0.171819
C9    C     C_R   0.407774 0.754487 0.457200 -0.061092
C10   C     C_R   0.593668 0.244579 0.504275 -0.157160
C11   C     C_R   0.287811 0.871284 0.383960 -0.206547
C12   C     C_R   0.501299 0.500664 0.661807 0.908446
C13   C     C_R   0.314027 0.784699 0.416563 -0.196790
C14   C     C_R   0.474212 0.810696 0.463300 -0.269124
C15   C     C_R   0.450516 0.895865 0.427648 0.086876
C16   C     C_R   0.355378 0.927540 0.390605 0.172787
C17   C     C_R   0.518963 0.952013 0.434959 0.067981
C18   C     C_R   0.490015 0.043194 0.421114 0.090974
C19   C     C_R   0.395116 0.073002 0.379639 -0.231635
C20   C     C_R   0.329236 0.015332 0.363042 -0.243581
C21   C     C_R   0.615337 0.920214 0.458873 -0.249202
C22   C     C_R   0.680743 0.976953 0.484085 -0.212556
C23   C     C_R   0.558344 0.337453 0.510590 0.894097
C24   C     C_R   0.651826 0.066410 0.486950 0.117955
C25   C     C_R   0.556540 0.100727 0.453533 0.096668
C26   C     C_R   0.716777 0.121051 0.526850 -0.323009
C27   C     C_R   0.688761 0.210502 0.535573 0.474405
C28   C     C_R   0.529580 0.190106 0.462113 -0.342666
C29   C     C_R   0.846277 0.630488 0.637540 -0.427201
C30   C     C_R   0.755463 0.609883 0.614418 0.651140
C31   C     C_R   0.790691 0.517989 0.501737 -0.175183
C32   C     C_R   0.883275 0.536245 0.522355 -0.001656
C33   C     C_R   0.909841 0.594149 0.591715 0.112074
C34   C     C_R   0.498727 0.499555 0.338323 0.885763
C35   C     C_R   0.950673 0.496985 0.479245 0.105850
C36   C     C_R   0.043992 0.516542 0.507077 0.077055
C37   C     C_R   0.066226 0.576268 0.575254 -0.238804
C38   C     C_R   0.000252 0.614182 0.616469 -0.180593
C39   C     C_R   0.928577 0.437262 0.410952 -0.258710
C40   C     C_R   0.996113 0.395349 0.373383 -0.226785
C41   C     C_R   0.087569 0.412508 0.400954 0.187781
C42   C     C_R   0.112493 0.474359 0.466946 -0.007255
C43   C     C_R   0.154584 0.368514 0.362593 -0.322324
C44   C     C_R   0.245396 0.386878 0.389003 0.020558
C45   C     C_3   0.409468 0.479469 0.926005 -0.418706
C46   C     C_R   0.205800 0.490831 0.489816 -0.061225
C47   C     C_3   0.518825 0.593265 0.958059 -0.421889
C48   C     C_3   0.515239 0.593761 0.055929 0.320508
C49   C     C_1   0.496436 0.498565 0.248919 -0.183146
C50   C     C_3   0.504310 0.502020 0.918787 0.227314
H1    H     H_    0.349795 0.536170 0.028519 0.232165
H2    H     H_    0.399218 0.413002 0.900590 0.180204
H3    H     H_    0.379465 0.423567 0.040813 0.174557
H4    H     H_    0.256984 0.040456 0.332499 0.143717
H5    H     H_    0.457430 0.218018 0.440067 0.178378
H6    H     H_    0.753858 0.950156 0.505840 0.143313
H7    H     H_    0.214895 0.894451 0.354303 0.135308
H8    H     H_    0.261510 0.741620 0.409564 0.158887
H9    H     H_    0.544955 0.787500 0.498435 0.148716
H10   H     H_    0.351679 0.526924 0.885334 0.190305
H11   H     H_    0.369961 0.140440 0.358542 0.140762
H12   H     H_    0.641974 0.851454 0.458846 0.142102
H13   H     H_    0.788607 0.093195 0.555654 0.147090
H14   H     H_    0.020728 0.658743 0.669306 0.141752
H15   H     H_    0.231187 0.538437 0.536793 0.129258
H16   H     H_    0.297698 0.354226 0.359085 0.125615
H17   H     H_    0.976470 0.348907 0.322213 0.140459
H18   H     H_    0.867940 0.672723 0.692018 0.160498
H19   H     H_    0.763613 0.475150 0.450293 0.154976
H20   H     H_    0.587404 0.609681 0.953381 0.146800
H21   H     H_    0.134660 0.594465 0.599884 0.135826
H22   H     H_    0.859701 0.420316 0.385321 0.140988
H23   H     H_    0.136760 0.320876 0.312280 0.138120
H24   H     H_    0.464485 0.644592 0.918786 0.202566
H25   H     H_    0.584022 0.609782 0.095368 0.110117
H26   H     H_    0.570104 0.365509 0.944320 0.164074
H27   H     H_    0.649596 0.443624 0.959163 0.184774
N1    N     N_R   0.731690 0.552720 0.548990 -0.135224
N2    N     N_R   0.268300 0.447240 0.450950 -0.097841
O1    O     O_R   0.383120 0.605620 0.475300 -0.620963
O2    O     O_R   0.531890 0.639510 0.506740 -0.603823
O3    O     O_R   0.425580 0.483050 0.607130 -0.621639
O4    O     O_R   0.574360 0.516930 0.638570 -0.547452
O5    O     O_R   0.468110 0.360490 0.493260 -0.627690
O6    O     O_R   0.616880 0.394380 0.524700 -0.576386
O7    O     O_R   0.425640 0.483070 0.361430 -0.617980
O8    O     O_R   0.574420 0.516950 0.392870 -0.622800
Zn1   Zn    Zn3+2 0.400660 0.477370 0.479010 0.938089
Zn2   Zn    Zn3+2 0.599340 0.522630 0.520990 0.991724
O9    O     O_3   0.668746 0.468890 0.117700 -0.650866
C51   C     C_3   0.754578 0.412932 0.130435 0.077429
H28   H     H_    0.759668 0.374478 0.071455 0.124292
H29   H     H_    0.764375 0.367435 0.187795 0.155897
C52   C     C_3   0.833440 0.468328 0.151095 -0.826320
H30   H     H_    0.832266 0.505823 0.211425 0.264598
H31   H     H_    0.901393 0.425379 0.162089 0.205403
H32   H     H_    0.825762 0.514934 0.095188 0.253814
O10   O     O_3   0.750821 0.260976 0.586302 -0.593603
C53   C     C_3   0.820166 0.273567 0.543398 0.112849
H33   H     H_    0.789377 0.317241 0.484024 0.134802
H34   H     H_    0.854263 0.210941 0.523235 0.118556
C54   C     C_3   0.895559 0.316235 0.606426 -0.789501
H35   H     H_    0.929317 0.271847 0.664586 0.247499
H36   H     H_    0.949271 0.329262 0.572979 0.211653
H37   H     H_    0.864880 0.378905 0.629205 0.266004
O11   O     O_3   0.691928 0.638125 0.662490 -0.582720
C55   C     C_3   0.682707 0.729888 0.674017 0.086463
H38   H     H_    0.607597 0.756225 0.651479 0.168441
H39   H     H_    0.718753 0.766594 0.635135 0.107048
C56   C     C_3   0.715227 0.748889 0.771468 -0.860741
H40   H     H_    0.790000 0.723041 0.798021 0.245873
H41   H     H_    0.705268 0.820770 0.780538 0.216772
H42   H     H_    0.674040 0.717641 0.808931 0.261846
O12   O     O_3   0.440266 0.657335 0.065454 -0.612562
C57   C     C_3   0.470477 0.715615 0.133225 0.084418
H43   H     H_    0.515181 0.759009 0.112752 0.141678
H44   H     H_    0.510042 0.679577 0.195703 0.141148
C58   C     C_3   0.386236 0.772158 0.150973 -0.797492
H45   H     H_    0.340992 0.730056 0.172192 0.255051
H46   H     H_    0.409410 0.818267 0.204059 0.211449
H47   H     H_    0.345681 0.810413 0.090406 0.253460
N3    N     N_2   0.592089 0.342464 0.107211 -0.308447
H48   H     H_    0.646260 0.299093 0.095952 0.200705
C59   C     C_3   0.510839 0.298549 0.095932 -0.866654
H49   H     H_    0.533013 0.228852 0.118562 0.243729
H50   H     H_    0.472349 0.299027 0.025448 0.242777
H51   H     H_    0.466738 0.327393 0.138450 0.254466

loop_
_geom_bond_atom_site_label_1
_geom_bond_atom_site_label_2
_ccdc_geom_bond_type
C10   C27   A    
C43   H23   S    
C27   O10   S    
C55   H39   S    
C41   C42   A    
C44   H16   S    
C19   C20   A    
C9    C14   A    
C3    C6    S    
O12   C57   S    
C7    C8    T    
C45   H10   S    
C25   C28   A    
C14   H9    S    
C26   C27   A    
C29   C30   A    
C48   O12   S    
C36   C37   A    
C24   C26   A    
C42   C46   A    
C46   N2    A    
O7    Zn1   S    
O11   C55   S    
C1    O2    A    
C15   C16   A    
C29   C33   A    
C3    C48   S    
C54   H37   S    
C18   C19   A    
C34   O7    A    
C9    C13   A    
C58   H45   S    
C56   H41   S    
C56   H40   S    
C36   C42   A    
C35   C36   A    
C57   H44   S    
C40   H17   S    
C55   H38   S    
C38   H14   S    
C16   C20   A    
O2    Zn2   S    
C2    C45   S    
C21   C22   A    
C30   O11   S    
C41   C43   A    
C48   H25   S    
C54   H35   S    
C18   C25   A    
N2    Zn1   S    
C28   H5    S    
C47   C50   S    
C4    O9    S    
C44   N2    A    
N1    Zn2   S    
O4    Zn2   S    
C23   O5    A    
C12   O3    A    
C32   C35   A    
C1    C9    S    
C24   C25   A    
C7    C50   S    
C46   H15   S    
C20   H4    S    
C39   C40   A    
O6    Zn2   S    
C22   H6    S    
C13   H8    S    
C52   H32   S    
C17   C21   A    
C12   O4    A    
C58   H47   S    
C52   H31   S    
C26   H13   S    
C47   H20   S    
C37   C38   A    
C51   H29   S    
C29   H18   S    
C11   C16   A    
C47   C48   S    
C8    C12   S    
C57   C58   S    
C17   C18   A    
C4    N3    S    
C54   H36   S    
C56   H42   S    
C21   H12   S    
C39   H22   S    
C59   H51   S    
C40   C41   A    
C53   H34   S    
C37   H21   S    
C43   C44   A    
C55   C56   S    
C22   C24   A    
C5    C50   S    
C5    H27   S    
C3    C4    S    
C51   H28   S    
C31   N1    A    
C59   H50   S    
C10   C28   A    
C15   C17   A    
C34   C49   S    
C31   C32   A    
O5    Zn1   S    
C47   H24   S    
C4    C5    S    
C2    H3    S    
C10   C23   S    
C33   C38   A    
C45   H2    S    
C53   H33   S    
C32   C33   A    
C5    H26   S    
O8    Zn2   S    
C2    C3    S    
O1    Zn1   S    
C51   C52   S    
C11   C13   A    
O9    C51   S    
C45   C50   S    
C19   H11   S    
O3    Zn1   S    
C35   C39   A    
C34   O8    A    
C6    C49   T    
C52   H30   S    
C58   H46   S    
C2    H1    S    
C30   N1    A    
C31   H19   S    
C53   C54   S    
O10   C53   S    
C23   O6    A    
C1    O1    A    
C14   C15   A    
N3    H48   S    
C11   H7    S    
N3    C59   S    
C57   H43   S    
C59   H49   S    
