data_mof_unit_40273.cif
_audit_creation_date              2012-12-11T15:20:42-0500
_audit_creation_method            fapswitch 2.2
_symmetry_space_group_name_H-M    P1
_symmetry_Int_Tables_number       1
_space_group_crystal_system       triclinic
_cell_length_a                    13.074496
_cell_length_b                    13.045558
_cell_length_c                    15.33746
_cell_angle_alpha                 116.186491
_cell_angle_beta                  62.839695
_cell_angle_gamma                 97.441594
_cell_volume                      2080.17107161

loop_
_atom_site_label
_atom_site_type_symbol
_atom_type_description
_atom_site_fract_x
_atom_site_fract_y
_atom_site_fract_z
_atom_type_partial_charge
C1    C     C_R   0.024560 0.833707 0.027962 0.550978
C2    C     C_R   0.320879 0.518827 0.780049 -0.050597
C3    C     C_R   0.245244 0.473234 0.102072 -0.149426
C4    C     C_R   0.699397 0.405457 0.209868 -0.108344
C5    C     C_R   0.988392 0.299153 0.695762 -0.177671
C6    C     C_R   0.337281 0.534208 0.069834 0.076666
C7    C     C_R   0.930602 0.204532 0.697705 -0.136889
C8    C     C_R   0.330095 0.444589 0.677479 -0.017782
C9    C     C_R   0.072553 0.144089 0.981375 0.026900
C10   C     C_R   0.904349 0.029380 0.445368 -0.163402
C11   C     C_R   0.892542 0.123158 0.539972 -0.165773
C12   C     C_R   0.704626 0.426551 0.304332 -0.008378
C13   C     C_R   0.932481 0.109891 0.604901 0.145903
C14   C     C_R   0.987026 0.007021 0.576016 -0.185245
C15   C     C_R   0.000486 0.915135 0.481754 -0.169888
C16   C     C_R   0.749475 0.530432 0.904201 -0.057942
C17   C     C_R   0.956662 0.926050 0.418583 0.156739
C18   C     C_R   0.637145 0.426983 0.484343 -0.158853
C19   C     C_R   0.543585 0.429818 0.577829 -0.154993
C20   C     C_R   0.437544 0.397973 0.576476 0.135762
C21   C     C_R   0.433620 0.340394 0.476354 -0.157410
C22   C     C_R   0.527184 0.337566 0.382775 -0.150226
C23   C     C_R   0.649349 0.486116 0.954733 0.049043
C24   C     C_R   0.625353 0.391205 0.388866 0.133990
C25   C     C_2   0.447551 0.516906 0.059539 -0.160550
C26   C     C_2   0.538392 0.497269 0.963777 -0.096966
C27   C     C_2   0.882040 0.966057 0.040097 -0.186884
C28   C     C_R   0.949935 0.719415 0.315674 0.530013
C29   C     C_2   0.860598 0.053794 0.136481 -0.135245
C30   C     C_R   0.669078 0.437155 0.008258 -0.118593
C31   C     C_R   0.038531 0.819989 0.220382 -0.171072
C32   C     C_R   0.801982 0.483499 0.302136 -0.037637
C33   C     C_R   0.915437 0.749878 0.942886 -0.137845
C34   C     C_R   0.969552 0.828368 0.323066 -0.173047
C35   C     C_R   0.941903 0.855559 0.002835 -0.081286
C36   C     C_2   0.780772 0.553820 0.809616 0.945446
C37   C     C_2   0.366345 0.688958 0.004376 0.982262
C38   C     C_R   0.319208 0.583067 0.014819 -0.124951
C39   C     C_R   0.904863 0.201195 0.793531 0.496749
C40   C     C_R   0.219409 0.436755 0.685430 -0.092239
C41   C     C_R   0.090065 0.250152 0.050729 -0.118005
C42   C     C_R   0.991985 0.166604 0.954620 -0.089098
H1    H     H_    0.194209 0.387768 0.621726 0.100389
H2    H     H_    0.644127 0.349767 0.177759 0.099649
H3    H     H_    0.045097 0.835668 0.457890 0.148821
H4    H     H_    0.713815 0.463247 0.490966 0.127421
H5    H     H_    0.552195 0.467749 0.652351 0.138054
H6    H     H_    0.355472 0.307599 0.470892 0.112674
H7    H     H_    0.517423 0.302978 0.308966 0.113843
H8    H     H_    0.453801 0.516688 0.127725 0.129943
H9    H     H_    0.530654 0.496158 0.895814 0.150596
H10   H     H_    0.844829 0.973192 0.992411 0.168415
H11   H     H_    0.889783 0.049798 0.190870 0.129174
H12   H     H_    0.147010 0.264262 0.087554 0.106030
H13   H     H_    0.614721 0.384315 0.046312 0.112913
H14   H     H_    0.083622 0.887757 0.201121 0.209281
H15   H     H_    0.843015 0.493530 0.352146 0.147616
H16   H     H_    0.855472 0.736922 0.909766 0.153418
H17   H     H_    0.086039 0.981251 0.056163 0.312462
H18   H     H_    0.797456 0.085007 0.787202 0.319268
H19   H     H_    0.908156 0.566614 0.677095 0.322442
H20   H     H_    0.852925 0.754541 0.466548 0.318799
H21   H     H_    0.355935 0.817461 0.968565 0.340710
H22   H     H_    0.959276 0.103111 0.901613 0.153157
H23   H     H_    0.389903 0.543347 0.803136 0.101542
H24   H     H_    0.227669 0.432629 0.154951 0.106427
H25   H     H_    0.013837 0.331493 0.635521 0.155070
H26   H     H_    0.873006 0.036618 0.393788 0.123959
H27   H     H_    0.853105 0.204821 0.562552 0.127819
H28   H     H_    0.021904 0.998956 0.624934 0.131740
N1    N     N_R   0.037310 0.720000 0.995790 -0.065677
N2    N     N_R   0.824890 0.517960 0.936420 -0.065528
N3    N     N_R   0.003210 0.648190 0.211380 -0.079768
N4    N     N_R   0.774330 0.457010 0.995840 -0.054118
N5    N     N_R   0.053760 0.709140 0.151960 -0.064017
N6    N     N_R   0.853860 0.498840 0.211410 -0.049966
N7    N     N_R   0.974240 0.667310 0.936390 -0.065497
N8    N     N_R   0.225670 0.542990 0.004160 -0.065222
N9    N     N_R   0.946240 0.290860 0.848040 -0.075198
N10   N     N_R   0.146140 0.501160 0.788590 -0.036059
N11   N     N_R   0.025760 0.332690 0.063610 -0.051539
N12   N     N_R   0.962690 0.280000 0.004210 -0.042598
N13   N     N_R   0.209210 0.553840 0.847990 -0.026752
N14   N     N_R   0.175110 0.482040 0.063580 -0.054118
N15   N     N_R   0.996790 0.351810 0.788620 -0.063730
N16   N     N_R   0.790790 0.446160 0.152010 -0.048692
Ni1   Ni    Ni4+2 0.130310 0.630310 0.999970 0.282932
Ni2   Ni    Ni4+2 0.869690 0.369690 0.000030 0.244257
Ni3   Ni    Ni4+2 0.985640 0.509470 0.863740 0.251047
Ni4   Ni    Ni4+2 0.014360 0.490530 0.136260 0.221752
O1    O     O_3   0.101815 0.907832 0.054060 -0.776074
O2    O     O_3   0.826757 0.136592 0.839574 -0.790332
O3    O     O_2   0.705750 0.575162 0.791928 -0.652920
O4    O     O_R   0.897124 0.549802 0.739224 -0.824373
O5    O     O_3   0.897659 0.686253 0.398608 -0.800475
O6    O     O_2   0.444964 0.729190 0.027959 -0.620820
O7    O     O_R   0.317652 0.745502 0.971334 -0.782362

loop_
_geom_bond_atom_site_label_1
_geom_bond_atom_site_label_2
_ccdc_geom_bond_type
N8    Ni1   S    
N13   Ni1   S    
C33   H16   S    
N6    N16   A    
C27   C29   D    
N3    N5    A    
C19   C20   A    
C16   N2    A    
N1    N7    A    
C5    H25   S    
C2    H23   S    
C37   O7    S    
N11   N12   A    
N7    Ni3   S    
C9    C42   A    
C8    C20   S    
C28   O5    S    
C18   C24   A    
N3    Ni4   S    
C30   N4    A    
N16   Ni2   S    
C6    C25   S    
C4    N16   A    
C10   C17   A    
C18   C19   A    
C23   C26   S    
N10   Ni3   S    
C25   H8    S    
C36   O3    D    
C40   H1    S    
H20   O5    S    
C42   N12   A    
C40   N10   A    
C31   H14   S    
C4    C12   A    
C21   H6    S    
C5    N15   A    
C3    C6    A    
C28   C34   A    
C1    O1    S    
C21   C22   A    
C12   C32   A    
C14   H28   S    
C2    N13   A    
N14   Ni4   S    
C32   H15   S    
N10   N13   A    
C28   N3    A    
C18   H4    S    
N9    Ni2   S    
H18   O2    S    
C23   C30   A    
N2    N4    A    
C5    C7    A    
N15   Ni3   S    
H19   O4    S    
C4    H2    S    
C27   C35   S    
C25   C26   D    
C37   O6    D    
C39   N9    A    
C37   C38   S    
N8    N14   A    
C31   N5    A    
C41   N11   A    
C6    C38   A    
C31   C34   A    
H17   O1    S    
C22   H7    S    
N1    Ni1   S    
N11   Ni4   S    
N5    Ni1   S    
C16   C23   A    
C22   C24   A    
C3    H24   S    
C17   C34   S    
C15   H3    S    
C42   H22   S    
C39   O2    S    
N9    N15   A    
C27   H10   S    
C1    C35   A    
C15   C17   A    
C2    C8    A    
C32   N6    A    
C11   H27   S    
C10   H26   S    
C38   N8    A    
C30   H13   S    
C12   C24   S    
C9    C41   A    
H21   O7    S    
C26   H9    S    
C16   C36   S    
N2    Ni3   S    
C11   C13   A    
C33   N7    A    
C29   H11   S    
C1    N1    A    
N12   Ni2   S    
C33   C35   A    
C19   H5    S    
C41   H12   S    
C10   C11   A    
C36   O4    S    
C7    C13   S    
C20   C21   A    
C3    N14   A    
C7    C39   A    
C14   C15   A    
C8    C40   A    
N4    Ni2   S    
C13   C14   A    
N6    Ni4   S    
