data_mof_unit_37234.cif
_audit_creation_date              2012-12-10T18:58:46-0500
_audit_creation_method            fapswitch 2.2
_symmetry_space_group_name_H-M    P1
_symmetry_Int_Tables_number       1
_space_group_crystal_system       triclinic
_cell_length_a                    13.011824
_cell_length_b                    10.859921
_cell_length_c                    9.545629
_cell_angle_alpha                 90.084197
_cell_angle_beta                  96.263796
_cell_angle_gamma                 90.428063
_cell_volume                      1340.77425767

loop_
_atom_site_label
_atom_site_type_symbol
_atom_type_description
_atom_site_fract_x
_atom_site_fract_y
_atom_site_fract_z
_atom_type_partial_charge
C1    C     C_R   0.500019 0.262768 0.499918 0.797470
C2    C     C_R   0.028353 0.517090 0.568613 -0.060773
C3    C     C_R   0.972572 0.483464 0.437454 0.058660
C4    C     C_R   0.864928 0.478794 0.425327 -0.198905
C5    C     C_R   0.867286 0.515829 0.675107 -0.202588
C6    C     C_R   0.975123 0.522927 0.691204 0.167765
C7    C     C_R   0.484533 0.062553 0.617763 0.094427
C8    C     C_R   0.501408 0.130284 0.499111 -0.107825
C9    C     C_R   0.519576 0.064658 0.376630 -0.210784
C10   C     C_R   0.519072 0.935537 0.376648 -0.202392
C11   C     C_R   0.499967 0.870041 0.498937 -0.098546
C12   C     C_R   0.300629 0.501753 0.473698 0.869951
C13   C     C_R   0.482148 0.938187 0.617027 0.019116
C14   C     C_3   0.453825 0.929094 0.764472 -0.078360
C15   C     C_3   0.455677 0.071875 0.765139 -0.066416
C16   C     C_R   0.588292 0.526414 0.086856 0.269504
C17   C     C_R   0.415592 0.462096 0.061762 -0.090624
C18   C     C_R   0.415505 0.462291 0.913126 -0.083780
C19   C     C_R   0.588603 0.525544 0.939558 0.258792
C20   C     C_3   0.650978 0.641443 0.943389 -0.503084
C21   C     C_3   0.649608 0.642961 0.102099 -0.494221
C22   C     C_R   0.499402 0.737327 0.499927 0.804608
C23   C     C_R   0.699437 0.499121 0.526457 0.816702
C24   C     C_R   0.812211 0.499328 0.542529 -0.127633
C25   C     C_R   0.187811 0.500644 0.459229 -0.122996
C26   C     C_R   0.024860 0.453141 0.320694 0.413886
C27   C     C_R   0.132863 0.458047 0.334488 -0.393810
C28   C     C_R   0.135408 0.540089 0.571960 0.310908
Cu1   Cu    Cu3+1 0.499990 0.499980 0.640670 0.946702
Cu2   Cu    Cu3+1 0.500010 0.500020 0.359330 0.936883
H1    H     H_    0.821646 0.458376 0.324362 0.202455
H2    H     H_    0.515372 0.885994 0.836984 0.168064
H3    H     H_    0.378194 0.114045 0.767575 0.131029
H4    H     H_    0.346779 0.432615 0.106624 0.140151
H5    H     H_    0.346583 0.432667 0.848089 0.163343
H6    H     H_    0.729429 0.626835 0.911820 0.188487
H7    H     H_    0.608414 0.718461 0.888860 0.204787
H8    H     H_    0.727257 0.629258 0.160738 0.204111
H9    H     H_    0.605025 0.720909 0.139791 0.204182
H10   H     H_    0.826347 0.519480 0.767589 0.160731
H11   H     H_    0.173972 0.429408 0.247304 0.160540
H12   H     H_    0.534088 0.112392 0.281104 0.161696
H13   H     H_    0.533491 0.887766 0.281204 0.154634
N1    N     N_R   0.500660 0.500930 0.148010 -0.188033
N2    N     N_R   0.500660 0.500890 0.852110 -0.192445
O1    O     O_R   0.500000 0.319640 0.618810 -0.588807
O2    O     O_R   0.500010 0.319680 0.381230 -0.587083
O3    O     O_R   0.348990 0.499960 0.599490 -0.545572
O4    O     O_R   0.349000 0.500000 0.361910 -0.603660
O5    O     O_R   0.499990 0.680320 0.618770 -0.586844
O6    O     O_R   0.500000 0.680360 0.381190 -0.583638
O7    O     O_R   0.651000 0.500000 0.638090 -0.585469
O8    O     O_R   0.651010 0.500040 0.400510 -0.588371
C29   C     C_3   0.538093 0.129955 0.875155 -0.372564
C30   C     C_3   0.650642 0.104886 0.851272 -0.793886
H14   H     H_    0.666101 0.004615 0.849523 0.237418
H15   H     H_    0.668926 0.146756 0.750791 0.254914
H16   H     H_    0.702808 0.147015 0.938402 0.236314
H17   H     H_    0.526885 0.231098 0.876027 0.222351
H18   H     H_    0.524503 0.095776 0.981320 0.192738
O9    O     O_3   0.969441 0.413496 0.196870 -0.757639
H19   H     H_    0.018444 0.386617 0.130657 0.317597
C31   C     C_3   0.027974 0.515048 0.840892 -0.410190
C32   C     C_3   0.012195 0.630969 0.927048 -0.803731
H20   H     H_    0.036519 0.714882 0.873016 0.236920
H21   H     H_    0.929708 0.640200 0.944776 0.249000
H22   H     H_    0.058747 0.624405 0.031399 0.253441
H23   H     H_    0.994211 0.435333 0.892912 0.198906
H24   H     H_    0.111397 0.494149 0.845514 0.232187
O10   O     O_3   0.189123 0.610283 0.676485 -0.751155
H25   H     H_    0.141875 0.674619 0.704442 0.328783
C33   C     C_3   0.346347 0.871500 0.772056 -0.378616
C34   C     C_3   0.317986 0.872038 0.922972 -0.827312
H26   H     H_    0.375631 0.819046 0.992696 0.255285
H27   H     H_    0.315274 0.967920 0.962973 0.243875
H28   H     H_    0.240750 0.828500 0.925881 0.249529
H29   H     H_    0.286354 0.921430 0.702606 0.200584
H30   H     H_    0.346844 0.774578 0.735228 0.268322

loop_
_geom_bond_atom_site_label_1
_geom_bond_atom_site_label_2
_ccdc_geom_bond_type
Cu2   O6    S    
C16   C21   S    
C1    C8    S    
C34   H26   S    
C19   C20   S    
C12   O3    A    
C12   O4    A    
C7    C8    A    
C29   H18   S    
C25   C28   A    
C26   C27   A    
Cu1   Cu2   S    
C26   O9    S    
C5    C6    A    
C4    C24   A    
C1    O1    A    
C33   H30   S    
C29   C30   S    
C21   H8    S    
C31   H24   S    
C8    C9    A    
C23   C24   S    
O10   H25   S    
C9    C10   A    
C16   N1    A    
C29   H17   S    
C7    C15   S    
C13   C14   S    
C34   H27   S    
Cu2   N1    S    
C2    C6    A    
C23   O8    A    
Cu1   O5    S    
Cu2   O8    S    
Cu1   O3    S    
C32   H22   S    
Cu2   O2    S    
C1    O2    A    
Cu1   N2    S    
C32   H21   S    
C6    C31   S    
C15   C29   S    
C33   H29   S    
C27   H11   S    
C21   H9    S    
C30   H14   S    
C17   C18   A    
C9    H12   S    
Cu2   O4    S    
C30   H15   S    
C34   H28   S    
C5    H10   S    
C17   H4    S    
C3    C4    A    
C18   N2    A    
C18   H5    S    
C31   H23   S    
C10   H13   S    
C14   C33   S    
C3    C26   A    
C28   O10   S    
C14   H2    S    
C33   C34   S    
C19   N2    A    
C25   C27   A    
C12   C25   S    
C11   C22   S    
C22   O5    A    
Cu1   O1    S    
C32   H20   S    
C2    C3    A    
C17   N1    A    
C20   H7    S    
C11   C13   A    
C23   O7    A    
C5    C24   A    
C16   C19   A    
O9    H19   S    
C4    H1    S    
C10   C11   A    
C31   C32   S    
C20   H6    S    
C7    C13   A    
C20   C21   S    
C30   H16   S    
C14   C15   S    
C2    C28   A    
C15   H3    S    
C22   O6    A    
Cu1   O7    S    
