data_mof_unit_25630.cif
_audit_creation_date              2012-12-10T16:48:07-0500
_audit_creation_method            fapswitch 2.2
_symmetry_space_group_name_H-M    P1
_symmetry_Int_Tables_number       1
_space_group_crystal_system       triclinic
_cell_length_a                    15.829955
_cell_length_b                    8.689744
_cell_length_c                    7.450228
_cell_angle_alpha                 103.092761
_cell_angle_beta                  93.946666
_cell_angle_gamma                 92.334025
_cell_volume                      994.158136406

loop_
_atom_site_label
_atom_site_type_symbol
_atom_type_description
_atom_site_fract_x
_atom_site_fract_y
_atom_site_fract_z
_atom_type_partial_charge
C1    C     C_R   0.497287 0.199671 0.453186 0.882186
C2    C     C_R   0.502365 0.800303 0.546825 0.879947
C3    C     C_R   0.339981 0.498989 0.502554 0.817731
C4    C     C_R   0.660072 0.500797 0.497422 0.823068
C5    C     C_2   0.495780 0.031680 0.426939 -0.367776
C6    C     C_2   0.503394 0.968251 0.573069 -0.366357
C7    C     C_3   0.969249 0.378728 0.559979 0.571592
C8    C     C_3   0.031143 0.617386 0.436358 0.550225
C9    C     C_3   0.021185 0.360636 0.389614 -0.291755
C10   C     C_3   0.978943 0.636407 0.606228 -0.249485
C11   C     C_1   0.250524 0.496781 0.507808 -0.178345
C12   C     C_1   0.749633 0.501798 0.491927 -0.159737
C13   C     C_3   0.031924 0.511317 0.675418 -0.348221
C14   C     C_3   0.967978 0.486246 0.321216 -0.324108
C15   C     C_3   0.083260 0.494816 0.504341 0.048253
C16   C     C_3   0.916974 0.501961 0.492543 0.080772
C17   C     C_1   0.174968 0.494981 0.508247 -0.039773
C18   C     C_1   0.825227 0.502502 0.490618 0.007610
Cu1   Cu    Cu3+1 0.509330 0.517380 0.684380 0.957609
Cu2   Cu    Cu3+1 0.490670 0.482620 0.315620 0.954576
H1    H     H_    0.039661 0.246636 0.304702 0.156601
H2    H     H_    0.960696 0.750554 0.691291 0.153627
H3    H     H_    0.940862 0.479249 0.178030 0.144210
H4    H     H_    0.061151 0.521571 0.817275 0.139752
H5    H     H_    0.488528 0.959869 0.286199 0.179314
H6    H     H_    0.510571 0.040058 0.713807 0.180359
H7    H     H_    0.434218 0.377621 0.948809 0.224698
H8    H     H_    0.565724 0.622476 0.051216 0.228252
N1    N     N_2   0.476600 0.456420 0.038510 -0.215859
N2    N     N_2   0.523400 0.543580 0.961490 -0.213878
O1    O     O_R   0.506070 0.286130 0.619780 -0.583370
O2    O     O_R   0.493930 0.713870 0.380220 -0.584322
O3    O     O_R   0.490300 0.256770 0.308360 -0.586197
O4    O     O_R   0.509700 0.743230 0.691640 -0.586141
O5    O     O_R   0.386960 0.514660 0.655680 -0.584547
O6    O     O_R   0.613040 0.485340 0.344320 -0.581865
O7    O     O_R   0.371190 0.485310 0.344260 -0.577847
O8    O     O_R   0.628810 0.514690 0.655740 -0.571434
O9    O     O_3   0.929233 0.247325 0.609446 -0.609673
C19   C     C_3   0.972808 0.210672 0.765069 0.051488
H9    H     H_    0.930541 0.126680 0.814773 0.175451
H10   H     H_    0.984277 0.315980 0.882213 0.122599
C20   C     C_3   0.055217 0.129666 0.715513 -0.357515
H11   H     H_    0.040449 0.022474 0.602432 0.268425
H12   H     H_    0.099769 0.210371 0.666777 0.216653
C21   C     C_3   0.098995 0.082455 0.882078 -0.922060
H13   H     H_    0.114086 0.188378 0.997017 0.249714
H14   H     H_    0.159150 0.027698 0.842671 0.270596
H15   H     H_    0.057711 0.995630 0.929596 0.255837
O10   O     O_3   0.067059 0.748725 0.380713 -0.624334
C22   C     C_3   0.097429 0.700552 0.203795 0.035515
H16   H     H_    0.046825 0.713767 0.098226 0.147899
H17   H     H_    0.116140 0.575338 0.171751 0.138681
C23   C     C_3   0.175203 0.806917 0.192233 -0.326609
H18   H     H_    0.156711 0.931073 0.208527 0.220316
H19   H     H_    0.223475 0.802887 0.306536 0.230223
C24   C     C_3   0.214424 0.753770 0.008195 -0.900421
H20   H     H_    0.236309 0.631926 0.992820 0.265717
H21   H     H_    0.269797 0.834871 0.003138 0.258067
H22   H     H_    0.167485 0.755955 0.891185 0.264065

loop_
_geom_bond_atom_site_label_1
_geom_bond_atom_site_label_2
_ccdc_geom_bond_type
C14   H3    S    
C7    C13   S    
C9    C14   S    
C4    O6    A    
C23   H19   S    
C15   C17   S    
N1    N2    D    
Cu1   O8    S    
H7    N1    S    
Cu1   Cu2   S    
C3    O5    A    
C20   H11   S    
C22   C23   S    
Cu1   O1    S    
C19   C20   S    
C2    O4    A    
H8    N2    S    
O10   C22   S    
C9    C15   S    
C1    O3    A    
C10   C16   S    
Cu1   O5    S    
C10   H2    S    
Cu2   O7    S    
C20   H12   S    
C21   H15   S    
C9    H1    S    
C24   H20   S    
C6    H6    S    
C5    H5    S    
Cu2   O3    S    
C16   C18   S    
C19   H9    S    
C23   C24   S    
C4    O8    A    
C8    C15   S    
C14   C16   S    
Cu2   N1    S    
C13   C15   S    
C5    C6    D    
C20   C21   S    
C1    C5    S    
C24   H21   S    
C4    C12   S    
C22   H16   S    
Cu2   O6    S    
C21   H14   S    
C8    O10   S    
C1    O1    A    
C3    C11   S    
C3    O7    A    
C2    O2    A    
Cu2   O2    S    
C12   C18   T    
O9    C19   S    
C7    C9    S    
C7    O9    S    
C21   H13   S    
C11   C17   T    
C24   H22   S    
C8    C14   S    
C23   H18   S    
Cu1   N2    S    
Cu1   O4    S    
C8    C10   S    
C7    C16   S    
C2    C6    S    
C13   H4    S    
C19   H10   S    
C22   H17   S    
C10   C13   S    
