data_mof_unit_20010.cif
_audit_creation_date              2013-03-05T15:40:49-0500
_audit_creation_method            fapswitch 2.2
_symmetry_space_group_name_H-M    P1
_symmetry_Int_Tables_number       1
_space_group_crystal_system       triclinic
_cell_length_a                    7.833252
_cell_length_b                    8.682034
_cell_length_c                    14.994622
_cell_angle_alpha                 92.219261
_cell_angle_beta                  86.253896
_cell_angle_gamma                 93.427035
_cell_volume                      1015.14333008

loop_
_atom_site_label
_atom_site_type_symbol
_atom_site_description
_atom_site_fract_x
_atom_site_fract_y
_atom_site_fract_z
_atom_type_partial_charge
O1    O     O_R   0.389250 0.738570 0.505970 -0.602570
O2    O     O_R   0.610750 0.261430 0.494030 -0.602607
O3    O     O_R   0.678390 0.711620 0.490370 -0.557191
O4    O     O_R   0.321610 0.288380 0.509630 -0.557138
C1    C     C_R   0.544540 0.793494 0.497336 0.939204
C2    C     C_R   0.455460 0.206503 0.502639 0.939261
O5    O     O_R   0.355420 0.513510 0.639950 -0.582556
O6    O     O_R   0.644580 0.486490 0.360050 -0.582547
O7    O     O_R   0.644560 0.486560 0.624350 -0.587468
O8    O     O_R   0.355440 0.513440 0.375650 -0.587432
C3    C     C_R   0.502533 0.500402 0.672481 0.969581
C4    C     C_R   0.497468 0.499604 0.327523 0.969339
Zn1   Zn    Zn3+2 0.306940 0.517990 0.510420 1.211926
Zn2   Zn    Zn3+2 0.693060 0.482010 0.489580 1.211925
C5    C     C_R   0.410410 0.377854 0.186847 0.253394
C6    C     C_R   0.589844 0.622120 0.813136 0.253401
C7    C     C_R   0.492702 0.502009 0.232269 -0.259085
C8    C     C_R   0.507337 0.498034 0.767739 -0.259363
C9    C     C_R   0.576591 0.626303 0.187410 0.242017
C10   C     C_R   0.423432 0.373786 0.812640 0.242196
C11   C     C_R   0.568796 0.632722 0.094371 -0.082596
C12   C     C_R   0.431637 0.367260 0.905643 -0.082572
C13   C     C_R   0.496721 0.502071 0.047005 0.005117
C14   C     C_R   0.503704 0.497909 0.952999 0.005017
C15   C     C_R   0.418711 0.374775 0.093424 -0.019345
C16   C     C_R   0.581688 0.625186 0.906564 -0.019128
C17   C     C_R   0.632620 0.764013 0.046816 0.298512
C18   C     C_R   0.368226 0.235818 0.953162 0.298839
C19   C     C_R   0.641611 0.757003 0.954261 -0.126258
C20   C     C_R   0.359039 0.242869 0.045720 -0.126212
H1    H     H_    0.688175 0.860338 0.920432 0.242726
H2    H     H_    0.312650 0.139496 0.079560 0.242942
C21   C     C_2   0.568607 0.955578 0.500849 0.050037
C22   C     C_2   0.431400 0.044416 0.499092 0.050069
N1    N     N_2   0.950330 0.457950 0.475660 0.126739
N2    N     N_2   0.049670 0.542050 0.524340 0.126707
N3    N     N_R   0.327639 0.251376 0.235523 0.231255
O9    O     O_R   0.411771 0.178011 0.290904 -0.317611
O10   O     O_R   0.169961 0.205451 0.221900 -0.258464
N4    N     N_R   0.672662 0.748552 0.764437 0.231448
O11   O     O_R   0.588601 0.821851 0.708995 -0.317678
O12   O     O_R   0.830362 0.794428 0.778042 -0.258594
N5    N     N_R   0.679319 0.738593 0.236307 0.241889
O13   O     O_R   0.845000 0.748257 0.221043 -0.270576
O14   O     O_R   0.608606 0.825363 0.299211 -0.332636
N6    N     N_R   0.320081 0.261772 0.763884 0.242166
O15   O     O_R   0.154587 0.251611 0.779949 -0.270911
O16   O     O_R   0.390043 0.175253 0.700619 -0.332789
N7    N     N_R   0.674080 0.910358 0.090310 0.239378
O17   O     O_R   0.557103 0.976827 0.141117 -0.308975
O18   O     O_R   0.812430 0.991163 0.064240 -0.279612
N8    N     N_R   0.327755 0.089286 0.909620 0.239324
O19   O     O_R   0.190566 0.007204 0.936048 -0.280432
O20   O     O_R   0.444875 0.024038 0.858293 -0.308666
N9    N     N_R   0.740817 0.016287 0.512036 0.244798
O21   O     O_R   0.857466 0.998254 0.447349 -0.198431
O22   O     O_R   0.785058 0.068287 0.590280 -0.231798
N10   N     N_R   0.259201 0.983705 0.487874 0.244807
O23   O     O_R   0.142507 0.001751 0.552537 -0.198424
O24   O     O_R   0.215022 0.931660 0.409628 -0.231674
Cl1   Cl    Cl    0.038737 0.323112 0.402733 -0.281364
Cl2   Cl    Cl    0.961276 0.676939 0.597231 -0.281314

loop_
_geom_bond_atom_site_label_1
_geom_bond_atom_site_label_2
_geom_bond_distance
_ccdc_geom_bond_type
C4    C7    1.432206 S    
C21   N9    1.436441 S    
O5    C3    1.293168 A    
O7    Zn2   2.030990 S    
C3    C8    1.432291 S    
C5    C7    1.399557 A    
N3    O9    1.300878 A    
N3    O10   1.301554 A    
C17   C19   1.384179 A    
N5    O14   1.300238 A    
N1    N2    1.279250 D    
O1    C1    1.280111 A    
O6    C4    1.293141 A    
N9    O21   1.299919 A    
N8    O20   1.300393 A    
N4    O12   1.301555 A    
C21   C22   1.362026 D    
C11   C17   1.416322 A    
O3    C1    1.297904 A    
N1    Cl1   1.715997 S    
C19   H1    1.080355 S    
N9    O22   1.301465 A    
C12   C18   1.416224 A    
C20   H2    1.080360 S    
Zn1   N2    2.034814 S    
C18   N8    1.435184 S    
O2    C2    1.280099 A    
O3    Zn2   2.003171 S    
O8    C4    1.295109 A    
C6    N4    1.440149 S    
N2    Cl2   1.715941 S    
C18   C20   1.384205 A    
N4    O11   1.300885 A    
C7    C9    1.400886 A    
C14   C16   1.415046 A    
C8    C10   1.400917 A    
C1    C21   1.407992 S    
O7    C3    1.295136 A    
C11   C13   1.422436 A    
C6    C16   1.397491 A    
N5    O13   1.301314 A    
O2    Zn2   1.986042 S    
C12   C14   1.422317 A    
C5    C15   1.397392 A    
O4    C2    1.297920 A    
O1    Zn1   1.986040 S    
C13   C14   1.406214 A    
N10   O24   1.301464 A    
N6    O16   1.300224 A    
C17   N7    1.435033 S    
O5    Zn1   2.005511 S    
C13   C15   1.415123 A    
N8    O19   1.301688 A    
C16   C19   1.399223 A    
C6    C8    1.399687 A    
N7    O17   1.300382 A    
C15   C20   1.399249 A    
C22   N10   1.436445 S    
N6    O15   1.301353 A    
C5    N3    1.440138 S    
O6    Zn2   2.005512 S    
C9    C11   1.403789 A    
N10   O23   1.299915 A    
Zn2   N1    2.034813 S    
C10   N6    1.436589 S    
C2    C22   1.408010 S    
O4    Zn1   2.003172 S    
C10   C12   1.403698 A    
N7    O18   1.301711 A    
O8    Zn1   2.030991 S    
C9    N5    1.436484 S    
