data_mof_unit_58616.cif
_audit_creation_date              2012-12-10T16:51:31-0500
_audit_creation_method            fapswitch 2.2
_symmetry_space_group_name_H-M    P1
_symmetry_Int_Tables_number       1
_space_group_crystal_system       triclinic
_cell_length_a                    7.836924
_cell_length_b                    8.567944
_cell_length_c                    12.110189
_cell_angle_alpha                 92.460489
_cell_angle_beta                  101.190712
_cell_angle_gamma                 94.11242
_cell_volume                      794.296025784

loop_
_atom_site_label
_atom_site_type_symbol
_atom_type_description
_atom_site_fract_x
_atom_site_fract_y
_atom_site_fract_z
_atom_type_partial_charge
C1    C     C_R   0.044626 0.794695 0.497437 0.961555
C2    C     C_R   0.159088 0.503847 0.832038 -0.120475
C3    C     C_2   0.067960 0.958432 0.496214 -0.385364
C4    C     C_R   0.105965 0.503641 0.710272 0.847599
C5    C     C_2   0.932574 0.041687 0.504904 -0.375672
C6    C     C_R   0.955559 0.205339 0.502953 0.932850
C7    C     C_R   0.892403 0.488284 0.289706 0.846021
C8    C     C_R   0.810438 0.288177 0.002653 -0.185953
C9    C     C_R   0.829828 0.456942 0.170029 -0.061112
C10   C     C_R   0.073125 0.594494 0.899902 -0.168418
C11   C     C_R   0.144360 0.624583 0.013556 -0.130448
C12   C     C_R   0.396157 0.483695 0.989977 0.083480
C13   C     C_R   0.306168 0.572771 0.058359 -0.199856
C14   C     C_R   0.310590 0.433296 0.879929 0.084881
C15   C     C_R   0.568553 0.443539 0.026840 0.083399
C16   C     C_R   0.641746 0.333016 0.962622 0.162042
C17   C     C_R   0.544136 0.267040 0.860826 -0.225064
C18   C     C_R   0.380375 0.316707 0.819635 -0.176279
C19   C     C_R   0.671400 0.513049 0.125316 -0.265463
C20   C     C_R   0.902919 0.347199 0.108007 -0.185221
F1    F     F_    0.521896 0.652050 0.598781 -0.542271
H1    H     H_    0.026610 0.302426 0.142850 0.156541
H2    H     H_    0.308134 0.261794 0.740587 0.162490
H3    H     H_    0.195560 0.009862 0.488003 0.186548
H4    H     H_    0.805023 0.990276 0.513228 0.198407
H5    H     H_    0.469687 0.374068 0.416942 0.128979
H6    H     H_    0.595513 0.179184 0.812066 0.156980
H7    H     H_    0.867157 0.202949 0.954947 0.140115
H8    H     H_    0.627413 0.606767 0.172414 0.148513
H9    H     H_    0.954091 0.646451 0.864350 0.173864
H10   H     H_    0.355600 0.600700 0.147072 0.138921
H11   H     H_    0.077152 0.693160 0.066240 0.146246
N1    N     N_2   0.434800 0.456690 0.470850 -0.093299
N2    N     N_2   0.565200 0.543310 0.529150 0.205112
O1    O     O_R   0.893060 0.738880 0.507150 -0.594387
O2    O     O_R   0.172250 0.711130 0.488470 -0.566399
O3    O     O_R   0.944700 0.520730 0.667600 -0.602440
O4    O     O_R   0.223890 0.492980 0.648920 -0.553245
O5    O     O_R   0.827750 0.288870 0.511530 -0.640110
O6    O     O_R   0.106940 0.261120 0.492850 -0.630067
O7    O     O_R   0.776110 0.507020 0.351080 -0.638183
O8    O     O_R   0.055300 0.479270 0.332400 -0.631489
Zn1   Zn    Zn3+2 0.813580 0.518530 0.512470 1.018338
Zn2   Zn    Zn3+2 0.186420 0.481470 0.487530 1.008336

loop_
_geom_bond_atom_site_label_1
_geom_bond_atom_site_label_2
_ccdc_geom_bond_type
O3    Zn1   S    
C2    C4    S    
O4    Zn2   S    
O1    Zn1   S    
C10   H9    S    
C9    C20   A    
C12   C15   A    
O6    Zn2   S    
N1    N2    D    
C8    C16   A    
C12   C13   A    
C15   C19   A    
C13   H10   S    
O7    Zn1   S    
C3    H3    S    
C8    C20   A    
O8    Zn2   S    
C5    H4    S    
C12   C14   A    
C11   H11   S    
C17   C18   A    
C7    O7    A    
C5    C6    S    
C2    C14   A    
C6    O6    A    
O2    Zn2   S    
C10   C11   A    
C15   C16   A    
C17   H6    S    
C11   C13   A    
C4    O3    A    
C1    O1    A    
C8    H7    S    
C7    O8    A    
C7    C9    S    
C14   C18   A    
C6    O5    A    
O5    Zn1   S    
F1    N2    S    
H5    N1    S    
C3    C5    D    
C4    O4    A    
N1    Zn2   S    
C9    C19   A    
C2    C10   A    
N2    Zn1   S    
C18   H2    S    
C1    O2    A    
C20   H1    S    
C16   C17   A    
C1    C3    S    
C19   H8    S    
