data_mof_unit_58547.cif
_audit_creation_date              2012-12-10T19:46:25-0500
_audit_creation_method            fapswitch 2.2
_symmetry_space_group_name_H-M    P1
_symmetry_Int_Tables_number       1
_space_group_crystal_system       triclinic
_cell_length_a                    10.853546
_cell_length_b                    10.855688
_cell_length_c                    10.425417
_cell_angle_alpha                 90.564746
_cell_angle_beta                  90.327863
_cell_angle_gamma                 89.929883
_cell_volume                      1228.27025804

loop_
_atom_site_label
_atom_site_type_symbol
_atom_type_description
_atom_site_fract_x
_atom_site_fract_y
_atom_site_fract_z
_atom_type_partial_charge
C1    C     C_R   0.496621 0.261519 0.499063 0.833394
C2    C     C_R   0.503361 0.738481 0.500935 0.833510
C3    C     C_R   0.872022 0.494045 0.501697 -0.056163
C4    C     C_R   0.127975 0.506014 0.498316 -0.056155
C5    C     C_R   0.940057 0.455767 0.610246 0.008736
C6    C     C_R   0.059940 0.544288 0.389768 0.008696
C7    C     C_R   0.267563 0.215672 0.132787 -0.150612
C8    C     C_R   0.732739 0.784087 0.866773 -0.150369
C9    C     C_R   0.305271 0.167278 0.250695 0.404426
C10   C     C_R   0.694881 0.832612 0.748972 0.404379
C11   C     C_R   0.424044 0.115563 0.263337 0.043566
C12   C     C_R   0.576127 0.884419 0.736570 0.043474
C13   C     C_R   0.502623 0.112571 0.156679 -0.210119
C14   C     C_R   0.497736 0.887408 0.843371 -0.210221
C15   C     C_R   0.464136 0.161511 0.039603 -0.145708
C16   C     C_R   0.536378 0.838354 0.960346 -0.145709
C17   C     C_R   0.346796 0.213033 0.027681 -0.183053
C18   C     C_R   0.653686 0.786716 0.972021 -0.182961
C19   C     C_R   0.472994 0.932210 0.389177 -0.230536
C20   C     C_R   0.526930 0.067785 0.610822 -0.230684
C21   C     C_R   0.505229 0.872032 0.502564 -0.045147
C22   C     C_R   0.494726 0.127967 0.497427 -0.045196
C23   C     C_R   0.261541 0.503968 0.499407 0.830381
C24   C     C_R   0.738459 0.496049 0.500594 0.830385
C25   C     C_R   0.534263 0.940556 0.614695 0.059523
C26   C     C_R   0.465723 0.059441 0.385285 0.059568
C27   C     C_1   0.500020 0.500008 0.071939 0.091460
C28   C     C_1   0.499985 0.499991 0.928061 0.091233
C29   C     C_R   0.227662 0.759918 0.166886 -0.123410
C30   C     C_R   0.772418 0.239667 0.832713 -0.123445
C31   C     C_R   0.176495 0.710750 0.278090 -0.089768
C32   C     C_R   0.823394 0.289169 0.721577 -0.089350
C33   C     C_R   0.117222 0.595791 0.273349 0.119494
C34   C     C_R   0.882802 0.404048 0.726586 0.119563
C35   C     C_R   0.109463 0.531239 0.156197 -0.140320
C36   C     C_R   0.890874 0.468194 0.843949 -0.140800
C37   C     C_R   0.162554 0.579749 0.045782 -0.147928
C38   C     C_R   0.837971 0.419355 0.954304 -0.147752
C39   C     C_R   0.221388 0.694137 0.051055 -0.115238
C40   C     C_R   0.779017 0.305038 0.948757 -0.115241
C41   C     C_R   0.932533 0.536673 0.392633 -0.183304
C42   C     C_R   0.067464 0.463408 0.607386 -0.183428
Cu1   Cu    Cu3+1 0.500000 0.500000 0.625300 0.995208
Cu2   Cu    Cu3+1 0.500000 0.500000 0.374700 0.995317
H1    H     H_    0.261602 0.732001 0.965269 0.135027
H2    H     H_    0.738973 0.266901 0.034498 0.134988
H3    H     H_    0.593627 0.072112 0.164284 0.154403
H4    H     H_    0.406751 0.927934 0.835954 0.154439
H5    H     H_    0.524993 0.158861 0.957814 0.141520
H6    H     H_    0.475662 0.840989 0.042245 0.141547
H7    H     H_    0.450543 0.879868 0.303181 0.145928
H8    H     H_    0.549355 0.120123 0.696823 0.145926
H9    H     H_    0.271537 0.849315 0.170220 0.128426
H10   H     H_    0.728471 0.150310 0.829174 0.128434
H11   H     H_    0.182146 0.762377 0.367377 0.133197
H12   H     H_    0.817522 0.237835 0.632132 0.132924
H13   H     H_    0.062676 0.443346 0.150778 0.130107
H14   H     H_    0.937787 0.556009 0.849589 0.130060
H15   H     H_    0.157609 0.528943 0.956033 0.128982
H16   H     H_    0.843175 0.469830 0.044227 0.129038
H17   H     H_    0.880257 0.567860 0.310053 0.151547
H18   H     H_    0.119746 0.432193 0.689951 0.151531
H19   H     H_    0.317056 0.250563 0.936790 0.152578
H20   H     H_    0.683543 0.749079 0.062828 0.152549
H21   H     H_    0.176257 0.254315 0.122119 0.152929
H22   H     H_    0.824027 0.745348 0.877240 0.152981
N1    N     N_1   0.500010 0.499990 0.186410 -0.143373
N2    N     N_1   0.499990 0.500010 0.813590 -0.143431
O1    O     O_R   0.499990 0.319650 0.605810 -0.589399
O2    O     O_R   0.500010 0.680350 0.394190 -0.589363
O3    O     O_R   0.499990 0.319640 0.394190 -0.573208
O4    O     O_R   0.500010 0.680360 0.605810 -0.573243
O5    O     O_R   0.319640 0.500010 0.605810 -0.592360
O6    O     O_R   0.680360 0.499990 0.394190 -0.592304
O7    O     O_R   0.319650 0.500010 0.394190 -0.559043
O8    O     O_R   0.680350 0.499990 0.605810 -0.559115
Cl1   Cl    Cl    0.201048 0.170441 0.379488 -0.661954
Cl2   Cl    Cl    0.798903 0.829480 0.620002 -0.661963

loop_
_geom_bond_atom_site_label_1
_geom_bond_atom_site_label_2
_ccdc_geom_bond_type
Cu1   O5    S    
C30   C32   A    
C5    C42   A    
C8    H22   S    
Cu1   O4    S    
C41   H17   S    
C18   H20   S    
C10   Cl2   S    
C28   N2    T    
C40   H2    S    
C30   H10   S    
C1    O3    A    
C4    C42   A    
C19   C21   A    
C16   H6    S    
C36   H14   S    
C20   C25   A    
Cu2   O3    S    
C15   C17   A    
C19   C26   A    
Cu1   N2    S    
C7    C17   A    
C6    C41   A    
C31   C33   A    
Cu2   O2    S    
C42   H18   S    
C39   H1    S    
C1    C22   S    
Cu1   O1    S    
C3    C24   S    
C23   O5    A    
C2    O4    A    
C4    C6    A    
C23   O7    A    
C13   H3    S    
C4    C23   S    
C24   O8    A    
C14   H4    S    
C11   C26   S    
C8    C18   A    
C32   C34   A    
Cu2   O7    S    
Cu1   Cu2   S    
C7    H21   S    
C29   C31   A    
C5    C34   S    
C29   C39   A    
C2    C21   S    
C30   C40   A    
C9    Cl1   S    
Cu2   O6    S    
C9    C11   A    
C37   H15   S    
C10   C12   A    
C38   H16   S    
C8    C10   A    
C20   C22   A    
C13   C15   A    
C14   C16   A    
Cu1   O8    S    
C7    C9    A    
C21   C25   A    
C3    C41   A    
C35   C37   A    
C12   C14   A    
C3    C5    A    
C20   H8    S    
C6    C33   S    
C12   C25   S    
C35   H13   S    
C36   C38   A    
C37   C39   A    
C17   H19   S    
C38   C40   A    
C11   C13   A    
C24   O6    A    
C29   H9    S    
C33   C35   A    
C34   C36   A    
C15   H5    S    
C1    O1    A    
C27   N1    T    
C19   H7    S    
C16   C18   A    
C22   C26   A    
C27   C28   S    
Cu2   N1    S    
C31   H11   S    
C2    O2    A    
C32   H12   S    
