data_mof_unit_58683.cif
_audit_creation_date              2013-03-05T16:30:35-0500
_audit_creation_method            fapswitch 2.2
_symmetry_space_group_name_H-M    P1
_symmetry_Int_Tables_number       1
_space_group_crystal_system       triclinic
_cell_length_a                    8.779285
_cell_length_b                    10.88836
_cell_length_c                    9.539641
_cell_angle_alpha                 89.611865
_cell_angle_beta                  97.775476
_cell_angle_gamma                 90.418994
_cell_volume                      903.48967268

loop_
_atom_site_label
_atom_site_type_symbol
_atom_site_description
_atom_site_fract_x
_atom_site_fract_y
_atom_site_fract_z
_atom_type_partial_charge
O1    O     O_R   0.500000 0.319640 0.618810 -0.593097
O2    O     O_R   0.500020 0.319680 0.381230 -0.599127
C1    C     C_R   0.499913 0.262877 0.500231 0.811668
O3    O     O_R   0.274830 0.499980 0.591380 -0.520663
O4    O     O_R   0.274850 0.500020 0.353800 -0.586163
C2    C     C_R   0.204122 0.501588 0.464546 0.902527
Cu1   Cu    Cu3+1 0.499990 0.499980 0.640670 1.000672
Cu2   Cu    Cu3+1 0.500010 0.500020 0.359330 0.962145
O5    O     O_R   0.499980 0.680320 0.618770 -0.583359
O6    O     O_R   0.500000 0.680360 0.381190 -0.548805
O7    O     O_R   0.725150 0.499980 0.646200 -0.560416
O8    O     O_R   0.725170 0.500020 0.408620 -0.606691
C3    C     C_R   0.500800 0.737485 0.499105 0.825209
C4    C     C_R   0.795676 0.501841 0.536383 0.778376
C5    C     C_2   0.038776 0.500430 0.447761 -0.488760
H1    H     H_    0.980227 0.484166 0.342030 0.152243
C6    C     C_2   0.960317 0.511394 0.558882 0.181138
C7    C     C_R   0.493305 0.060914 0.619258 0.134577
C8    C     C_R   0.501837 0.130698 0.498711 -0.119786
C9    C     C_R   0.512514 0.067675 0.371998 -0.274918
H2    H     H_    0.520010 0.117686 0.274519 0.168687
C10   C     C_R   0.513117 0.938606 0.368900 0.143199
C11   C     C_R   0.503001 0.870525 0.495552 -0.103922
C12   C     C_R   0.494066 0.937226 0.617776 0.085347
C13   C     C_3   0.475668 0.926327 0.770505 -0.438937
C14   C     C_3   0.474806 0.067725 0.771852 -0.478249
H3    H     H_    0.363640 0.884136 0.786701 0.224159
H4    H     H_    0.578283 0.886118 0.834841 0.191939
H5    H     H_    0.362123 0.106906 0.788498 0.197219
H6    H     H_    0.576986 0.108944 0.836603 0.203306
C15   C     C_R   0.570473 0.592881 0.081645 0.294854
N1    N     N_R   0.500980 0.500930 0.148050 -0.195765
C16   C     C_R   0.417952 0.415252 0.064870 -0.059216
H7    H     H_    0.353847 0.345252 0.113234 0.141137
C17   C     C_R   0.418057 0.415188 0.915963 0.004846
H8    H     H_    0.354046 0.345196 0.852666 0.147934
N2    N     N_R   0.500990 0.500890 0.852140 -0.191830
C18   C     C_R   0.570212 0.592976 0.934111 0.237275
C19   C     C_3   0.736102 0.627272 0.948075 -0.461092
C20   C     C_3   0.736806 0.626505 0.106943 -0.503758
H9    H     H_    0.808175 0.553660 0.912102 0.268681
H10   H     H_    0.755158 0.719970 0.904141 0.198081
H11   H     H_    0.808558 0.551906 0.159746 0.218684
H12   H     H_    0.757366 0.718590 0.155397 0.206325
N3    N     N_R   0.033287 0.536348 0.700080 0.144181
O9    O     O_R   0.034528 0.452641 0.798155 -0.398725
O10   O     O_R   0.083441 0.646477 0.733535 -0.374104
N4    N     N_3   0.523326 0.879034 0.237021 -0.564976
H13   H     H_    0.428954 0.905863 0.164722 0.222926
H14   H     H_    0.622721 0.910833 0.198873 0.205023

loop_
_geom_bond_atom_site_label_1
_geom_bond_atom_site_label_2
_geom_bond_distance
_ccdc_geom_bond_type
O4    Cu2   1.970300 S    
C10   N4    1.433159 S    
C11   C12   1.389298 A    
C1    C8    1.439632 S    
N2    C18   1.363549 A    
C13   H3    1.111658 S    
C15   N1    1.364909 A    
C7    C14   1.488802 S    
C15   C18   1.407102 A    
Cu2   O8    1.969037 S    
N1    C16   1.369247 A    
C9    H2    1.083866 S    
N4    H14   1.045739 S    
C16   H7    1.081551 S    
Cu1   N2    2.016270 S    
Cu1   Cu2   2.683904 S    
C19   H9    1.109257 S    
N3    O9    1.300780 A    
C12   C13   1.491316 S    
C13   H4    1.110173 S    
Cu1   O7    1.970301 S    
C4    C6    1.435379 S    
O4    C2    1.296116 A    
O3    Cu1   1.969038 S    
C7    C12   1.347005 A    
O3    C2    1.283070 A    
N4    H13   1.045779 S    
C16   C17   1.420658 A    
O8    C4    1.290373 A    
C14   H6    1.111590 S    
C19   H10   1.110479 S    
O2    C1    1.289204 A    
N3    O10   1.301183 A    
C18   C19   1.489469 S    
O7    C4    1.286982 A    
C2    C5    1.438697 S    
C9    C10   1.405930 A    
C5    H1    1.083391 S    
Cu2   N1    2.016661 S    
Cu1   O5    1.973282 S    
C20   H12   1.110229 S    
C15   C20   1.490879 S    
C3    C11   1.448810 S    
C14   H5    1.111524 S    
Cu2   O6    1.976054 S    
C7    C8    1.384203 A    
C19   C20   1.514692 S    
C5    C6    1.346446 D    
O5    C3    1.297367 A    
C10   C11   1.425872 A    
C17   N2    1.368903 A    
C13   C14   1.539808 S    
O1    Cu1   1.976054 S    
O6    C3    1.288229 A    
C20   H11   1.107424 S    
O2    Cu2   1.973281 S    
C8    C9    1.408444 A    
C6    N3    1.437876 S    
O1    C1    1.292609 A    
C17   H8    1.081376 S    
