data_mof_unit_66988.cif
_audit_creation_date              2012-12-11T17:41:01-0500
_audit_creation_method            fapswitch 2.2
_symmetry_space_group_name_H-M    P1
_symmetry_Int_Tables_number       1
_space_group_crystal_system       triclinic
_cell_length_a                    8.24143
_cell_length_b                    12.658936
_cell_length_c                    14.174872
_cell_angle_alpha                 92.485648
_cell_angle_beta                  90.609659
_cell_angle_gamma                 98.572523
_cell_volume                      1460.71587311

loop_
_atom_site_label
_atom_site_type_symbol
_atom_type_description
_atom_site_fract_x
_atom_site_fract_y
_atom_site_fract_z
_atom_type_partial_charge
Ba1   Ba    Ba6+2 0.855630 0.555280 0.454520 1.637577
Ba2   Ba    Ba6+2 0.334200 0.444810 0.545490 1.635101
C1    C     C_3   0.606568 0.948380 0.174273 -0.399277
C2    C     C_3   0.648269 0.857128 0.231894 0.333774
C3    C     C_3   0.473565 0.311093 0.258024 0.308506
C4    C     C_3   0.460199 0.290706 0.151499 -0.394809
C5    C     C_3   0.066921 0.217351 0.806097 0.402076
C6    C     C_3   0.068632 0.188657 0.909786 -0.322779
C7    C     C_3   0.484005 0.134343 0.813075 0.248860
C8    C     C_3   0.376940 0.041959 0.860263 -0.391754
C9    C     C_R   0.986329 0.446316 0.062294 -0.033840
C10   C     C_R   0.183449 0.499745 0.196361 0.041035
C11   C     C_R   0.338117 0.551088 0.226431 -0.294075
C12   C     C_3   0.143529 0.805955 0.193971 0.359724
C13   C     C_R   0.450615 0.598401 0.162519 0.015155
C14   C     C_R   0.405915 0.602087 0.067573 -0.143563
C15   C     C_R   0.249400 0.554042 0.034960 -0.001929
C16   C     C_R   0.138062 0.499225 0.098653 -0.027697
C17   C     C_R   0.054346 0.504185 0.902481 -0.038776
C18   C     C_R   0.943040 0.449944 0.966328 -0.009898
C19   C     C_R   0.009576 0.500852 0.804492 0.029464
C20   C     C_R   0.858895 0.444183 0.773808 -0.293962
C21   C     C_R   0.747184 0.396651 0.837649 0.014528
C22   C     C_R   0.787972 0.399813 0.933586 -0.108804
C23   C     C_3   0.129695 0.845290 0.094713 -0.360727
C24   C     C_R   0.205500 0.558274 0.938932 -0.040377
C25   C     C_R   0.763884 0.177188 0.536653 -0.281189
C26   C     C_R   0.434664 0.812793 0.457553 -0.278686
C27   C     C_R   0.409344 0.994914 0.426282 -0.105071
C28   C     C_R   0.346084 0.887026 0.419945 -0.016633
C29   C     C_R   0.579001 0.846134 0.510470 0.067661
C30   C     C_R   0.643266 0.956957 0.520387 -0.067499
C31   C     C_R   0.557528 0.031656 0.476039 -0.058908
C32   C     C_R   0.619808 0.141687 0.484714 0.044553
C33   C     C_R   0.853724 0.105039 0.576302 0.038420
C34   C     C_3   0.221301 0.758839 0.648192 0.293838
C35   C     C_R   0.791015 0.995790 0.571461 -0.031602
C36   C     C_3   0.253267 0.879310 0.664458 -0.390070
C37   C     C_3   0.968454 0.236068 0.343873 0.279256
C38   C     C_3   0.956273 0.116620 0.322179 -0.348993
C39   C     C_3   0.715104 0.672289 0.738107 0.313905
C40   C     C_3   0.730126 0.694912 0.844425 -0.368378
H1    H     H_    0.737995 0.889692 0.288760 0.075365
H2    H     H_    0.376250 0.903558 0.697557 0.105774
H3    H     H_    0.250551 0.918422 0.596504 0.105208
H4    H     H_    0.156241 0.906093 0.709307 0.147784
H5    H     H_    0.847232 0.255448 0.364004 0.004008
H6    H     H_    0.057462 0.257993 0.403241 0.076699
H7    H     H_    0.869434 0.092548 0.262312 0.118929
H8    H     H_    0.911897 0.071556 0.384297 0.073999
H9    H     H_    0.078769 0.096569 0.303129 0.142869
H10   H     H_    0.832685 0.651686 0.711711 -0.000215
H11   H     H_    0.615534 0.604037 0.723581 0.075667
H12   H     H_    0.557792 0.008431 0.221119 0.099239
H13   H     H_    0.835609 0.758655 0.861326 0.129864
H14   H     H_    0.749464 0.621855 0.880607 0.064702
H15   H     H_    0.615928 0.721452 0.871201 0.121683
H16   H     H_    0.533538 0.820489 0.265427 -0.051029
H17   H     H_    0.512285 0.917054 0.119513 0.115636
H18   H     H_    0.353581 0.328455 0.284185 0.018481
H19   H     H_    0.569584 0.381371 0.273427 0.058164
H20   H     H_    0.362153 0.222396 0.133442 0.126428
H21   H     H_    0.430360 0.362658 0.117105 0.066436
H22   H     H_    0.578886 0.271888 0.124279 0.116067
H23   H     H_    0.717625 0.987377 0.138675 0.147326
H24   H     H_    0.166874 0.785925 0.042422 0.068187
H25   H     H_    0.168446 0.283365 0.795145 0.089465
H26   H     H_    0.950013 0.246781 0.790584 -0.007608
H27   H     H_    0.194650 0.194186 0.938580 0.120014
H28   H     H_    0.007471 0.245096 0.953390 0.104619
H29   H     H_    0.004994 0.106043 0.918275 0.185103
H30   H     H_    0.465382 0.124687 0.735044 0.050930
H31   H     H_    0.373011 0.058152 0.937824 0.107661
H32   H     H_    0.426107 0.965416 0.848732 0.097138
H33   H     H_    0.060185 0.728893 0.198232 0.092094
H34   H     H_    0.250163 0.029384 0.832681 0.164517
H35   H     H_    0.374308 0.550087 0.299955 0.071426
H36   H     H_    0.493854 0.641254 0.019258 0.073766
H37   H     H_    0.698199 0.364292 0.982599 0.073856
H38   H     H_    0.823920 0.442203 0.699865 0.071057
H39   H     H_    0.900286 0.400754 0.107507 0.103200
H40   H     H_    0.291502 0.603392 0.893361 0.105707
H41   H     H_    0.337568 0.048955 0.394473 0.099176
H42   H     H_    0.860822 0.943041 0.606567 0.109343
H43   H     H_    0.811491 0.261707 0.541657 0.059839
H44   H     H_    0.271996 0.792713 0.206153 -0.069698
H45   H     H_    0.384537 0.728734 0.451298 0.068134
H46   H     H_    0.001173 0.856239 0.078946 0.157115
H47   H     H_    0.210888 0.922849 0.088252 0.107653
H48   H     H_    0.333116 0.730418 0.621288 0.006090
H49   H     H_    0.121213 0.739827 0.594752 0.090382
O1    O     O_2   0.887370 0.460630 0.272300 -0.466114
O2    O     O_3   0.679300 0.764233 0.696010 -0.625331
O3    O     O_3   0.098713 0.882463 0.259624 -0.599510
O4    O     O_2   0.302330 0.539400 0.727760 -0.458042
O5    O     O_3   0.060300 0.548700 0.611500 -0.500468
O6    O     O_3   0.519500 0.346920 0.670840 -0.469515
O7    O     O_3   0.177965 0.711574 0.733567 -0.635997
O8    O     O_3   0.614310 0.373510 0.452640 -0.478063
O9    O     O_3   0.100780 0.295230 0.623970 -0.498791
O10   O     O_2   0.197375 0.111398 0.576463 -0.489851
O11   O     O_3   0.082685 0.126740 0.747379 -0.590219
O12   O     O_3   0.129410 0.451380 0.388510 -0.495352
O13   O     O_3   0.575400 0.626570 0.547370 -0.492123
O14   O     O_2   0.344320 0.238700 0.455090 -0.469714
O15   O     O_3   0.515404 0.219794 0.299112 -0.649964
O16   O     O_2   0.439271 0.431742 0.832919 -0.485741
O17   O     O_3   0.438013 0.231614 0.847716 -0.638141
O18   O     O_3   0.670210 0.653170 0.329170 -0.477577
O19   O     O_2   0.787188 0.590889 0.164501 -0.492685
O20   O     O_3   0.018095 0.289073 0.262315 -0.637054
O21   O     O_3   0.719187 0.785411 0.172268 -0.591657
O22   O     O_2   0.845380 0.761330 0.544970 -0.479727
O23   O     O_3   0.088930 0.704860 0.376040 -0.488224
O24   O     O_2   0.010500 0.890340 0.436011 -0.493075
P1    P     P_3+3 0.054400 0.427280 0.286870 0.970441
P2    P     P_3+3 0.668300 0.742890 0.573060 0.978222
P3    P     P_3+3 0.136845 0.842885 0.373607 0.939983
P4    P     P_3+3 0.135310 0.572810 0.713130 0.965282
P5    P     P_3+3 0.057941 0.157023 0.629260 0.974431
P6    P     P_3+3 0.656907 0.654583 0.206225 0.959388
P7    P     P_3+3 0.526158 0.241882 0.421910 0.936492
P8    P     P_3+3 0.539318 0.346084 0.794730 0.921698
C41   C     C_2   0.656341 0.124244 0.840978 0.784639
O25   O     O_2   0.742159 0.085008 0.783904 -0.632928
O26   O     O_R   0.712380 0.145908 0.934204 -0.764087
H50   H     H_    0.627628 0.171435 0.977248 0.276986

loop_
_geom_bond_atom_site_label_1
_geom_bond_atom_site_label_2
_ccdc_geom_bond_type
C9    C16   A    
O26   H50   S    
C8    H32   S    
C39   C40   S    
O5    P4    S    
C17   C18   A    
C7    H30   S    
O16   P8    D    
Ba1   O8    S    
O7    P4    S    
C9    H39   S    
C7    O17   S    
C6    H27   S    
Ba1   O22   S    
C15   C24   A    
C41   O26   S    
Ba2   O4    S    
C17   C19   A    
C27   H41   S    
O19   P6    D    
C3    C4    S    
C8    H31   S    
C13   C14   A    
C27   C31   A    
C7    C41   S    
Ba1   Ba2   S    
C4    H22   S    
C25   H43   S    
C17   C24   A    
C29   P2    S    
C36   H3    S    
Ba1   O18   S    
C5    H26   S    
C8    H34   S    
C39   O2    S    
C18   C22   A    
Ba2   O6    S    
C14   C15   A    
C5    O11   S    
C21   C22   A    
C35   H42   S    
O20   P1    S    
O9    P5    S    
Ba1   P1    S    
C7    C8    S    
Ba1   O12   S    
C39   H10   S    
C40   H14   S    
C37   O20   S    
C2    O21   S    
Ba2   O9    S    
C24   H40   S    
C19   C20   A    
C33   P5    S    
C1    H23   S    
O2    P2    S    
C40   H15   S    
C31   C32   A    
C3    O15   S    
C25   C32   A    
C11   H35   S    
C9    C18   A    
C5    C6    S    
C12   H44   S    
C37   C38   S    
C21   P8    S    
C28   P3    S    
C25   C33   A    
Ba2   O5    S    
C23   H46   S    
C4    H21   S    
C36   H2    S    
C27   C28   A    
C40   H13   S    
C22   H37   S    
C29   C30   A    
Ba2   O13   S    
O24   P3    D    
O15   P7    S    
C26   H45   S    
C15   C16   A    
C3    H19   S    
Ba1   P2    S    
C30   C35   A    
O1    P1    D    
Ba1   O13   S    
C39   H11   S    
O23   P3    S    
O8    P7    S    
O22   P2    D    
O6    P8    S    
C34   H49   S    
Ba2   O8    S    
Ba1   O1    S    
C11   C13   A    
Ba1   O23   S    
O17   P8    S    
C2    H16   S    
C1    C2    S    
O11   P5    S    
C37   H5    S    
O13   P2    S    
C34   H48   S    
C6    H29   S    
C13   P6    S    
C3    H18   S    
C33   C35   A    
O10   P5    D    
C23   H47   S    
C26   C29   A    
C23   H24   S    
Ba2   P4    S    
C2    H1    S    
C38   H9    S    
Ba2   O14   S    
C6    H28   S    
O4    P4    D    
C12   H33   S    
C4    H20   S    
C34   C36   S    
O12   P1    S    
C20   H38   S    
O21   P6    S    
C19   P4    S    
C30   C31   A    
O3    P3    S    
O18   P6    S    
Ba2   O12   S    
Ba1   O5    S    
C38   H8    S    
C26   C28   A    
C1    H12   S    
O14   P7    D    
C14   H36   S    
C12   C23   S    
C36   H4    S    
C5    H25   S    
C10   C11   A    
C32   P7    S    
C10   C16   A    
C20   C21   A    
C41   O25   D    
C34   O7    S    
C12   O3    S    
C38   H7    S    
C37   H6    S    
C10   P1    S    
C1    H17   S    
