data_mof_unit_20864.cif
_audit_creation_date              2012-10-26T19:04:58-0400
_audit_creation_method            fapswitch 2.2
_symmetry_space_group_name_H-M    P1
_symmetry_Int_Tables_number       1
_space_group_crystal_system       triclinic
_cell_length_a                    15.864566
_cell_length_b                    10.84011
_cell_length_c                    9.607651
_cell_angle_alpha                 90.247055
_cell_angle_beta                  90.091399
_cell_angle_gamma                 94.002752
_cell_volume                      1648.21405254

loop_
_atom_site_label
_atom_site_type_symbol
_atom_type_description
_atom_site_fract_x
_atom_site_fract_y
_atom_site_fract_z
_atom_type_partial_charge
C1    C     C_R   0.505555 0.262874 0.500752 0.533114
C2    C     C_R   0.526954 0.057950 0.886264 -0.141460
C3    C     C_R   0.483821 0.942090 0.888164 -0.122779
C4    C     C_R   0.340355 0.499223 0.499934 0.540251
C5    C     C_R   0.462809 0.881803 0.763196 -0.064982
C6    C     C_R   0.485608 0.936814 0.633644 0.030322
C7    C     C_R   0.512686 0.063309 0.632788 0.018731
C8    C     C_R   0.510489 0.128442 0.504664 -0.017243
C9    C     C_R   0.501386 0.062653 0.379352 -0.175128
C10   C     C_R   0.491963 0.935076 0.379572 -0.178654
C11   C     C_R   0.484946 0.870479 0.505382 -0.019151
C12   C     C_3   0.949048 0.465788 0.646672 -0.173042
C13   C     C_R   0.623958 0.642413 0.151150 -0.096138
C14   C     C_R   0.700402 0.677971 0.092674 -0.212763
C15   C     C_R   0.709578 0.668434 0.951728 -0.156174
C16   C     C_R   0.492085 0.736439 0.501071 0.541452
C17   C     C_R   0.637722 0.639984 0.865808 0.319321
C18   C     C_R   0.565207 0.569223 0.927063 0.134788
C19   C     C_R   0.562159 0.569953 0.076846 0.066884
C20   C     C_R   0.440220 0.431930 0.073775 0.367900
C21   C     C_R   0.439672 0.434959 0.924911 -0.020987
C22   C     C_R   0.659493 0.497916 0.499930 0.545836
C23   C     C_3   0.916572 0.493705 0.498408 0.032455
C24   C     C_3   0.047042 0.480934 0.652060 0.157262
C25   C     C_3   0.042824 0.398065 0.391968 0.213980
C26   C     C_3   0.944151 0.392662 0.395674 0.203114
C27   C     C_1   0.748998 0.496310 0.499695 -0.040195
C28   C     C_3   0.082903 0.495692 0.500313 0.060676
C29   C     C_3   0.363358 0.244874 0.103802 -0.018964
C30   C     C_3   0.309849 0.173332 0.211749 -0.360952
C31   C     C_3   0.081205 0.401948 0.869217 -0.032195
C32   C     C_3   0.110240 0.288024 0.942102 -0.375930
C33   C     C_3   0.707039 0.766491 0.691878 -0.008787
C34   C     C_3   0.956714 0.622236 0.451977 -0.305480
C35   C     C_3   0.695282 0.823256 0.549394 -0.367798
C36   C     C_3   0.085303 0.213757 0.500499 0.056213
C37   C     C_3   0.095075 0.078999 0.463106 -0.403950
C38   C     C_3   0.876849 0.204847 0.322410 -0.004628
C39   C     C_3   0.837346 0.081375 0.373221 -0.382242
C40   C     C_3   0.054767 0.623299 0.450559 -0.326827
C41   C     C_1   0.824468 0.495288 0.499274 -0.048606
C42   C     C_1   0.175153 0.497784 0.499735 -0.013478
C43   C     C_1   0.250727 0.498695 0.499681 -0.020195
C44   C     C_R   0.541218 0.118659 0.760057 -0.099749
Cu1   Cu    Cu3+1 0.499990 0.499990 0.640660 0.963482
Cu2   Cu    Cu3+1 0.500010 0.500010 0.359340 0.975738
H1    H     H_    0.926241 0.370693 0.678441 0.177646
H2    H     H_    0.617610 0.670254 0.256192 0.185869
H3    H     H_    0.751323 0.719882 0.156046 0.112505
H4    H     H_    0.770549 0.702117 0.912201 0.084008
H5    H     H_    0.058569 0.440573 0.288981 0.089032
H6    H     H_    0.081970 0.699429 0.518656 0.118040
H7    H     H_    0.065202 0.569965 0.707439 0.095531
H8    H     H_    0.424659 0.201449 0.093948 0.115081
H9    H     H_    0.328781 0.237167 0.003165 0.107345
H10   H     H_    0.246698 0.211170 0.219155 0.174200
H11   H     H_    0.301624 0.074271 0.181337 0.086606
H12   H     H_    0.923010 0.530362 0.723349 0.057454
H13   H     H_    0.341004 0.180916 0.315283 0.170920
H14   H     H_    0.016899 0.419139 0.907797 0.114085
H15   H     H_    0.126014 0.481974 0.896815 0.134667
H16   H     H_    0.174824 0.269424 0.906975 0.153580
H17   H     H_    0.111249 0.303300 0.056510 0.129361
H18   H     H_    0.066315 0.206490 0.917670 0.143144
H19   H     H_    0.760103 0.705070 0.682551 0.113542
H20   H     H_    0.723602 0.844519 0.764904 0.122960
H21   H     H_    0.654021 0.901214 0.557229 0.152879
H22   H     H_    0.757554 0.859853 0.509074 0.076202
H23   H     H_    0.933661 0.644941 0.346289 0.112472
H24   H     H_    0.668243 0.753174 0.474890 0.155809
H25   H     H_    0.389601 0.385142 0.867172 0.120145
H26   H     H_    0.028782 0.216841 0.567761 0.221430
H27   H     H_    0.143382 0.247483 0.557392 0.184683
H28   H     H_    0.153391 0.070837 0.400894 0.145611
H29   H     H_    0.099507 0.023639 0.559510 0.088705
H30   H     H_    0.039850 0.041477 0.401327 0.155337
H31   H     H_    0.928662 0.187482 0.248360 0.151805
H32   H     H_    0.826786 0.253340 0.267859 0.122376
H33   H     H_    0.783784 0.096798 0.444090 0.157621
H34   H     H_    0.502361 0.109723 0.280221 0.132337
H35   H     H_    0.813386 0.024567 0.283207 0.088582
H36   H     H_    0.884903 0.030427 0.430087 0.143879
H37   H     H_    0.921324 0.419073 0.290141 0.049575
H38   H     H_    0.078597 0.644714 0.343819 0.112546
H39   H     H_    0.937047 0.695394 0.524299 0.124344
H40   H     H_    0.577285 0.206845 0.763976 0.144659
H41   H     H_    0.547790 0.102096 0.982817 0.097796
H42   H     H_    0.468512 0.897460 0.986417 0.103643
H43   H     H_    0.427113 0.793535 0.770204 0.139356
H44   H     H_    0.490446 0.887035 0.280384 0.135626
N1    N     N_R   0.500800 0.501210 0.147910 -0.229238
N2    N     N_R   0.500820 0.501290 0.852040 -0.273547
O1    O     O_R   0.499990 0.319640 0.618810 -0.520873
O2    O     O_3   0.080839 0.381502 0.723748 -0.598148
O3    O     O_3   0.632299 0.697442 0.736252 -0.493046
O4    O     O_3   0.078535 0.281596 0.376832 -0.581328
O5    O     O_3   0.908630 0.274737 0.437762 -0.562045
O6    O     O_R   0.500000 0.319660 0.381240 -0.480063
O7    O     O_R   0.379430 0.499990 0.618840 -0.517607
O8    O     O_R   0.379440 0.500020 0.381260 -0.433866
O9    O     O_R   0.500000 0.680340 0.618760 -0.442406
O10   O     O_R   0.500010 0.680360 0.381190 -0.543190
O11   O     O_R   0.620560 0.499980 0.618740 -0.451360
O12   O     O_R   0.620570 0.500010 0.381160 -0.527301
O13   O     O_3   0.375125 0.369683 0.146730 -0.522016

loop_
_geom_bond_atom_site_label_1
_geom_bond_atom_site_label_2
_ccdc_geom_bond_type
C37   H28   S    
C26   H37   S    
C1    C8    S    
C40   H38   S    
Cu1   O1    S    
C33   H19   S    
C7    C8    A    
Cu1   Cu2   S    
C25   C28   S    
Cu2   O10   S    
C12   C23   S    
C21   H25   S    
C34   C40   S    
C36   C37   S    
C12   H1    S    
C38   C39   S    
C23   C26   S    
C14   H3    S    
C29   H8    S    
C28   C40   S    
C30   H11   S    
C22   O12   A    
C18   C19   A    
C15   H4    S    
Cu1   N2    S    
C36   O4    S    
Cu1   O11   S    
C35   H24   S    
C2    C44   A    
C8    C9    A    
C17   O3    S    
C9    C10   A    
C12   H12   S    
C37   H29   S    
C31   H15   S    
C13   C14   A    
C29   O13   S    
C38   O5    S    
C44   H40   S    
C33   O3    S    
C33   H20   S    
C20   N1    A    
C13   C19   A    
C32   H18   S    
Cu1   O7    S    
C6    C11   A    
Cu2   N1    S    
C29   H9    S    
C24   H7    S    
C40   H6    S    
C30   H10   S    
C22   O11   A    
C9    H34   S    
C39   H33   S    
C31   H14   S    
C25   H5    S    
C29   C30   S    
C24   O2    S    
C11   C16   S    
C27   C41   T    
C31   C32   S    
C35   H21   S    
C23   C34   S    
C30   H13   S    
C17   C18   A    
C2    H41   S    
C7    C44   A    
C34   H23   S    
C39   H35   S    
Cu1   O9    S    
C16   O10   A    
C4    C43   S    
C37   H30   S    
C22   C27   S    
C4    O8    A    
C42   C43   T    
C20   O13   S    
C15   C17   A    
Cu2   O8    S    
C39   H36   S    
C3    H42   S    
C24   C28   S    
C32   H17   S    
C3    C5    A    
C1    O6    A    
C13   H2    S    
C6    C7    A    
C38   H31   S    
C31   O2    S    
C38   H32   S    
C12   C24   S    
C23   C41   S    
C18   N2    A    
C2    C3    A    
C25   C26   S    
C32   H16   S    
C5    C6    A    
Cu2   O12   S    
C35   H22   S    
C28   C42   S    
C33   C35   S    
Cu2   O6    S    
C19   N1    A    
C10   C11   A    
C26   O5    S    
C16   O9    A    
C20   C21   A    
C10   H44   S    
C25   O4    S    
C1    O1    A    
C4    O7    A    
C14   C15   A    
C36   H27   S    
C34   H39   S    
C5    H43   S    
C36   H26   S    
C21   N2    A    
