data_mof_unit_55701.cif
_audit_creation_date              2012-12-11T14:44:30-0500
_audit_creation_method            fapswitch 2.2
_symmetry_space_group_name_H-M    P1
_symmetry_Int_Tables_number       1
_space_group_crystal_system       triclinic
_cell_length_a                    19.955582
_cell_length_b                    7.217808
_cell_length_c                    19.689564
_cell_angle_alpha                 90.000059
_cell_angle_beta                  98.467366
_cell_angle_gamma                 89.999945
_cell_volume                      2805.08468434

loop_
_atom_site_label
_atom_site_type_symbol
_atom_type_description
_atom_site_fract_x
_atom_site_fract_y
_atom_site_fract_z
_atom_type_partial_charge
O1    O     O_R   0.673210 0.377390 0.686390 -0.519782
O2    O     O_R   0.326790 0.622610 0.313610 -0.519782
O3    O     O_R   0.826790 0.877390 0.813610 -0.519782
O4    O     O_R   0.173210 0.122610 0.186390 -0.519777
O5    O     O_R   0.810750 0.706450 0.681250 -0.511684
O6    O     O_R   0.189250 0.293550 0.318750 -0.511682
O7    O     O_R   0.689250 0.206450 0.818750 -0.511683
O8    O     O_R   0.310750 0.793550 0.181250 -0.511683
C1    C     C_R   0.832937 0.538801 0.667314 0.787537
C2    C     C_R   0.167063 0.461199 0.332686 0.787536
C3    C     C_R   0.667063 0.038801 0.832686 0.787535
C4    C     C_R   0.332937 0.961199 0.167314 0.787533
O9    O     O_R   0.672750 0.707060 0.678240 -0.545978
O10   O     O_R   0.327250 0.292940 0.321760 -0.545978
O11   O     O_R   0.827250 0.207060 0.821760 -0.545978
O12   O     O_R   0.172750 0.792940 0.178240 -0.545981
O13   O     O_R   0.687800 0.877990 0.810580 -0.538941
O14   O     O_R   0.312200 0.122010 0.189420 -0.538941
O15   O     O_R   0.812200 0.377990 0.689420 -0.538941
O16   O     O_R   0.187800 0.622010 0.310580 -0.538941
C5    C     C_R   0.648326 0.539788 0.661290 0.755377
C6    C     C_R   0.351674 0.460211 0.338709 0.755377
C7    C     C_R   0.851674 0.039788 0.838709 0.755378
C8    C     C_R   0.148326 0.960211 0.161291 0.755386
O17   O     O_3   0.755100 0.544060 0.793420 -0.376861
O18   O     O_3   0.244900 0.455940 0.206580 -0.376861
O19   O     O_3   0.744900 0.044060 0.706580 -0.376863
O20   O     O_3   0.255100 0.955940 0.293420 -0.376864
V1    V     V_3+5 0.749050 0.818670 0.741950 1.597911
V2    V     V_3+5 0.250950 0.181330 0.258050 1.597916
V3    V     V_3+5 0.750950 0.318670 0.758050 1.597913
V4    V     V_3+5 0.249050 0.681330 0.241950 1.597912
C9    C     C_R   0.087192 0.958507 0.107805 -0.143773
C10   C     C_R   0.912808 0.041494 0.892196 -0.143788
C11   C     C_R   0.412807 0.458506 0.392195 -0.143792
C12   C     C_R   0.587192 0.541493 0.607804 -0.143792
C13   C     C_R   0.011912 0.210901 0.948406 0.309690
C14   C     C_R   0.988088 0.789099 0.051594 0.309688
C15   C     C_R   0.488088 0.710901 0.551594 0.309690
C16   C     C_R   0.511912 0.289099 0.448406 0.309690
C17   C     C_R   0.957695 0.192306 0.895138 -0.107048
C18   C     C_R   0.042304 0.807694 0.104862 -0.107051
C19   C     C_R   0.542304 0.692307 0.604862 -0.107050
C20   C     C_R   0.457695 0.307693 0.395138 -0.107051
C21   C     C_R   0.923825 0.905443 0.943475 -0.181646
C22   C     C_R   0.076174 0.094557 0.056526 -0.181646
C23   C     C_R   0.576174 0.405443 0.556525 -0.181644
C24   C     C_R   0.423825 0.594557 0.443474 -0.181644
C25   C     C_R   0.977751 0.922433 0.998625 0.065445
C26   C     C_R   0.022249 0.077567 0.001375 0.065440
C27   C     C_R   0.522249 0.422433 0.501375 0.065443
C28   C     C_R   0.477751 0.577567 0.498625 0.065443
H1    H     H_    0.111239 0.209433 0.058931 0.177013
H2    H     H_    0.888761 0.790567 0.941069 0.177014
H3    H     H_    0.388761 0.709433 0.441069 0.177014
H4    H     H_    0.611239 0.290567 0.558931 0.177014
H5    H     H_    0.049707 0.701715 0.144241 0.180402
H6    H     H_    0.950292 0.298285 0.855759 0.180406
H7    H     H_    0.450292 0.201715 0.355759 0.180406
H8    H     H_    0.549708 0.798285 0.644241 0.180406
C29   C     C_R   0.561206 0.160773 0.876845 0.395894
C30   C     C_R   0.438793 0.839227 0.123155 0.395894
C31   C     C_R   0.938795 0.660767 0.623157 0.395893
C32   C     C_R   0.061205 0.339232 0.376843 0.395893
C33   C     C_R   0.614638 0.029084 0.879222 -0.191023
C34   C     C_R   0.385361 0.970916 0.120778 -0.191023
C35   C     C_R   0.885361 0.529083 0.620777 -0.191020
C36   C     C_R   0.114639 0.470916 0.379222 -0.191023
C37   C     C_R   0.617385 0.880578 0.925682 -0.212265
C38   C     C_R   0.382615 0.119421 0.074317 -0.212266
C39   C     C_R   0.882613 0.380582 0.574315 -0.212272
C40   C     C_R   0.117386 0.619418 0.425684 -0.212272
C41   C     C_R   0.570598 0.865029 0.971762 0.107177
C42   C     C_R   0.429402 0.134971 0.028238 0.107177
C43   C     C_R   0.929400 0.365032 0.528236 0.107176
C44   C     C_R   0.070599 0.634967 0.471764 0.107176
C45   C     C_R   0.522513 0.006041 0.975292 0.030838
C46   C     C_R   0.477487 0.993959 0.024707 0.030838
C47   C     C_R   0.977486 0.506041 0.524707 0.030837
C48   C     C_R   0.022513 0.493959 0.475292 0.030837
C49   C     C_R   0.518952 0.158001 0.929226 -0.033675
C50   C     C_R   0.481048 0.841999 0.070774 -0.033675
C51   C     C_R   0.981050 0.657996 0.570775 -0.033675
C52   C     C_R   0.018950 0.342003 0.429224 -0.033675
C53   C     C_R   0.571516 0.710260 0.014716 -0.161678
C54   C     C_R   0.428484 0.289740 0.985284 -0.161678
C55   C     C_R   0.928480 0.210268 0.485279 -0.161678
C56   C     C_R   0.071519 0.789732 0.514720 -0.161677
C57   C     C_R   0.526756 0.697412 0.062700 -0.086392
C58   C     C_R   0.473244 0.302588 0.937300 -0.086391
C59   C     C_R   0.973240 0.197420 0.437296 -0.086387
C60   C     C_R   0.026759 0.802579 0.562704 -0.086387
H9    H     H_    0.656263 0.775482 0.925840 0.159090
H10   H     H_    0.343737 0.224518 0.074160 0.159090
H11   H     H_    0.843734 0.275488 0.574157 0.159086
H12   H     H_    0.156265 0.724512 0.425843 0.159086
H13   H     H_    0.606681 0.597615 0.010853 0.142899
H14   H     H_    0.393319 0.402384 0.989147 0.142899
H15   H     H_    0.893314 0.097626 0.489141 0.142900
H16   H     H_    0.106685 0.902374 0.510859 0.142900
H17   H     H_    0.527462 0.570800 0.092036 0.202309
H18   H     H_    0.472537 0.429200 0.907963 0.202309
H19   H     H_    0.972532 0.070811 0.407957 0.202311
H20   H     H_    0.027468 0.929189 0.592043 0.202310
Br1   Br    Br    0.069320 0.424045 0.945792 -0.506585
Br2   Br    Br    0.930680 0.575956 0.054209 -0.506593
Br3   Br    Br    0.430680 0.924045 0.554209 -0.506585
Br4   Br    Br    0.569320 0.075955 0.445791 -0.506586
S1    S     S_3+6 0.540184 0.303420 0.802543 0.004708
O21   O     O_2   0.465297 0.341485 0.789155 -0.315782
O22   O     O_2   0.577882 0.483808 0.813156 -0.347782
O23   O     O_3   0.561440 0.195057 0.733084 -0.508885
H21   H     H_    0.532817 0.252416 0.693250 0.373505
S2    S     S_3+6 0.459815 0.696579 0.197456 0.004708
O24   O     O_2   0.422117 0.516192 0.186843 -0.347782
O25   O     O_2   0.534702 0.658512 0.210844 -0.315783
O26   O     O_3   0.438560 0.804943 0.266915 -0.508884
H22   H     H_    0.467183 0.747583 0.306750 0.373505
S3    S     S_3+6 0.959818 0.803409 0.697460 0.004709
O27   O     O_2   0.034706 0.841465 0.710850 -0.315781
O28   O     O_2   0.922123 0.983803 0.686848 -0.347781
O29   O     O_3   0.938559 0.695045 0.766917 -0.508886
H23   H     H_    0.967181 0.752400 0.806753 0.373505
S4    S     S_3+6 0.040183 0.196589 0.302540 0.004707
O30   O     O_2   0.077877 0.016196 0.313153 -0.347775
O31   O     O_2   0.965295 0.158532 0.289150 -0.315788
O32   O     O_3   0.061442 0.304949 0.233083 -0.508888
H24   H     H_    0.032810 0.247620 0.193247 0.373508

loop_
_geom_bond_atom_site_label_1
_geom_bond_atom_site_label_2
_ccdc_geom_bond_type
O17   V3    S    
C24   H3    S    
C39   C43   A    
O1    C5    A    
C55   C59   A    
O19   V1    S    
O13   V1    S    
O3    C7    A    
C40   C44   A    
O15   V3    S    
S2    O24   D    
C5    C12   S    
C45   C46   A    
C15   Br3   S    
C6    C11   S    
C50   C57   A    
C9    C18   A    
C32   C36   A    
O9    V1    S    
C38   H10   S    
C17   H6    S    
C14   C18   A    
C37   H9    S    
S1    O22   D    
O4    C8    A    
C39   H11   S    
C20   H7    S    
O1    V3    S    
C12   C23   A    
O2    V4    S    
O3    V1    S    
C38   C42   A    
C32   C52   A    
C1    O15   A    
C58   H18   S    
C56   C60   A    
C2    O16   A    
O2    C6    A    
C37   C41   A    
O14   V2    S    
C52   C59   A    
C45   C49   A    
C44   C56   A    
C16   C20   A    
C55   H15   S    
C48   C52   A    
C16   Br4   S    
O11   C7    A    
C15   C28   A    
C30   C50   A    
C29   S1    S    
O12   C8    A    
C9    C22   A    
C10   C17   A    
O10   V2    S    
C11   C24   A    
C18   H5    S    
O23   H21   S    
O5    V1    S    
S3    O28   D    
C31   C35   A    
O7    V3    S    
C30   C34   A    
C27   C28   A    
O8    V4    S    
C54   C58   A    
S1    O23   S    
C14   C25   A    
C53   C57   A    
O18   V4    S    
C15   C19   A    
C13   Br1   S    
C32   S4    S    
C4    C34   S    
C31   C51   A    
C36   C40   A    
C14   Br2   S    
O7    C3    A    
C1    C35   S    
O5    C1    A    
C51   C60   A    
C31   S3    S    
C46   C50   A    
S2    O25   D    
C21   C25   A    
O8    C4    A    
C7    C10   S    
O9    C5    A    
C10   C21   A    
C42   C54   A    
O11   V3    S    
C11   C20   A    
C41   C53   A    
C56   H16   S    
C19   H8    S    
S4    O32   S    
C49   C58   A    
C43   C55   A    
O6    V2    S    
C21   H2    S    
O32   H24   S    
S4    O31   D    
O16   V4    S    
S3    O29   S    
C3    O13   A    
C57   H17   S    
C44   C48   A    
C59   H19   S    
O6    C2    A    
C23   C27   A    
S3    O27   D    
C30   S2    S    
C2    C36   S    
O12   V4    S    
C16   C27   A    
C22   C26   A    
C8    C9    S    
O10   C6    A    
O20   V2    S    
C29   C49   A    
O26   H22   S    
C47   C51   A    
C13   C26   A    
C34   C38   A    
C33   C37   A    
C22   H1    S    
C35   C39   A    
C13   C17   A    
C54   H14   S    
S2    O26   S    
C53   H13   S    
C60   H20   S    
C47   C48   A    
C40   H12   S    
C29   C33   A    
C24   C28   A    
C25   C26   A    
C42   C46   A    
C4    O14   A    
C41   C45   A    
S4    O30   D    
C12   C19   A    
O29   H23   S    
S1    O21   D    
C43   C47   A    
O4    V2    S    
C3    C33   S    
C23   H4    S    
