data_mof_unit_46186.cif
_audit_creation_date              2012-10-26T20:43:04-0400
_audit_creation_method            fapswitch 2.2
_symmetry_space_group_name_H-M    P1
_symmetry_Int_Tables_number       1
_space_group_crystal_system       triclinic
_cell_length_a                    10.825958
_cell_length_b                    9.49011
_cell_length_c                    15.114994
_cell_angle_alpha                 90.759393
_cell_angle_beta                  90.507397
_cell_angle_gamma                 90.038674
_cell_volume                      1552.7096447

loop_
_atom_site_label
_atom_site_type_symbol
_atom_type_description
_atom_site_fract_x
_atom_site_fract_y
_atom_site_fract_z
_atom_type_partial_charge
C1    C     C_R   0.261987 0.499974 0.499973 0.546744
C2    C     C_R   0.128199 0.499951 0.499955 0.019901
C3    C     C_R   0.414161 0.073438 0.451869 0.013816
C4    C     C_R   0.585839 0.926562 0.548130 0.013815
C5    C     C_R   0.585852 0.075576 0.548122 0.007978
C6    C     C_R   0.414148 0.924424 0.451877 0.007980
C7    C     C_R   0.503648 0.498776 0.328678 0.548043
C8    C     C_R   0.496352 0.501224 0.671322 0.548043
C9    C     C_R   0.542388 0.389384 0.812705 -0.154093
C10   C     C_R   0.457614 0.610616 0.187295 -0.154093
C11   C     C_R   0.491820 0.504130 0.768135 -0.020447
C12   C     C_R   0.738013 0.500026 0.500027 0.546744
C13   C     C_R   0.508181 0.495870 0.231865 -0.020447
C14   C     C_R   0.441158 0.619699 0.816138 -0.034121
C15   C     C_R   0.558843 0.380301 0.183862 -0.034121
C16   C     C_R   0.444312 0.618092 0.909618 0.006409
C17   C     C_R   0.555689 0.381908 0.090382 0.006409
C18   C     C_R   0.497731 0.501511 0.953430 0.050802
C19   C     C_R   0.502270 0.498489 0.046570 0.050802
C20   C     C_R   0.546386 0.387516 0.904409 0.009677
C21   C     C_R   0.453616 0.612484 0.095591 0.009677
C22   C     C_R   0.394584 0.729390 0.960654 -0.136857
C23   C     C_R   0.400080 0.726815 0.052435 -0.137959
C24   C     C_R   0.605418 0.270610 0.039346 -0.136857
C25   C     C_R   0.383171 0.739818 0.769124 0.048980
C26   C     C_R   0.443082 0.871148 0.766951 -0.096908
C27   C     C_R   0.389163 0.983510 0.721854 -0.108011
C28   C     C_R   0.276083 0.965114 0.677868 -0.094039
C29   C     C_R   0.216155 0.834646 0.679583 -0.100907
C30   C     C_R   0.269275 0.722200 0.725120 -0.062185
C31   C     C_R   0.616829 0.260182 0.230876 0.048980
C32   C     C_R   0.730722 0.277801 0.274882 -0.062183
C33   C     C_R   0.783842 0.165356 0.320420 -0.100906
C34   C     C_R   0.599923 0.273186 0.947565 -0.137959
C35   C     C_R   0.723916 0.034888 0.322132 -0.094040
C36   C     C_R   0.610838 0.016491 0.278145 -0.108013
C37   C     C_R   0.556920 0.128851 0.233047 -0.096910
C38   C     C_R   0.063910 0.373016 0.509633 -0.146937
C39   C     C_R   0.936090 0.626984 0.490367 -0.146937
C40   C     C_R   0.936153 0.373104 0.509775 -0.149044
C41   C     C_R   0.063847 0.626896 0.490226 -0.149043
C42   C     C_R   0.871801 0.500049 0.500045 0.019901
Cu1   Cu    Cu3+1 0.500000 0.640660 0.500000 0.934053
Cu2   Cu    Cu3+1 0.500000 0.359340 0.500000 0.934053
H1    H     H_    0.581657 0.301828 0.775617 0.115293
H2    H     H_    0.111969 0.725959 0.482161 0.117873
H3    H     H_    0.345886 0.128876 0.412981 0.104910
H4    H     H_    0.654115 0.871124 0.587019 0.104910
H5    H     H_    0.654212 0.132730 0.586952 0.098929
H6    H     H_    0.345788 0.867270 0.413047 0.098929
H7    H     H_    0.531299 0.886155 0.800114 0.096117
H8    H     H_    0.435434 0.084586 0.720495 0.115873
H9    H     H_    0.234978 0.051923 0.642414 0.105240
H10   H     H_    0.128469 0.820704 0.645685 0.097751
H11   H     H_    0.222305 0.621411 0.725719 0.097801
H12   H     H_    0.418345 0.698172 0.224383 0.115293
H13   H     H_    0.777692 0.378591 0.274285 0.097801
H14   H     H_    0.871526 0.179300 0.354319 0.097751
H15   H     H_    0.765021 0.948079 0.357587 0.105241
H16   H     H_    0.564569 0.915414 0.279503 0.115873
H17   H     H_    0.468705 0.113842 0.199883 0.096118
H18   H     H_    0.350834 0.819442 0.930507 0.124145
H19   H     H_    0.649168 0.180559 0.069493 0.124144
H20   H     H_    0.361750 0.814463 0.089818 0.103407
H21   H     H_    0.638253 0.185538 0.910181 0.103407
H22   H     H_    0.112066 0.273863 0.517480 0.118303
H23   H     H_    0.887934 0.726137 0.482521 0.118303
H24   H     H_    0.888030 0.274041 0.517840 0.117872
N1    N     N_R   0.500000 0.852070 0.500000 -0.218675
N2    N     N_R   0.500000 0.147930 0.500000 -0.218675
O1    O     O_R   0.319640 0.618740 0.499990 -0.507489
O2    O     O_R   0.680360 0.381260 0.500010 -0.507489
O3    O     O_R   0.680360 0.618740 0.500010 -0.515245
O4    O     O_R   0.319640 0.381260 0.499990 -0.515245
O5    O     O_R   0.499970 0.618800 0.370260 -0.514739
O6    O     O_R   0.500030 0.381200 0.629740 -0.514740
O7    O     O_R   0.500030 0.618800 0.629740 -0.484388
O8    O     O_R   0.499970 0.381200 0.370260 -0.484388

loop_
_geom_bond_atom_site_label_1
_geom_bond_atom_site_label_2
_ccdc_geom_bond_type
Cu1   O3    S    
C6    N1    A    
C9    H1    S    
C33   H14   S    
C35   C36   A    
C3    C6    A    
C39   C41   A    
C26   C27   A    
C1    O1    A    
C1    O4    A    
C28   C29   A    
C19   C21   A    
C18   C19   A    
C11   C14   A    
C5    N2    A    
C29   H10   S    
C2    C41   A    
C8    O6    A    
C35   H15   S    
C1    C2    S    
Cu2   O6    S    
C12   C42   S    
C17   C19   A    
C38   H22   S    
Cu1   O1    S    
C41   H2    S    
Cu2   N2    S    
C10   H12   S    
C20   C34   A    
C40   C42   A    
C12   O2    A    
C10   C21   A    
C12   O3    A    
C5    H5    S    
C32   H13   S    
C34   H21   S    
C4    N1    A    
C39   C42   A    
C21   C23   A    
Cu1   O5    S    
C17   C24   A    
C3    N2    A    
C7    O5    A    
C25   C26   A    
C24   C34   A    
C31   C37   A    
Cu1   Cu2   S    
C29   C30   A    
C22   H18   S    
C2    C38   A    
C9    C20   A    
C31   C32   A    
C6    H6    S    
Cu2   O4    S    
C9    C11   A    
C7    O8    A    
C16   C18   A    
C23   H20   S    
C24   H19   S    
C13   C15   A    
C8    O7    A    
C14   C16   A    
C27   H8    S    
C4    H4    S    
C25   C30   A    
C15   C17   A    
C36   C37   A    
C16   C22   A    
C39   H23   S    
C4    C5    A    
C36   H16   S    
C10   C13   A    
C37   H17   S    
C28   H9    S    
C15   C31   S    
Cu1   O7    S    
C30   H11   S    
C32   C33   A    
Cu2   O8    S    
C26   H7    S    
C38   C40   A    
C8    C11   S    
C3    H3    S    
C33   C35   A    
Cu2   O2    S    
C18   C20   A    
C14   C25   S    
C7    C13   S    
Cu1   N1    S    
C40   H24   S    
C27   C28   A    
C22   C23   A    
