data_mof_unit_35457.cif
_audit_creation_date              2012-12-10T18:38:09-0500
_audit_creation_method            fapswitch 2.2
_symmetry_space_group_name_H-M    P1
_symmetry_Int_Tables_number       1
_space_group_crystal_system       triclinic
_cell_length_a                    14.978681
_cell_length_b                    15.450307
_cell_length_c                    27.741209
_cell_angle_alpha                 89.905668
_cell_angle_beta                  105.10524
_cell_angle_gamma                 82.1718
_cell_volume                      6135.80354636

loop_
_atom_site_label
_atom_site_type_symbol
_atom_type_description
_atom_site_fract_x
_atom_site_fract_y
_atom_site_fract_z
_atom_type_partial_charge
C1    C     C_R   0.441701 0.662337 0.493632 0.888720
C2    C     C_R   0.441492 0.566720 0.119375 -0.022680
C3    C     C_R   0.503495 0.502960 0.646997 -0.042817
C4    C     C_R   0.496250 0.497782 0.352960 -0.044045
C5    C     C_R   0.444245 0.571447 0.017839 0.044991
C6    C     C_R   0.558357 0.436706 0.982732 0.045034
C7    C     C_R   0.551037 0.431582 0.032523 0.045076
C8    C     C_R   0.444179 0.571848 0.966730 0.044980
C9    C     C_R   0.495974 0.500199 0.050148 0.072170
C10   C     C_R   0.502897 0.505501 0.949756 0.072186
C11   C     C_R   0.394701 0.640373 0.038056 -0.210992
C12   C     C_R   0.558508 0.337693 0.508266 0.887968
C13   C     C_R   0.620077 0.375561 0.964697 -0.211492
C14   C     C_R   0.393309 0.637777 0.087805 -0.134039
C15   C     C_R   0.623301 0.379074 0.915257 -0.133300
C16   C     C_R   0.501182 0.500578 0.593990 0.872234
C17   C     C_R   0.498788 0.499507 0.406006 0.873858
C18   C     C_R   0.386667 0.636147 0.931649 -0.210820
C19   C     C_R   0.596345 0.359475 0.065415 -0.211616
C20   C     C_R   0.407781 0.754651 0.497449 -0.083935
C21   C     C_R   0.595103 0.245194 0.519516 -0.083624
C22   C     C_R   0.291187 0.870849 0.511195 -0.017134
C23   C     C_R   0.505916 0.507748 0.899134 -0.051282
C24   C     C_R   0.723912 0.125566 0.540627 -0.021422
C25   C     C_R   0.317291 0.783345 0.501193 -0.238349
C26   C     C_R   0.690552 0.214463 0.529211 -0.234719
C27   C     C_R   0.472173 0.812904 0.503390 -0.248415
C28   C     C_R   0.532932 0.188138 0.523243 -0.251794
C29   C     C_R   0.452709 0.897221 0.519019 0.086514
C30   C     C_R   0.563030 0.099396 0.534742 0.087320
C31   C     C_R   0.359979 0.928330 0.521132 0.081753
C32   C     C_R   0.658957 0.066606 0.540854 0.089348
C33   C     C_R   0.523428 0.951909 0.530846 0.085620
C34   C     C_R   0.492868 0.497662 0.100751 -0.051288
C35   C     C_R   0.497427 0.041819 0.535382 0.083275
C36   C     C_R   0.406615 0.071282 0.540036 -0.232153
C37   C     C_R   0.619259 0.919619 0.538392 -0.237302
C38   C     C_R   0.340096 0.014917 0.534422 -0.176493
C39   C     C_R   0.685762 0.975875 0.544136 -0.177865
C40   C     C_R   0.451513 0.573539 0.815414 0.505063
C41   C     C_R   0.538715 0.425717 0.182929 0.504458
C42   C     C_R   0.841601 0.641875 0.571506 -0.303625
C43   C     C_R   0.157813 0.359340 0.427766 -0.297025
C44   C     C_R   0.752942 0.617620 0.560381 0.012842
C45   C     C_R   0.448749 0.573525 0.865437 -0.022422
C46   C     C_R   0.246717 0.383048 0.439204 0.014998
C47   C     C_R   0.794093 0.509190 0.506417 -0.051812
C48   C     C_R   0.205957 0.490804 0.493629 -0.055614
C49   C     C_R   0.885550 0.530606 0.516043 0.000577
C50   C     C_R   0.114155 0.470142 0.483552 -0.000006
C51   C     C_R   0.908245 0.598669 0.549387 0.166344
C52   C     C_R   0.091230 0.402521 0.449926 0.168908
C53   C     C_R   0.954304 0.487541 0.493819 0.077586
C54   C     C_R   0.045281 0.513497 0.505603 0.072645
C55   C     C_R   0.064281 0.581924 0.538903 -0.213304
C56   C     C_R   0.541521 0.426257 0.132921 -0.022277
C57   C     C_R   0.935072 0.419596 0.460206 -0.215396
C58   C     C_R   0.996942 0.623406 0.560301 -0.174845
C59   C     C_R   0.002320 0.378261 0.438712 -0.180153
C60   C     C_R   0.566163 0.446249 0.831666 0.506339
C61   C     C_R   0.440957 0.563750 0.169708 0.506286
C62   C     C_R   0.427979 0.487479 0.713098 -0.101224
C63   C     C_R   0.573693 0.508223 0.287197 -0.103160
C64   C     C_R   0.426016 0.484740 0.662806 -0.211629
C65   C     C_R   0.576028 0.509904 0.337552 -0.211476
C66   C     C_R   0.582774 0.524172 0.682212 -0.210016
C67   C     C_R   0.389234 0.636928 0.882059 -0.133735
C68   C     C_R   0.414281 0.483726 0.317274 -0.211763
C69   C     C_R   0.584453 0.526952 0.732518 -0.095312
C70   C     C_R   0.412157 0.482228 0.266886 -0.097366
C71   C     C_R   0.507102 0.508563 0.747953 0.313761
C72   C     C_R   0.491824 0.494514 0.251888 0.317397
C73   C     C_2   0.192006 0.899011 0.510500 0.891126
C74   C     C_2   0.826364 0.097586 0.552228 0.891114
C75   C     C_R   0.591791 0.357166 0.114661 -0.134725
C76   C     C_R   0.565726 0.443919 0.882019 -0.022332
H1    H     H_    0.643321 0.538715 0.670971 0.165364
H2    H     H_    0.984502 0.326545 0.413089 0.158482
H3    H     H_    0.230785 0.540318 0.518806 0.129465
H4    H     H_    0.769561 0.459056 0.481642 0.128115
H5    H     H_    0.299073 0.350104 0.422498 0.138155
H6    H     H_    0.700474 0.650746 0.576956 0.133971
H7    H     H_    0.857827 0.694080 0.596982 0.154689
H8    H     H_    0.141312 0.307632 0.401975 0.156069
H9    H     H_    0.130686 0.605668 0.549327 0.153510
H10   H     H_    0.868430 0.396359 0.449435 0.145908
H11   H     H_    0.645674 0.543349 0.759541 0.145126
H12   H     H_    0.351864 0.474148 0.328193 0.165317
H13   H     H_    0.348814 0.471585 0.239465 0.142955
H14   H     H_    0.343677 0.687462 0.856661 0.192031
H15   H     H_    0.628268 0.300765 0.138457 0.191583
H16   H     H_    0.640175 0.520623 0.364291 0.164025
H17   H     H_    0.364004 0.468294 0.636442 0.165263
H18   H     H_    0.635251 0.517981 0.275467 0.141585
H19   H     H_    0.368259 0.472868 0.725129 0.143910
H20   H     H_    0.354433 0.692256 0.101480 0.191726
H21   H     H_    0.671214 0.330302 0.903175 0.191891
H22   H     H_    0.357684 0.698661 0.016787 0.145234
H23   H     H_    0.459507 0.213270 0.514340 0.165682
H24   H     H_    0.668459 0.324776 0.988038 0.145256
H25   H     H_    0.336928 0.686036 0.940875 0.145231
H26   H     H_    0.634670 0.302532 0.054113 0.145488
H27   H     H_    0.273131 0.040587 0.540260 0.193964
H28   H     H_    0.757196 0.946968 0.547910 0.190049
H29   H     H_    0.077535 0.989715 0.488673 0.362145
H30   H     H_    0.940528 0.023733 0.595749 0.356217
H31   H     H_    0.538413 0.790869 0.495756 0.162754
H32   H     H_    0.739265 0.259855 0.528176 0.185066
H33   H     H_    0.266850 0.737792 0.495974 0.181282
H34   H     H_    0.386524 0.137297 0.549969 0.154934
H35   H     H_    0.645246 0.850604 0.541146 0.147854
H36   H     H_    0.014535 0.675572 0.585632 0.165934
N1    N     N_R   0.509064 0.510059 0.799609 -0.356669
N2    N     N_R   0.489588 0.494187 0.200219 -0.356999
N3    N     N_R   0.731710 0.552720 0.528410 -0.101089
N4    N     N_R   0.268290 0.447280 0.471590 -0.102953
O1    O     O_R   0.383110 0.605620 0.485680 -0.615138
O2    O     O_2   0.584741 0.357546 0.214148 -0.557278
O3    O     O_2   0.393313 0.630218 0.188269 -0.555708
O4    O     O_2   0.622020 0.384563 0.814613 -0.555315
O5    O     O_2   0.150142 0.850632 0.528653 -0.626380
O6    O     O_R   0.144980 0.978654 0.487076 -0.804376
O7    O     O_2   0.872776 0.130662 0.528834 -0.621155
O8    O     O_R   0.870584 0.036535 0.591297 -0.805683
O9    O     O_R   0.616890 0.394380 0.514320 -0.616265
O10   O     O_R   0.531900 0.639510 0.503910 -0.622442
O11   O     O_R   0.468100 0.360490 0.496090 -0.623028
O12   O     O_R   0.425620 0.483050 0.562130 -0.623066
O13   O     O_R   0.574380 0.516950 0.437870 -0.621160
O14   O     O_R   0.574410 0.516930 0.580360 -0.620489
O15   O     O_R   0.425590 0.483070 0.419640 -0.620157
O16   O     O_2   0.397253 0.636369 0.782740 -0.555924
Zn1   Zn    Zn3+2 0.400660 0.477380 0.487830 0.950119
Zn2   Zn    Zn3+2 0.599340 0.522620 0.512170 0.951228

loop_
_geom_bond_atom_site_label_1
_geom_bond_atom_site_label_2
_ccdc_geom_bond_type
O9    Zn2   S    
C65   H16   S    
C74   O8    S    
C21   C26   A    
C63   C65   A    
C34   C56   A    
C23   C45   A    
C29   C33   A    
C17   O15   A    
C35   C36   A    
C41   N2    A    
O1    Zn1   S    
C39   H28   S    
C47   C49   A    
C12   O11   A    
C3    C64   A    
C57   H10   S    
C47   N3    A    
C63   H18   S    
C50   C54   A    
C30   C35   A    
C11   H22   S    
C58   H36   S    
C48   H3    S    
C24   C26   A    
C64   H17   S    
C5    C11   A    
C44   H6    S    
C4    C65   A    
C11   C14   A    
C43   C52   A    
C57   C59   A    
C66   C69   A    
C61   O3    S    
C20   C25   A    
C72   N2    S    
C27   C29   A    
C71   N1    S    
C32   C39   A    
C69   C71   A    
C62   C64   A    
C33   C35   A    
C44   N3    A    
C49   C51   A    
C22   C25   A    
C45   C67   A    
C50   C52   A    
C60   O4    S    
C41   O2    S    
C16   O14   A    
C23   C76   A    
C69   H11   S    
C2    C61   A    
C25   H33   S    
C42   C51   A    
C48   N4    A    
C2    C34   A    
C48   C50   A    
C74   O7    D    
C40   O16   S    
C56   C75   A    
C62   H19   S    
C43   H8    S    
C60   N1    A    
O14   Zn2   S    
C42   C44   A    
C47   H4    S    
C15   H21   S    
C59   H2    S    
C14   H20   S    
C40   C45   A    
C37   C39   A    
C22   C31   A    
C17   O13   A    
C1    O10   A    
C26   H32   S    
C4    C68   A    
C53   C57   A    
N4    Zn1   S    
C18   C67   A    
C53   C54   A    
C12   C21   S    
C60   C76   A    
C67   H14   S    
C33   C37   A    
C18   H25   S    
C55   H9    S    
C24   C32   A    
C41   C56   A    
C5    C9    A    
C38   H27   S    
C52   C59   A    
C46   H5    S    
C40   N1    A    
C27   H31   S    
C51   C58   A    
C1    O1    A    
C16   O12   A    
C4    C17   S    
C28   H23   S    
C8    C10   A    
C20   C27   A    
C21   C28   A    
C7    C19   A    
C13   C15   A    
C36   H34   S    
C9    C34   A    
C68   H12   S    
C70   H13   S    
C19   C75   A    
H29   O6    S    
C7    C9    A    
C66   H1    S    
C54   C55   A    
C1    C20   S    
C42   H7    S    
O11   Zn1   S    
O15   Zn1   S    
C6    C10   A    
C5    C8    A    
C6    C7    A    
C12   O9    A    
N3    Zn2   S    
C75   H15   S    
C10   C23   A    
C73   O5    D    
C31   C38   A    
C46   N4    A    
C13   H24   S    
C36   C38   A    
C29   C31   A    
O12   Zn1   S    
C6    C13   A    
C30   C32   A    
C24   C74   S    
C49   C53   A    
C28   C30   A    
C19   H26   S    
C62   C71   A    
C15   C76   A    
C2    C14   A    
C43   C46   A    
C8    C18   A    
C37   H35   S    
O13   Zn2   S    
C3    C66   A    
C63   C72   A    
O10   Zn2   S    
C68   C70   A    
C73   O6    S    
C55   C58   A    
H30   O8    S    
C61   N2    A    
C70   C72   A    
C22   C73   S    
C3    C16   S    
