data_mof_unit_11576.cif
_audit_creation_date              2012-12-10T18:19:11-0500
_audit_creation_method            fapswitch 2.2
_symmetry_space_group_name_H-M    P1
_symmetry_Int_Tables_number       1
_space_group_crystal_system       triclinic
_cell_length_a                    14.904353
_cell_length_b                    14.17356
_cell_length_c                    11.524637
_cell_angle_alpha                 89.973381
_cell_angle_beta                  89.31562
_cell_angle_gamma                 89.744306
_cell_volume                      2434.35541736

loop_
_atom_site_label
_atom_site_type_symbol
_atom_type_description
_atom_site_fract_x
_atom_site_fract_y
_atom_site_fract_z
_atom_type_partial_charge
C1    C     C_R   0.327319 0.500052 0.501730 0.925080
C2    C     C_R   0.446330 0.202978 0.576991 0.250949
C3    C     C_R   0.434188 0.798483 0.558490 0.245361
C4    C     C_R   0.553972 0.202598 0.423266 0.243703
C5    C     C_R   0.438333 0.899204 0.570275 -0.082249
C6    C     C_R   0.561597 0.101583 0.428158 -0.085788
C7    C     C_R   0.562121 0.898531 0.429067 -0.083249
C8    C     C_R   0.439082 0.102022 0.572267 -0.083969
C9    C     C_R   0.500567 0.949672 0.500217 0.019815
C10   C     C_R   0.500470 0.051060 0.500288 0.018631
C11   C     C_R   0.380172 0.951094 0.645513 -0.033308
C12   C     C_R   0.672709 0.499848 0.499037 0.926297
C13   C     C_R   0.625465 0.049258 0.361454 -0.029775
C14   C     C_R   0.619557 0.950259 0.353153 -0.031826
C15   C     C_R   0.374926 0.050228 0.638445 -0.032121
C16   C     C_R   0.499881 0.500011 0.282089 0.908796
C17   C     C_R   0.500050 0.499975 0.717914 0.909878
C18   C     C_1   0.499731 0.499984 0.161598 -0.198812
C19   C     C_1   0.500163 0.499879 0.838405 -0.195299
C20   C     C_1   0.499828 0.499835 0.059351 -0.012917
C21   C     C_1   0.500054 0.499778 0.940653 -0.013174
C22   C     C_R   0.814525 0.464405 0.399352 0.139399
C23   C     C_R   0.908648 0.464702 0.399960 0.058834
C24   C     C_R   0.185667 0.531536 0.603943 0.131069
C25   C     C_R   0.768062 0.499741 0.496446 -0.089266
C26   C     C_R   0.232019 0.499573 0.505006 -0.084823
C27   C     C_R   0.811589 0.534916 0.592882 -0.334957
C28   C     C_R   0.188467 0.466045 0.407771 -0.321283
C29   C     C_R   0.904105 0.533747 0.595963 0.132930
C30   C     C_R   0.095978 0.465856 0.405521 0.131634
C31   C     C_R   0.953202 0.499187 0.499476 0.038171
C32   C     C_R   0.046915 0.499348 0.502621 0.040472
C33   C     C_3   0.743054 0.499879 0.217181 -0.790912
C34   C     C_R   0.091503 0.532536 0.602803 0.056565
C35   C     C_3   0.255278 0.488469 0.784833 -0.788861
C36   C     C_3   0.723761 0.755164 0.448785 -0.701152
C37   C     C_3   0.437878 0.246933 0.781252 -0.719236
C38   C     C_3   0.276170 0.766552 0.529675 -0.709545
C39   C     C_3   0.563113 0.246987 0.219194 -0.706953
C40   C     C_1   0.329589 0.905461 0.738258 0.158530
C41   C     C_1   0.703420 0.093555 0.308026 0.154412
C42   C     C_1   0.667709 0.905258 0.257582 0.159340
C43   C     C_1   0.297153 0.095368 0.692122 0.157872
C44   C     C_R   0.947893 0.565920 0.694674 -0.195352
C45   C     C_R   0.052197 0.433293 0.307022 -0.195352
C46   C     C_R   0.040804 0.564548 0.698722 -0.221639
C47   C     C_R   0.959298 0.432854 0.303931 -0.216803
C48   C     C_R   0.565227 0.797438 0.439544 0.247919
H1    H     H_    0.772882 0.561521 0.666398 0.150840
H2    H     H_    0.701391 0.467409 0.148869 0.239517
H3    H     H_    0.212457 0.623743 0.740406 0.225233
H4    H     H_    0.192407 0.459913 0.823602 0.242201
H5    H     H_    0.297062 0.517640 0.855258 0.240102
H6    H     H_    0.293442 0.430552 0.741790 0.250726
H7    H     H_    0.637998 0.731750 0.305085 0.223964
H8    H     H_    0.750308 0.827376 0.436088 0.224648
H9    H     H_    0.772765 0.704007 0.411409 0.236913
H10   H     H_    0.717157 0.741442 0.543423 0.245116
H11   H     H_    0.335312 0.268271 0.656927 0.227227
H12   H     H_    0.227130 0.441196 0.333280 0.148843
H13   H     H_    0.424280 0.175538 0.816330 0.226496
H14   H     H_    0.405553 0.299838 0.839367 0.230984
H15   H     H_    0.511517 0.258771 0.781222 0.247900
H16   H     H_    0.350362 0.732991 0.681550 0.232960
H17   H     H_    0.221009 0.720850 0.561212 0.229845
H18   H     H_    0.287939 0.751723 0.436057 0.244757
H19   H     H_    0.254393 0.841015 0.539775 0.224505
H20   H     H_    0.665320 0.266058 0.344023 0.233361
H21   H     H_    0.576698 0.175527 0.183999 0.222532
H22   H     H_    0.595776 0.299677 0.161445 0.233400
H23   H     H_    0.910142 0.591569 0.769304 0.148290
H24   H     H_    0.489499 0.259647 0.218795 0.244040
H25   H     H_    0.089930 0.408293 0.232042 0.148195
H26   H     H_    0.071761 0.588541 0.777646 0.156940
H27   H     H_    0.928274 0.408139 0.225374 0.157836
H28   H     H_    0.789262 0.367244 0.267931 0.227227
H29   H     H_    0.805013 0.528527 0.176187 0.239834
H30   H     H_    0.704093 0.558406 0.257701 0.248910
N1    N     N_R   0.500000 0.750030 0.500000 -0.132089
N2    N     N_1   0.766086 0.127617 0.265288 -0.213168
N3    N     N_1   0.706248 0.870609 0.180761 -0.205447
N4    N     N_1   0.234626 0.130087 0.735070 -0.202503
N5    N     N_R   0.500000 0.249970 0.500000 -0.132010
N6    N     N_2   0.765417 0.429456 0.303054 -0.313715
N7    N     N_2   0.234997 0.562169 0.702311 -0.312468
N8    N     N_2   0.637677 0.743563 0.393215 -0.261437
N9    N     N_2   0.403300 0.257520 0.664870 -0.260782
N10   N     N_2   0.357165 0.747351 0.594362 -0.253535
N11   N     N_2   0.597292 0.256912 0.335802 -0.250281
N12   N     N_1   0.289112 0.870290 0.812814 -0.210783
O1    O     O_R   0.367850 0.580280 0.500030 -0.585135
O2    O     O_R   0.632150 0.419720 0.499970 -0.607711
O3    O     O_R   0.632150 0.580280 0.499970 -0.604539
O4    O     O_R   0.367850 0.419720 0.500030 -0.627942
O5    O     O_R   0.500010 0.580270 0.334450 -0.617974
O6    O     O_R   0.499990 0.419730 0.665550 -0.596773
O7    O     O_R   0.499990 0.580270 0.665550 -0.609918
O8    O     O_R   0.500010 0.419730 0.334450 -0.587694
Zn1   Zn    Zn3+2 0.500000 0.607200 0.500000 0.967913
Zn2   Zn    Zn3+2 0.500000 0.392800 0.500000 0.967613

loop_
_geom_bond_atom_site_label_1
_geom_bond_atom_site_label_2
_ccdc_geom_bond_type
C35   H5    S    
C30   C45   A    
C3    N1    A    
H28   N6    S    
C41   N2    T    
C13   C41   S    
C37   H14   S    
C48   N1    A    
N1    Zn1   S    
C19   C21   T    
C24   C26   A    
C5    C11   A    
C36   H10   S    
O5    Zn1   S    
C33   H30   S    
C27   C29   A    
C44   H23   S    
C45   H25   S    
C33   H29   S    
C37   H15   S    
C11   C15   A    
C7    C14   A    
C38   H18   S    
C44   C46   A    
C1    O4    A    
C22   C25   A    
C39   H24   S    
C34   C46   A    
C24   N7    S    
O3    Zn1   S    
C14   C42   S    
C28   H12   S    
C1    O1    A    
C13   C14   A    
C35   H6    S    
H3    N7    S    
C2    N5    A    
C42   N3    T    
O7    Zn1   S    
C12   O2    A    
C45   C47   A    
C23   C47   A    
C4    C6    A    
C36   H9    S    
C36   N8    S    
C33   H2    S    
C24   C34   A    
C38   N10   S    
C32   C34   A    
C5    C9    A    
C36   H8    S    
C31   C32   A    
C38   H17   S    
O4    Zn2   S    
C22   N6    S    
H20   N11   S    
C39   H21   S    
C2    N9    S    
C17   O6    A    
C38   H19   S    
C8    C10   A    
C8    C15   A    
O8    Zn2   S    
N5    Zn2   S    
C29   C44   A    
C1    C26   S    
C48   N8    S    
C12   O3    A    
C46   H26   S    
O2    Zn2   S    
C4    N11   S    
C9    C10   A    
C7    C9    A    
C16   O5    A    
C3    N10   S    
C37   N9    S    
C2    C8    A    
C3    C5    A    
C6    C10   A    
C37   H13   S    
C25   C27   A    
C26   C28   A    
C12   C25   S    
O1    Zn1   S    
C7    C48   A    
H7    N8    S    
C28   C30   A    
C47   H27   S    
C29   C31   A    
C6    C13   A    
C30   C32   A    
C35   N7    S    
C16   O8    A    
C4    N5    A    
O6    Zn2   S    
C17   C19   S    
C39   H22   S    
C39   N11   S    
C18   C20   T    
C11   C40   S    
C33   N6    S    
H11   N9    S    
C15   C43   S    
C20   C21   S    
C16   C18   S    
C35   H4    S    
C43   N4    T    
C22   C23   A    
C40   N12   T    
C17   O7    A    
H16   N10   S    
C27   H1    S    
C23   C31   A    
