data_mof_unit_35972.cif
_audit_creation_date              2012-12-10T16:53:11-0500
_audit_creation_method            fapswitch 2.2
_symmetry_space_group_name_H-M    P1
_symmetry_Int_Tables_number       1
_space_group_crystal_system       triclinic
_cell_length_a                    10.836317
_cell_length_b                    10.938134
_cell_length_c                    9.708391
_cell_angle_alpha                 88.738849
_cell_angle_beta                  91.093665
_cell_angle_gamma                 91.707681
_cell_volume                      1149.74142959

loop_
_atom_site_label
_atom_site_type_symbol
_atom_type_description
_atom_site_fract_x
_atom_site_fract_y
_atom_site_fract_z
_atom_type_partial_charge
C1    C     C_R   0.511986 0.266444 0.501824 0.809671
C2    C     C_R   0.061759 0.390949 0.574465 0.042313
C3    C     C_R   0.128454 0.479931 0.494583 -0.106608
C4    C     C_R   0.066806 0.568177 0.416787 -0.194345
C5    C     C_R   0.939832 0.573824 0.419494 0.254191
C6    C     C_R   0.871860 0.492917 0.505760 -0.142911
C7    C     C_2   0.532434 0.938543 0.386923 0.352287
C8    C     C_2   0.493663 0.866973 0.493511 -0.323154
C9    C     C_2   0.521982 0.071236 0.392155 -0.249656
C10   C     C_2   0.541287 0.136992 0.506795 -0.168667
C11   C     C_2   0.556228 0.579596 0.921069 -0.004604
C12   C     C_R   0.262605 0.491639 0.498876 0.829034
C13   C     C_2   0.569808 0.567073 0.075389 -0.047633
C14   C     C_R   0.500286 0.734819 0.497995 0.890750
C15   C     C_R   0.737689 0.498414 0.501663 0.824403
C16   C     C_R   0.116958 0.285871 0.635088 -0.021516
C17   C     C_R   0.056265 0.220414 0.740774 -0.154156
C18   C     C_R   0.934247 0.244251 0.771190 -0.089240
C19   C     C_R   0.870877 0.328490 0.688131 -0.237464
C20   C     C_R   0.933426 0.405038 0.590567 0.060126
Cu1   Cu    Cu3+1 0.500020 0.500020 0.638630 1.008646
Cu2   Cu    Cu3+1 0.499980 0.499980 0.361370 1.055100
H1    H     H_    0.118403 0.635666 0.355842 0.188929
H2    H     H_    0.599824 0.658497 0.870438 0.184705
H3    H     H_    0.479548 0.414541 0.892140 0.219154
H4    H     H_    0.645556 0.617855 0.123835 0.210721
H5    H     H_    0.100966 0.144510 0.792800 0.208985
H6    H     H_    0.772770 0.330830 0.701312 0.164739
H7    H     H_    0.454249 0.907369 0.583188 0.156885
H8    H     H_    0.491999 0.115724 0.296620 0.211157
N1    N     N_2   0.498640 0.498660 0.846910 -0.279279
N2    N     N_2   0.498610 0.498630 0.153040 -0.256906
O1    O     O_R   0.500020 0.321960 0.617040 -0.544358
O2    O     O_R   0.499980 0.321920 0.382900 -0.564810
O3    O     O_R   0.319670 0.500020 0.617100 -0.571429
O4    O     O_R   0.319630 0.499980 0.382950 -0.560239
O5    O     O_R   0.500020 0.678080 0.617100 -0.571975
O6    O     O_R   0.499980 0.678040 0.382960 -0.544405
O7    O     O_R   0.680370 0.500020 0.617050 -0.606478
O8    O     O_R   0.680330 0.499980 0.382900 -0.555584
C21   C     C_2   0.602191 0.087137 0.634181 0.837225
O9    O     O_2   0.691019 0.021424 0.625734 -0.553129
O10   O     O_R   0.558024 0.115929 0.763510 -0.695092
H9    H     H_    0.603805 0.072877 0.841640 0.374229
C22   C     C_2   0.377851 0.464041 0.104176 1.037440
O11   O     O_2   0.336193 0.361414 0.131017 -0.564095
O12   O     O_R   0.304659 0.548771 0.032947 -0.746952
H10   H     H_    0.220474 0.513039 0.005910 0.333174
C23   C     C_2   0.217515 0.223393 0.566961 0.823705
O13   O     O_2   0.283952 0.154489 0.633401 -0.576198
O14   O     O_R   0.226867 0.232768 0.423616 -0.725152
H11   H     H_    0.287305 0.173953 0.385686 0.342285
C24   C     C_2   0.869988 0.173459 0.882486 0.930822
O15   O     O_2   0.900965 0.069452 0.911522 -0.487932
O16   O     O_R   0.775450 0.223656 0.957422 -0.712638
H12   H     H_    0.763293 0.313651 0.936633 0.295255
Br1   Br    Br    0.866265 0.703670 0.313175 -0.410570
Br2   Br    Br    0.593111 0.880121 0.216140 -0.378756

loop_
_geom_bond_atom_site_label_1
_geom_bond_atom_site_label_2
_ccdc_geom_bond_type
H3    N1    S    
O10   H9    S    
C24   O15   D    
Cu1   O3    S    
C12   O4    A    
C2    C16   A    
N2    C22   S    
C13   N2    D    
C19   C20   A    
Cu1   O7    S    
C5    Br1   S    
O16   H12   S    
Cu2   O8    S    
C15   O8    A    
Cu1   N1    S    
C22   O12   S    
C17   C18   A    
C14   O6    A    
C11   N1    D    
C7    C8    D    
Cu1   Cu2   S    
C14   O5    A    
C19   H6    S    
C21   O10   S    
C15   O7    A    
C16   C17   A    
Cu2   N2    S    
C9    H8    S    
C10   C21   S    
C8    H7    S    
C9    C10   D    
C1    O2    A    
C2    C3    A    
C24   O16   S    
C5    C6    A    
Cu2   O2    S    
C13   H4    S    
Cu1   O1    S    
C1    O1    A    
O14   H11   S    
C17   H5    S    
O12   H10   S    
C11   H2    S    
C11   C13   S    
C6    C20   A    
C16   C23   S    
Cu1   O5    S    
C23   O13   D    
C21   O9    D    
C7    C9    S    
C4    H1    S    
C18   C19   A    
C8    C14   S    
C3    C12   S    
C7    Br2   S    
C18   C24   S    
C23   O14   S    
C6    C15   S    
C22   O11   D    
C2    C20   A    
Cu2   O4    S    
C1    C10   S    
C3    C4    A    
C4    C5    A    
C12   O3    A    
Cu2   O6    S    
