data_mof_unit_40664.cif
_audit_creation_date              2012-12-10T18:47:00-0500
_audit_creation_method            fapswitch 2.2
_symmetry_space_group_name_H-M    P1
_symmetry_Int_Tables_number       1
_space_group_crystal_system       triclinic
_cell_length_a                    10.702063
_cell_length_b                    9.842163
_cell_length_c                    14.943579
_cell_angle_alpha                 89.870423
_cell_angle_beta                  90.242979
_cell_angle_gamma                 90.055079
_cell_volume                      1574.00992966

loop_
_atom_site_label
_atom_site_type_symbol
_atom_type_description
_atom_site_fract_x
_atom_site_fract_y
_atom_site_fract_z
_atom_type_partial_charge
C1    C     C_R   0.259908 0.499959 0.500003 0.887778
C2    C     C_R   0.740092 0.500041 0.499997 0.887777
C3    C     C_R   0.306555 0.624914 0.051597 -0.202895
C4    C     C_R   0.693445 0.375086 0.948403 -0.202895
C5    C     C_R   0.063746 0.381880 0.475311 -0.188304
C6    C     C_R   0.936254 0.618120 0.524689 -0.188304
C7    C     C_R   0.935724 0.381964 0.475216 -0.140720
C8    C     C_R   0.064276 0.618036 0.524784 -0.140719
C9    C     C_R   0.872517 0.500074 0.499928 -0.021366
C10   C     C_R   0.127483 0.499926 0.500071 -0.021366
C11   C     C_R   0.580179 0.071847 0.553952 -0.049429
C12   C     C_R   0.419821 0.928153 0.446048 -0.049428
C13   C     C_R   0.419823 0.072048 0.446047 -0.037615
C14   C     C_R   0.580177 0.927952 0.553953 -0.037615
C15   C     C_R   0.503501 0.500158 0.327050 0.943405
C16   C     C_R   0.496498 0.499841 0.672950 0.943405
C17   C     C_R   0.585080 0.429053 0.812913 -0.276961
C18   C     C_R   0.414920 0.570947 0.187087 -0.276961
C19   C     C_R   0.491115 0.498726 0.768332 -0.131405
C20   C     C_R   0.508885 0.501274 0.231668 -0.131405
C21   C     C_R   0.395164 0.566411 0.813826 0.323678
C22   C     C_R   0.604836 0.433589 0.186174 0.323678
C23   C     C_R   0.392683 0.559953 0.908084 -0.076977
C24   C     C_R   0.607317 0.440047 0.091916 -0.076977
C25   C     C_R   0.495753 0.498133 0.953257 -0.014950
C26   C     C_R   0.504247 0.501867 0.046743 -0.014950
C27   C     C_R   0.590717 0.432242 0.904947 0.064025
C28   C     C_R   0.409283 0.567758 0.095053 0.064025
C29   C     C_R   0.294117 0.616142 0.959472 0.472558
C30   C     C_R   0.705883 0.383858 0.040528 0.472558
H1    H     H_    0.657954 0.378391 0.775182 0.154084
H2    H     H_    0.342046 0.621609 0.224818 0.154085
H3    H     H_    0.231602 0.670436 0.089874 0.176067
H4    H     H_    0.768398 0.329564 0.910126 0.176067
H5    H     H_    0.112498 0.290435 0.455358 0.160099
H6    H     H_    0.887502 0.709565 0.544642 0.160099
H7    H     H_    0.886550 0.290569 0.455198 0.183652
H8    H     H_    0.113450 0.709431 0.544802 0.183652
H9    H     H_    0.644267 0.126297 0.597093 0.127935
H10   H     H_    0.355733 0.873703 0.402907 0.127935
H11   H     H_    0.355719 0.126659 0.402917 0.129208
H12   H     H_    0.644281 0.873341 0.597083 0.129208
N1    N     N_R   0.500000 0.857200 0.500000 -0.083159
N2    N     N_R   0.500000 0.142800 0.500000 -0.083159
O1    O     O_R   0.316770 0.614620 0.499990 -0.618329
O2    O     O_R   0.683230 0.385380 0.500010 -0.618329
O3    O     O_R   0.683230 0.614620 0.500010 -0.634414
O4    O     O_R   0.316770 0.385380 0.499990 -0.634415
O5    O     O_R   0.499980 0.614680 0.367850 -0.628037
O6    O     O_R   0.500020 0.385320 0.632150 -0.628037
O7    O     O_R   0.500020 0.614680 0.632150 -0.579593
O8    O     O_R   0.499980 0.385320 0.367850 -0.579593
Zn1   Zn    Zn3+2 0.500000 0.653120 0.500000 0.989851
Zn2   Zn    Zn3+2 0.500000 0.346880 0.500000 0.989851
Cl1   Cl    Cl    0.286929 0.665071 0.750726 -0.591122
Cl2   Cl    Cl    0.713071 0.334929 0.249274 -0.591122
O9    O     O_3   0.181374 0.655648 0.923595 -0.697836
H13   H     H_    0.152585 0.579853 0.885037 0.360773
O10   O     O_3   0.818626 0.344352 0.076404 -0.697836
H14   H     H_    0.847415 0.420147 0.114963 0.360773

loop_
_geom_bond_atom_site_label_1
_geom_bond_atom_site_label_2
_ccdc_geom_bond_type
C12   H10   S    
O4    Zn2   S    
C1    O4    A    
C7    C9    A    
N2    Zn2   S    
C2    O3    A    
C25   C27   A    
C26   C28   A    
C16   O7    A    
O3    Zn1   S    
C14   H12   S    
C30   O10   S    
O2    Zn2   S    
C6    C9    A    
C13   H11   S    
C7    H7    S    
O1    Zn1   S    
C11   N2    A    
C15   O8    A    
C2    O2    A    
C11   H9    S    
C1    O1    A    
O9    H13   S    
O6    Zn2   S    
C8    H8    S    
C16   C19   S    
O5    Zn1   S    
C23   C29   A    
C5    C10   A    
C3    C28   A    
C19   C21   A    
C17   H1    S    
C20   C22   A    
O8    Zn2   S    
C6    C8    A    
C12   N1    A    
C22   C24   A    
C15   O5    A    
C21   C23   A    
C15   C20   S    
C16   O6    A    
C11   C14   A    
C4    H4    S    
C24   C30   A    
C18   H2    S    
C3    H3    S    
C17   C27   A    
C5    H5    S    
O10   H14   S    
C4    C27   A    
C18   C28   A    
C12   C13   A    
C18   C20   A    
C5    C7    A    
C23   C25   A    
C29   O9    S    
C13   N2    A    
C3    C29   A    
C21   Cl1   S    
C22   Cl2   S    
C17   C19   A    
C25   C26   A    
C2    C9    S    
N1    Zn1   S    
C8    C10   A    
C4    C30   A    
C1    C10   S    
C24   C26   A    
C6    H6    S    
C14   N1    A    
O7    Zn1   S    
