data_mof_unit_32925.cif
_audit_creation_date              2012-12-11T17:07:41-0500
_audit_creation_method            fapswitch 2.2
_symmetry_space_group_name_H-M    P1
_symmetry_Int_Tables_number       1
_space_group_crystal_system       triclinic
_cell_length_a                    17.27187
_cell_length_b                    17.262501
_cell_length_c                    17.739347
_cell_angle_alpha                 89.716665
_cell_angle_beta                  90.08425
_cell_angle_gamma                 90.57978
_cell_volume                      5288.74615591

loop_
_atom_site_label
_atom_site_type_symbol
_atom_type_description
_atom_site_fract_x
_atom_site_fract_y
_atom_site_fract_z
_atom_type_partial_charge
C1    C     C_R   0.413376 0.320657 0.865809 0.643318
C2    C     C_R   0.198183 0.893956 0.405082 0.615411
C3    C     C_R   0.737057 0.833964 0.264184 -0.235116
C4    C     C_R   0.220754 0.316605 0.657026 -0.204994
C5    C     C_R   0.226184 0.849202 0.789579 -0.205689
C6    C     C_R   0.776346 0.683771 0.654835 -0.201406
C7    C     C_R   0.774115 0.152128 0.787649 -0.207759
C8    C     C_R   0.735387 0.192287 0.843726 -0.220811
C9    C     C_R   0.738047 0.646033 0.714070 -0.194130
C10   C     C_R   0.264111 0.809542 0.847271 -0.212650
C11   C     C_R   0.260970 0.355763 0.713925 -0.199896
C12   C     C_R   0.691588 0.784125 0.221870 -0.219978
C13   C     C_R   0.085863 0.179315 0.365239 0.644245
C14   C     C_R   0.727534 0.348880 0.288443 -0.201677
C15   C     C_R   0.277298 0.183228 0.155805 -0.205597
C16   C     C_R   0.270919 0.651718 0.286943 -0.205730
C17   C     C_3   0.399939 0.202881 0.920238 -0.416117
C18   C     C_3   0.821073 0.386103 0.948513 -0.324364
C19   C     C_3   0.600889 0.797099 0.924603 -0.398477
C20   C     C_3   0.185773 0.611600 0.969999 -0.211946
C21   C     C_3   0.438002 0.793179 0.062901 -0.400687
C22   C     C_3   0.789843 0.560261 0.036396 -0.306365
C23   C     C_3   0.559495 0.206790 0.065632 -0.407756
C24   C     C_R   0.801301 0.106860 0.408252 0.614437
C25   C     C_3   0.208486 0.378657 0.997640 -0.187824
C26   C     C_3   0.906512 0.704645 0.384029 -0.336556
C27   C     C_3   0.314996 0.889128 0.467002 -0.220913
C28   C     C_3   0.097889 0.296976 0.419001 -0.415081
C29   C     C_3   0.686565 0.114224 0.474111 -0.213769
C30   C     C_3   0.937502 0.292901 0.564103 -0.383028
C31   C     C_3   0.291034 0.122495 0.498288 -0.190642
C32   C     C_3   0.057804 0.707608 0.565732 -0.400041
C33   C     C_3   0.707781 0.880032 0.496715 -0.195994
C34   C     C_R   0.908185 0.182970 0.629442 0.636197
C35   C     C_R   0.199380 0.107962 0.592608 0.588771
C36   C     C_R   0.090240 0.816865 0.629917 0.642284
C37   C     C_R   0.800186 0.892330 0.590936 0.588889
C38   C     C_3   0.776779 0.327930 0.665297 -0.504907
C39   C     C_3   0.645456 0.858763 0.673404 -0.493864
C40   C     C_3   0.195437 0.664497 0.685002 -0.472949
C41   C     C_R   0.697198 0.393204 0.901518 0.609063
C42   C     C_3   0.357656 0.145444 0.670874 -0.496159
C43   C     C_3   0.923675 0.767669 0.163057 -0.519562
C44   C     C_3   0.730784 0.120455 0.252821 -0.529154
C45   C     C_3   0.100994 0.315424 0.233079 -0.430791
C46   C     C_3   0.256514 0.877991 0.242364 -0.525856
C47   C     C_3   0.294997 0.835803 0.178853 -0.477962
C48   C     C_3   0.142135 0.355644 0.169900 -0.496248
C49   C     C_3   0.691244 0.161893 0.189159 -0.464346
C50   C     C_3   0.874427 0.710655 0.116799 -0.473552
C51   C     C_3   0.398552 0.185367 0.734138 -0.431777
C52   C     C_R   0.587855 0.681298 0.867275 0.643355
C53   C     C_3   0.235695 0.622256 0.747777 -0.530995
C54   C     C_3   0.606255 0.819614 0.738443 -0.429815
C55   C     C_3   0.734988 0.370846 0.726580 -0.511305
C56   C     C_R   0.392374 0.697393 0.899073 -0.227088
C57   C     C_R   0.326840 0.416268 0.859313 -0.259083
C58   C     C_R   0.605462 0.302861 0.897330 -0.228692
C59   C     C_R   0.676212 0.587225 0.862036 -0.263024
C60   C     C_R   0.391369 0.303336 0.103235 -0.217015
C61   C     C_R   0.318919 0.588009 0.133357 -0.248477
C62   C     C_R   0.602522 0.693575 0.112444 -0.257099
C63   C     C_R   0.301600 0.606154 0.906181 0.617013
C64   C     C_R   0.680521 0.410356 0.133939 -0.270696
C65   C     C_R   0.892092 0.197633 0.399913 -0.218499
C66   C     C_R   0.835442 0.928857 0.355382 -0.262613
C67   C     C_R   0.107457 0.802632 0.399610 -0.199671
C68   C     C_R   0.172629 0.083959 0.359081 -0.258277
C69   C     C_R   0.890390 0.802579 0.600153 -0.199236
C70   C     C_R   0.819414 0.087046 0.633674 -0.245748
C71   C     C_R   0.107946 0.196501 0.603577 -0.226875
C72   C     C_R   0.179508 0.912214 0.635005 -0.248317
C73   C     C_R   0.353803 0.350364 0.821661 -0.120873
C74   C     C_R   0.407438 0.683811 0.128486 0.638287
C75   C     C_R   0.682003 0.317323 0.883963 -0.121164
C76   C     C_R   0.649074 0.653467 0.824510 -0.106452
C77   C     C_R   0.314601 0.682772 0.889429 -0.143771
C78   C     C_R   0.343224 0.656379 0.166893 -0.117764
C79   C     C_R   0.676871 0.678084 0.134481 -0.089634
C80   C     C_R   0.654522 0.342785 0.168538 -0.108117
C81   C     C_R   0.312702 0.315711 0.111717 -0.132274
C82   C     C_R   0.864264 0.869600 0.312951 -0.103458
C83   C     C_R   0.184949 0.817404 0.388585 -0.149043
C84   C     C_R   0.145137 0.149775 0.320987 -0.122023
C85   C     C_R   0.694243 0.604619 0.111494 0.613346
C86   C     C_R   0.814122 0.183418 0.391320 -0.147284
C87   C     C_R   0.844084 0.154825 0.667389 -0.119524
C88   C     C_R   0.186647 0.184397 0.612315 -0.125543
C89   C     C_R   0.153609 0.844347 0.669503 -0.121273
C90   C     C_R   0.811908 0.815358 0.608968 -0.135150
C91   C     C_R   0.767987 0.312786 0.780039 0.180733
C92   C     C_R   0.641865 0.745279 0.713475 0.146581
C93   C     C_R   0.214315 0.688729 0.797158 0.163815
C94   C     C_R   0.359295 0.258743 0.710745 0.149431
C95   C     C_R   0.805374 0.742323 0.156619 0.190296
C96   C     C_R   0.590624 0.316284 0.129489 0.647087
C97   C     C_R   0.675737 0.226714 0.243070 0.238035
C98   C     C_R   0.178489 0.279553 0.152211 0.136559
C99   C     C_R   0.316139 0.774168 0.235028 0.246338
C100  C     C_R   0.280977 0.812403 0.292164 0.164319
C101  C     C_R   0.139518 0.241958 0.209666 0.149793
C102  C     C_R   0.711889 0.189043 0.300469 0.156678
C103  C     C_R   0.849337 0.792341 0.196951 0.182772
C104  C     C_R   0.320539 0.221351 0.653263 0.136306
C105  C     C_R   0.177585 0.727104 0.740697 0.242924
C106  C     C_R   0.678998 0.781725 0.654193 0.135868
C107  C     C_R   0.300419 0.392299 0.092124 0.588788
C108  C     C_R   0.805899 0.273979 0.725374 0.251858
C109  C     C_R   0.730353 0.272806 0.837442 0.051370
C110  C     C_R   0.676188 0.682555 0.751095 0.066413
C111  C     C_R   0.261106 0.728499 0.848015 0.055351
C112  C     C_R   0.325411 0.321067 0.748876 0.072326
C113  C     C_R   0.726029 0.734436 0.169623 0.055822
C114  C     C_R   0.687358 0.305946 0.233347 0.042479
C115  C     C_R   0.254163 0.258005 0.134071 0.066642
C116  C     C_R   0.307943 0.694217 0.229295 0.044749
C117  C     C_R   0.236855 0.772247 0.345196 0.057067
C118  C     C_R   0.920019 0.832059 0.356225 0.625814
C119  C     C_R   0.172991 0.179014 0.247802 0.072332
C120  C     C_R   0.760219 0.229050 0.349935 0.057726
C121  C     C_R   0.818148 0.835405 0.254777 0.072563
C122  C     C_R   0.244639 0.242334 0.635098 0.066127
C123  C     C_R   0.187071 0.806857 0.733416 0.046104
C124  C     C_R   0.753319 0.758542 0.632987 0.065325
C125  C     C_R   0.806030 0.193586 0.726626 0.045672
C126  C     C_R   0.234470 0.691163 0.345216 -0.209896
C127  C     C_R   0.236830 0.143886 0.212668 -0.198987
C128  C     C_R   0.764837 0.309990 0.347045 -0.211589
H1    H     H_    0.823250 0.364430 0.640068 0.219054
H2    H     H_    0.183589 0.400330 0.190923 0.207187
H3    H     H_    0.644902 0.074867 0.503045 0.179165
H4    H     H_    0.877405 0.295058 0.541491 0.148955
H5    H     H_    0.974488 0.263015 0.522974 0.171670
H6    H     H_    0.959424 0.353213 0.569711 0.178672
H7    H     H_    0.342665 0.158071 0.512427 0.127584
H8    H     H_    0.246396 0.161829 0.474461 0.117411
H9    H     H_    0.308693 0.082020 0.453328 0.195133
H10   H     H_    0.118354 0.702571 0.544962 0.151420
H11   H     H_    0.022342 0.737903 0.522884 0.164469
H12   H     H_    0.033610 0.648175 0.572102 0.177436
H13   H     H_    0.638162 0.130019 0.171694 0.229861
H14   H     H_    0.657512 0.843077 0.512477 0.127735
H15   H     H_    0.752588 0.842545 0.470961 0.116662
H16   H     H_    0.687735 0.920806 0.452525 0.192183
H17   H     H_    0.887272 0.649785 0.132335 0.243349
H18   H     H_    0.462483 0.187851 0.726902 0.211672
H19   H     H_    0.299194 0.617298 0.738871 0.197170
H20   H     H_    0.542041 0.819308 0.733652 0.214694
H21   H     H_    0.670838 0.366756 0.721897 0.198484
H22   H     H_    0.737378 0.298933 0.624297 0.184427
H23   H     H_    0.603370 0.879732 0.630665 0.214253
H24   H     H_    0.235121 0.684246 0.639299 0.182078
H25   H     H_    0.688746 0.902471 0.692764 0.204931
H26   H     H_    0.398701 0.126237 0.626747 0.214148
H27   H     H_    0.962729 0.738209 0.203520 0.249834
H28   H     H_    0.699331 0.067183 0.271342 0.216754
H29   H     H_    0.123083 0.340898 0.285814 0.229912
H30   H     H_    0.286185 0.933323 0.257189 0.209733
H31   H     H_    0.253864 0.814841 0.134966 0.183402
H32   H     H_    0.101160 0.375781 0.125806 0.214375
H33   H     H_    0.731126 0.179022 0.142664 0.182114
H34   H     H_    0.873944 0.723788 0.055402 0.183527
H35   H     H_    0.376787 0.159112 0.786858 0.231122
H36   H     H_    0.143466 0.631653 0.666195 0.228588
H37   H     H_    0.205731 0.567543 0.764554 0.212762
H38   H     H_    0.631029 0.843599 0.790878 0.225618
H39   H     H_    0.758530 0.430124 0.736509 0.207927
H40   H     H_    0.420308 0.753509 0.896249 0.191480
H41   H     H_    0.280935 0.454314 0.842091 0.171118
H42   H     H_    0.577300 0.246888 0.895467 0.195443
H43   H     H_    0.723906 0.551192 0.846126 0.190159
H44   H     H_    0.418253 0.247651 0.104506 0.183548
H45   H     H_    0.268252 0.553210 0.146493 0.167497
H46   H     H_    0.576954 0.750080 0.112148 0.194731
H47   H     H_    0.316659 0.100142 0.691813 0.207661
H48   H     H_    0.732003 0.443033 0.147678 0.202020
H49   H     H_    0.919911 0.253806 0.397507 0.191470
H50   H     H_    0.789668 0.967860 0.339731 0.173150
H51   H     H_    0.079597 0.746402 0.398135 0.182615
H52   H     H_    0.218489 0.046112 0.341930 0.174482
H53   H     H_    0.916336 0.746467 0.598772 0.177474
H54   H     H_    0.768362 0.052601 0.646296 0.168439
H55   H     H_    0.080247 0.251825 0.605198 0.181295
H56   H     H_    0.229845 0.947043 0.649041 0.166030
H57   H     H_    0.200875 0.659305 0.386763 0.130465
H58   H     H_    0.951077 0.814327 0.128584 0.190243
H59   H     H_    0.261241 0.090613 0.233628 0.131468
H60   H     H_    0.801372 0.341910 0.385924 0.132498
H61   H     H_    0.708703 0.865842 0.308494 0.139369
H62   H     H_    0.166261 0.340326 0.638464 0.133013
H63   H     H_    0.230856 0.911742 0.786544 0.136710
H64   H     H_    0.829373 0.658729 0.634370 0.131608
H65   H     H_    0.777065 0.089524 0.790446 0.139006
H66   H     H_    0.706981 0.161116 0.889233 0.134524
H67   H     H_    0.762403 0.592607 0.734746 0.133553
H68   H     H_    0.299649 0.841109 0.887269 0.132033
H69   H     H_    0.793987 0.113284 0.243502 0.196178
H70   H     H_    0.236056 0.408515 0.735012 0.132080
H71   H     H_    0.630175 0.780870 0.234082 0.160472
H72   H     H_    0.733615 0.411214 0.283876 0.146632
H73   H     H_    0.331502 0.159183 0.137208 0.131914
H74   H     H_    0.267404 0.589080 0.285124 0.136958
H75   H     H_    0.337288 0.198844 0.905668 0.157601
H76   H     H_    0.405879 0.227307 0.977173 0.159553
H77   H     H_    0.423434 0.143328 0.921919 0.184147
H78   H     H_    0.843620 0.336167 0.916506 0.165007
H79   H     H_    0.794913 0.366279 0.002779 0.144486
H80   H     H_    0.037038 0.313616 0.225767 0.213165
H81   H     H_    0.871771 0.423258 0.962447 0.173687
H82   H     H_    0.663395 0.802788 0.910131 0.156740
H83   H     H_    0.595928 0.769701 0.980809 0.159881
H84   H     H_    0.576500 0.856144 0.928447 0.182150
H85   H     H_    0.153113 0.657025 0.939459 0.133957
H86   H     H_    0.220242 0.637968 0.016529 0.131283
H87   H     H_    0.142738 0.571745 0.996246 0.179223
H88   H     H_    0.377556 0.797851 0.041559 0.154405
H89   H     H_    0.473484 0.762012 0.021364 0.180454
H90   H     H_    0.462322 0.852629 0.068104 0.180465
H91   H     H_    0.192600 0.881797 0.235700 0.199011
H92   H     H_    0.785245 0.613479 0.000943 0.150603
H93   H     H_    0.754770 0.512877 0.012392 0.214665
H94   H     H_    0.851255 0.542221 0.036120 0.174306
H95   H     H_    0.620563 0.199746 0.047084 0.154856
H96   H     H_    0.527009 0.238357 0.021667 0.178567
H97   H     H_    0.532970 0.148257 0.071196 0.179397
H98   H     H_    0.156463 0.343690 0.011993 0.126691
H99   H     H_    0.252643 0.338813 0.974299 0.117027
H100  H     H_    0.191148 0.419263 0.952249 0.195529
H101  H     H_    0.844942 0.702988 0.365368 0.162652
H102  H     H_    0.345666 0.869139 0.157477 0.226116
H103  H     H_    0.909920 0.715863 0.445645 0.132339
H104  H     H_    0.931168 0.646545 0.373907 0.181165
H105  H     H_    0.343839 0.840511 0.437969 0.132323
H106  H     H_    0.281696 0.867215 0.516544 0.135688
H107  H     H_    0.361147 0.928202 0.488771 0.176595
H108  H     H_    0.160390 0.302394 0.404355 0.156510
H109  H     H_    0.093085 0.271713 0.475948 0.158595
H110  H     H_    0.073196 0.356006 0.420873 0.183626
H111  H     H_    0.652359 0.157902 0.442768 0.132525
H112  H     H_    0.721954 0.142998 0.518641 0.128463
N1    N     N_R   0.425360 0.368540 0.922560 -0.104317
N2    N     N_R   0.131460 0.925360 0.422560 -0.090564
N3    N     N_R   0.074640 0.131460 0.422560 -0.105615
N4    N     N_R   0.868540 0.074640 0.422560 -0.088550
N5    N     N_R   0.925360 0.131460 0.577440 -0.109273
N6    N     N_R   0.131460 0.074640 0.577440 -0.084866
N7    N     N_R   0.074640 0.868540 0.577440 -0.108381
N8    N     N_R   0.868540 0.925360 0.577440 -0.085691
N9    N     N_R   0.425340 0.631500 0.922560 -0.078203
N10   N     N_R   0.368500 0.425340 0.922560 -0.059343
N11   N     N_R   0.574660 0.368500 0.922560 -0.076782
N12   N     N_R   0.631460 0.425360 0.922560 -0.097749
N13   N     N_R   0.631500 0.574660 0.922560 -0.076496
N14   N     N_R   0.425340 0.368500 0.077440 -0.074096
N15   N     N_R   0.368500 0.574660 0.077440 -0.064103
N16   N     N_R   0.574660 0.631500 0.077440 -0.072660
N17   N     N_R   0.631500 0.425340 0.077440 -0.076863
N18   N     N_R   0.925340 0.131500 0.422560 -0.078764
N19   N     N_R   0.868500 0.925340 0.422560 -0.060549
N20   N     N_R   0.074660 0.868500 0.422560 -0.082184
N21   N     N_R   0.131500 0.074660 0.422560 -0.060037
N22   N     N_R   0.925340 0.868500 0.577440 -0.076182
N23   N     N_R   0.574640 0.631460 0.922560 -0.100144
N24   N     N_R   0.868500 0.074660 0.577440 -0.063143
N25   N     N_R   0.074660 0.131500 0.577440 -0.076331
N26   N     N_R   0.131500 0.925340 0.577440 -0.065370
N27   N     N_R   0.368540 0.574640 0.922560 -0.088815
N28   N     N_R   0.425360 0.631460 0.077440 -0.105402
N29   N     N_R   0.631460 0.574640 0.077440 -0.101497
N30   N     N_R   0.574640 0.368540 0.077440 -0.103273
N31   N     N_R   0.368540 0.425360 0.077440 -0.084659
N32   N     N_R   0.925360 0.868540 0.422560 -0.111314
Ni1   Ni    Ni4+2 0.500000 0.369720 0.000000 0.190940
Ni2   Ni    Ni4+2 0.630280 0.500000 0.000000 0.198422
Ni3   Ni    Ni4+2 0.500000 0.630280 0.000000 0.190698
Ni4   Ni    Ni4+2 0.369720 0.500000 0.000000 0.252891
Ni5   Ni    Ni4+2 0.000000 0.869720 0.500000 0.183594
Ni6   Ni    Ni4+2 0.130280 0.000000 0.500000 0.247959
Ni7   Ni    Ni4+2 0.000000 0.130280 0.500000 0.189430
Ni8   Ni    Ni4+2 0.869720 0.000000 0.500000 0.251058
O1    O     O_3   0.441522 0.246661 0.865927 -0.648217
O2    O     O_3   0.268563 0.931509 0.416250 -0.649024
O3    O     O_3   0.056932 0.253015 0.364625 -0.646002
O4    O     O_3   0.731422 0.069888 0.424050 -0.645896
O5    O     O_3   0.940187 0.256370 0.635440 -0.630582
O6    O     O_3   0.266726 0.078525 0.561909 -0.641415
O7    O     O_3   0.054990 0.745001 0.636460 -0.630735
O8    O     O_3   0.733550 0.923483 0.559775 -0.636423
O9    O     O_3   0.768756 0.430117 0.904847 -0.660897
O10   O     O_3   0.559790 0.755381 0.868695 -0.650329
O11   O     O_3   0.231530 0.568658 0.919583 -0.649498
O12   O     O_3   0.440339 0.756745 0.134297 -0.640310
O13   O     O_3   0.767481 0.573729 0.111230 -0.664833
O14   O     O_3   0.555279 0.244556 0.135989 -0.637293
O15   O     O_3   0.233387 0.422421 0.060850 -0.640748
O16   O     O_3   0.949517 0.759703 0.342183 -0.646053

loop_
_geom_bond_atom_site_label_1
_geom_bond_atom_site_label_2
_ccdc_geom_bond_type
C36   C89   A    
C32   O7    S    
C53   H19   S    
N26   Ni6   S    
C3    H61   S    
N15   N28   A    
C34   O5    S    
C14   C128  A    
C105  C123  A    
N7    N26   A    
C38   C55   S    
C127  H59   S    
N9    Ni3   S    
N10   Ni4   S    
C31   H9    S    
N6    N25   A    
C117  C126  A    
C67   N20   A    
C94   C104  A    
C15   C127  A    
C2    C83   A    
C59   H43   S    
C23   H97   S    
N8    N22   A    
C33   H16   S    
C22   H93   S    
C19   H84   S    
C20   H87   S    
C71   H55   S    
N11   N12   A    
N4    N18   A    
C72   H56   S    
C32   H11   S    
C88   C122  S    
N3    Ni7   S    
C99   C116  A    
C14   C114  A    
C60   H44   S    
C54   C92   S    
C28   H109  S    
C66   C82   A    
C56   N9    A    
C72   N26   A    
C21   H88   S    
C4    C122  A    
C10   C111  A    
C50   H17   S    
C92   C106  A    
C15   C115  A    
C31   O6    S    
C82   C118  A    
C103  C121  A    
C79   C85   A    
C9    C110  A    
C52   N23   A    
C11   C112  A    
C126  H57   S    
C31   H8    S    
C43   C103  S    
C9    H67   S    
N16   N29   A    
N15   Ni4   S    
C83   C117  S    
C1    O1    S    
N20   Ni5   S    
C84   C119  S    
C24   N4    A    
C34   C87   A    
N18   Ni7   S    
C49   C97   S    
C71   C88   A    
C106  C124  A    
C100  C117  A    
C22   O13   S    
N12   Ni2   S    
C3    C121  A    
C69   H53   S    
C67   C83   A    
C50   H34   S    
C19   H82   S    
C6    C9    A    
C7    C8    A    
C47   H31   S    
C70   N24   A    
C48   H32   S    
C13   C84   A    
N29   Ni2   S    
C118  O16   S    
C42   H26   S    
C40   H36   S    
N13   Ni2   S    
C39   C54   S    
C104  C122  A    
N1    Ni1   S    
C46   H30   S    
C39   H23   S    
N14   N31   A    
C47   C99   S    
C40   H24   S    
C57   C73   A    
C17   H75   S    
C30   H6    S    
C19   O10   S    
C30   O5    S    
C64   H48   S    
C23   O14   S    
C49   H33   S    
N13   N23   A    
C61   N15   A    
C21   H89   S    
C25   O15   S    
C26   O16   S    
C58   N11   A    
C70   C87   A    
C15   H73   S    
C95   C103  A    
C55   H21   S    
C118  N32   A    
N31   Ni4   S    
N21   Ni6   S    
C44   H28   S    
C4    H62   S    
C45   H29   S    
C5    H63   S    
N22   Ni5   S    
C25   H99   S    
C18   H79   S    
C20   H86   S    
C32   H10   S    
C10   H68   S    
C60   C81   A    
C85   O13   S    
C21   O12   S    
C51   H35   S    
C2    N2    A    
C28   H108  S    
C23   H95   S    
C45   H80   S    
N23   Ni3   S    
C79   C113  S    
C64   N17   A    
C73   C112  S    
C54   H20   S    
C78   C116  S    
C52   C76   A    
C43   C50   S    
C26   H103  S    
N9    N27   A    
C17   H77   S    
C11   H70   S    
C92   C110  A    
C98   C115  A    
C29   H3    S    
C65   H49   S    
C29   O4    S    
C30   H4    S    
C94   C112  A    
N8    Ni8   S    
C36   N7    A    
C86   C120  S    
N3    N21   A    
C97   C114  A    
C24   C86   A    
C59   C76   A    
C119  C127  A    
C39   C106  S    
C81   C107  A    
C55   H39   S    
C27   O2    S    
C65   C86   A    
C2    O2    S    
C47   H102  S    
C33   H15   S    
C22   H94   S    
N17   Ni2   S    
C39   H25   S    
C19   H83   S    
C32   H12   S    
C107  O15   S    
C59   N13   A    
C85   N29   A    
C77   C111  S    
C55   C91   S    
C27   H106  S    
C28   H110  S    
C70   H54   S    
C49   H13   S    
C8    H66   S    
C29   H112  S    
C97   C102  A    
C17   O1    S    
C64   C80   A    
N30   Ni1   S    
C48   H2    S    
C54   H38   S    
C43   H27   S    
C16   C116  A    
N14   Ni1   S    
C26   H101  S    
N27   Ni4   S    
C107  N31   A    
C68   C84   A    
C18   H81   S    
C31   H7    S    
C44   C102  S    
C13   O3    S    
C51   H18   S    
C14   H72   S    
N7    Ni5   S    
C38   H1    S    
C41   C75   A    
C34   N5    A    
N5    Ni7   S    
C7    C125  A    
C4    C11   A    
C74   O12   S    
C45   C101  S    
C93   C111  A    
C37   C90   A    
C53   H37   S    
C102  C120  A    
C45   C48   S    
C22   H92   S    
C46   C47   S    
C35   N6    A    
C128  H60   S    
C90   C124  S    
C91   C108  A    
N1    N10   A    
C52   O10   S    
C42   C104  S    
C120  C128  A    
C69   N22   A    
C98   C101  A    
C1    C73   A    
C65   N18   A    
C67   H51   S    
C41   N12   A    
C38   C108  S    
C96   O14   S    
C76   C110  S    
C74   C78   A    
C6    H64   S    
C36   O7    S    
C57   N10   A    
C16   C126  A    
C44   C49   S    
C28   O3    S    
N32   Ni5   S    
C6    C124  A    
C62   N16   A    
C66   H50   S    
C37   N8    A    
C58   H42   S    
C42   H47   S    
C50   C95   S    
C96   N30   A    
C62   H46   S    
C25   H98   S    
N4    Ni8   S    
N6    Ni6   S    
C3    C12   A    
C93   C105  A    
C74   N28   A    
C24   O4    S    
N16   Ni3   S    
C108  C125  A    
C80   C96   A    
C82   C121  S    
C27   H107  S    
C42   C51   S    
C44   H69   S    
C71   N25   A    
C63   O11   S    
N19   Ni8   S    
C37   O8    S    
C60   N14   A    
C68   N21   A    
C58   C75   A    
C57   H41   S    
C18   O9    S    
C75   C109  S    
C53   C93   S    
C101  C119  A    
C62   C79   A    
C61   H45   S    
C66   N19   A    
N25   Ni7   S    
C89   C123  S    
C43   H58   S    
C26   H104  S    
C68   H52   S    
C56   C77   A    
C16   H74   S    
C17   H76   S    
C35   C88   A    
C99   C100  A    
C33   O8    S    
C61   C78   A    
C30   H5    S    
C81   C115  S    
C35   O6    S    
C1    N1    A    
C80   C114  S    
C21   H90   S    
C7    H65   S    
C69   C90   A    
C87   C125  S    
C12   C113  A    
C63   C77   A    
C46   C100  S    
C46   H91   S    
C20   O11   S    
N2    N20   A    
N11   Ni1   S    
C41   O9    S    
C33   H14   S    
C48   C98   S    
C5    C123  A    
C25   H100  S    
C18   H78   S    
C20   H85   S    
C91   C109  A    
C5    C10   A    
C8    C109  A    
C72   C89   A    
C13   N3    A    
C95   C113  A    
N28   Ni3   S    
N24   Ni8   S    
C12   H71   S    
C38   H22   S    
C27   H105  S    
C51   C94   S    
C23   H96   S    
C40   C53   S    
C56   H40   S    
N2    Ni6   S    
N17   N30   A    
N5    N24   A    
C63   N27   A    
C29   H111  S    
N19   N32   A    
C40   C105  S    
