data_mof_unit_14981.cif
_audit_creation_date              2012-10-26T17:46:58-0400
_audit_creation_method            fapswitch 2.2
_symmetry_space_group_name_H-M    P1
_symmetry_Int_Tables_number       1
_space_group_crystal_system       triclinic
_cell_length_a                    18.856486
_cell_length_b                    18.618273
_cell_length_c                    19.0027
_cell_angle_alpha                 109.324587
_cell_angle_beta                  110.018545
_cell_angle_gamma                 109.097358
_cell_volume                      5133.65660215

loop_
_atom_site_label
_atom_site_type_symbol
_atom_type_description
_atom_site_fract_x
_atom_site_fract_y
_atom_site_fract_z
_atom_type_partial_charge
C1    C     C_R   0.383671 0.503254 0.381825 0.541165
C2    C     C_R   0.303072 0.459230 0.025507 -0.134650
C3    C     C_R   0.118658 0.113930 0.495705 0.586320
C4    C     C_R   0.002501 0.381077 0.883697 0.569303
C5    C     C_R   0.118352 0.497775 0.116937 0.529330
C6    C     C_R   0.999070 0.619411 0.117032 0.535338
C7    C     C_R   0.881324 0.497726 0.878919 0.526970
C8    C     C_R   0.101778 0.784759 0.553614 -0.059150
C9    C     C_R   0.094457 0.789001 0.479738 -0.059222
C10   C     C_R   0.019075 0.727086 0.398542 0.046657
C11   C     C_R   0.956768 0.651684 0.390556 0.297413
C12   C     C_R   0.965832 0.648119 0.465678 -0.080657
C13   C     C_R   0.331724 0.543323 0.035940 -0.085884
C14   C     C_R   0.778725 0.729638 0.773408 -0.047128
C15   C     C_R   0.036191 0.715703 0.546786 -0.086054
C16   C     C_R   0.010272 0.680361 0.257001 -0.013402
C17   C     C_R   0.000815 0.687561 0.183956 0.041507
C18   C     C_R   0.996478 0.760113 0.178513 0.006097
C19   C     C_R   0.994310 0.819831 0.244258 -0.145864
C20   C     C_R   0.000498 0.811290 0.316227 0.032207
C21   C     C_R   0.009968 0.740791 0.323650 0.058928
C22   C     C_R   0.060708 0.863063 0.132070 -0.106894
C23   C     C_R   0.066205 0.882625 0.068679 -0.052262
C24   C     C_R   0.082904 0.266386 0.751496 0.194174
C25   C     C_R   0.010710 0.819111 0.981273 0.303569
C26   C     C_R   0.824189 0.821380 0.578034 -0.158685
C27   C     C_R   0.002717 0.189910 0.684659 -0.026742
C28   C     C_R   0.923535 0.179164 0.680834 -0.072998
C29   C     C_R   0.924455 0.240989 0.748431 0.222635
C30   C     C_R   0.004237 0.315014 0.817209 0.039676
C31   C     C_R   0.083984 0.328408 0.819381 -0.074813
C32   C     C_R   0.800188 0.125416 0.537160 -0.063662
C33   C     C_R   0.785183 0.806563 0.827560 -0.033128
C34   C     C_R   0.725833 0.056887 0.457622 0.268825
C35   C     C_R   0.691253 0.971660 0.444469 -0.021411
C36   C     C_R   0.728455 0.954882 0.510315 -0.147355
C37   C     C_R   0.802950 0.022750 0.588827 -0.111567
C38   C     C_R   0.812814 0.813889 0.498728 -0.021031
C39   C     C_R   0.839693 0.108074 0.601999 0.000531
C40   C     C_R   0.735204 0.745064 0.420746 -0.000175
C41   C     C_R   0.675078 0.680616 0.424108 -0.087266
C42   C     C_R   0.687072 0.687533 0.503286 0.003941
C43   C     C_R   0.760546 0.760510 0.581565 -0.031458
C44   C     C_R   0.947834 0.736224 0.957648 -0.097976
C45   C     C_R   0.641235 0.740273 0.286427 0.215991
C46   C     C_R   0.625913 0.740270 0.207686 0.248959
C47   C     C_R   0.680872 0.731077 0.175821 -0.120011
C48   C     C_R   0.619709 0.619357 0.501519 0.522704
C49   C     C_R   0.752136 0.725291 0.221826 -0.082864
C50   C     C_R   0.769937 0.728076 0.300586 0.266689
C51   C     C_R   0.715431 0.737552 0.334694 0.046035
C52   C     C_R   0.474278 0.787713 0.545165 0.274318
C53   C     C_R   0.405120 0.703501 0.479249 -0.016782
C54   C     C_R   0.389385 0.672277 0.394088 -0.015542
C55   C     C_R   0.941604 0.716739 0.021222 -0.125823
C56   C     C_R   0.437297 0.729845 0.374436 -0.103806
C57   C     C_R   0.502558 0.815187 0.439111 -0.119334
C58   C     C_R   0.522502 0.843600 0.524578 -0.067319
C59   C     C_R   0.252720 0.577751 0.254521 -0.113155
C60   C     C_R   0.616971 0.497822 0.618459 0.526757
C61   C     C_R   0.184049 0.496695 0.183736 0.020559
C62   C     C_R   0.178436 0.417867 0.180519 0.015861
C63   C     C_R   0.247792 0.423509 0.244810 -0.077725
C64   C     C_R   0.316219 0.504523 0.316276 0.014374
C65   C     C_R   0.317776 0.583158 0.322792 -0.017379
C66   C     C_R   0.999490 0.779377 0.109199 0.034312
C67   C     C_R   0.058221 0.267031 0.130685 0.224296
C68   C     C_R   0.002780 0.177156 0.065121 0.241825
C69   C     C_R   0.988081 0.152205 0.981125 -0.104687
C70   C     C_R   0.028711 0.213762 0.961079 0.215877
C71   C     C_R   0.085541 0.301109 0.026084 -0.081342
C72   C     C_R   0.379923 0.380873 0.498806 0.593286
C73   C     C_R   0.103657 0.328413 0.111236 -0.058568
C74   C     C_R   0.281596 0.551175 0.623544 0.229380
C75   C     C_R   0.293053 0.478022 0.602888 -0.068190
C76   C     C_R   0.234848 0.401065 0.522682 -0.071301
C77   C     C_R   0.280513 0.557914 0.974360 0.279890
C78   C     C_R   0.159173 0.395028 0.466610 -0.046497
C79   C     C_R   0.145058 0.466462 0.485712 0.242428
C80   C     C_R   0.209542 0.547705 0.562318 0.245657
C81   C     C_R   0.177977 0.251183 0.497092 -0.101699
C82   C     C_R   0.185970 0.178944 0.494544 0.020731
C83   C     C_R   0.259895 0.173568 0.497686 0.009537
C84   C     C_R   0.785743 0.869185 0.802437 -0.044032
C85   C     C_R   0.322402 0.239561 0.496073 0.218517
C86   C     C_R   0.313849 0.313213 0.499821 0.046858
C87   C     C_R   0.243245 0.321131 0.505281 -0.051307
C88   C     C_R   0.199997 0.487638 0.903678 0.027677
C89   C     C_R   0.319961 0.121237 0.597036 0.278362
C90   C     C_R   0.336537 0.056358 0.610638 0.203383
C91   C     C_R   0.317276 0.981852 0.540361 -0.054606
C92   C     C_R   0.277278 0.967700 0.456388 0.225656
C93   C     C_R   0.255094 0.028493 0.441967 -0.173189
C94   C     C_R   0.276590 0.105368 0.511967 -0.020754
C95   C     C_R   0.553942 0.570032 0.857359 -0.086360
C96   C     C_R   0.778967 0.854518 0.722769 -0.080588
C97   C     C_R   0.621719 0.570910 0.842306 -0.089600
C98   C     C_R   0.605973 0.498826 0.771420 0.043115
C99   C     C_R   0.169152 0.403589 0.894921 0.031601
C100  C     C_R   0.521893 0.425735 0.716263 -0.067396
C101  C     C_R   0.454443 0.424843 0.731940 -0.097880
C102  C     C_R   0.470420 0.496973 0.802336 -0.075877
C103  C     C_R   0.744426 0.497814 0.820038 -0.150650
C104  C     C_R   0.814243 0.496073 0.810505 0.002161
C105  C     C_R   0.819046 0.494642 0.737500 -0.023497
C106  C     C_R   0.752408 0.493779 0.674914 -0.143762
C107  C     C_R   0.682621 0.495564 0.684556 -0.000587
C108  C     C_R   0.771395 0.776762 0.667419 0.042580
C109  C     C_R   0.678616 0.498188 0.758092 -0.032638
C110  C     C_R   0.222865 0.389444 0.954682 -0.057108
C111  C     C_R   0.940691 0.557320 0.711878 -0.081774
C112  C     C_R   0.005961 0.553319 0.694447 -0.080810
C113  C     C_R   0.020653 0.482903 0.686035 -0.089792
C114  C     C_R   0.969936 0.416401 0.694951 -0.113437
C115  C     C_R   0.905455 0.420923 0.713851 -0.067127
C116  C     C_R   0.890705 0.491814 0.722943 0.039572
C117  C     C_R   0.998419 0.878501 0.381687 0.567065
C118  C     C_R   0.880862 0.881011 0.499723 0.550667
C119  C     C_R   0.001080 0.120269 0.618405 0.602447
C120  C     C_R   0.772629 0.714925 0.693904 -0.015487
Cu1   Cu    Cu3+1 0.499980 0.561800 0.561790 1.072464
Cu2   Cu    Cu3+1 0.500020 0.438200 0.438210 1.040427
Cu3   Cu    Cu3+1 0.061810 0.999960 0.561770 1.048935
Cu4   Cu    Cu3+1 0.938190 0.999990 0.438190 1.012515
Cu5   Cu    Cu3+1 0.061800 0.561770 0.999960 1.030617
Cu6   Cu    Cu3+1 0.938200 0.438190 0.000000 1.067939
H1    H     H_    0.790168 0.817782 0.889129 0.146231
H2    H     H_    0.790888 0.928887 0.844436 0.159774
H3    H     H_    0.945337 0.084107 0.930833 0.149249
H4    H     H_    0.117717 0.348055 0.010816 0.118749
H5    H     H_    0.346936 0.480787 0.650892 0.164357
H6    H     H_    0.108466 0.332837 0.409384 0.234120
H7    H     H_    0.778169 0.903070 0.703576 0.115844
H8    H     H_    0.122788 0.255921 0.499214 0.156647
H9    H     H_    0.332714 0.933945 0.551279 0.201083
H10   H     H_    0.223949 0.017843 0.377026 0.154551
H11   H     H_    0.418063 0.496285 0.814174 0.168409
H12   H     H_    0.669169 0.730115 0.115513 0.150879
H13   H     H_    0.566269 0.625779 0.911940 0.137665
H14   H     H_    0.686397 0.627556 0.885771 0.098906
H15   H     H_    0.768246 0.655272 0.652792 0.095575
H16   H     H_    0.509097 0.369208 0.662153 0.161505
H17   H     H_    0.389730 0.368346 0.689551 0.176093
H18   H     H_    0.741506 0.499520 0.876582 0.130503
H19   H     H_    0.755318 0.492465 0.618488 0.129942
H20   H     H_    0.928559 0.611005 0.716012 0.162582
H21   H     H_    0.044432 0.604364 0.686550 0.171884
H22   H     H_    0.070653 0.479376 0.671688 0.128711
H23   H     H_    0.794296 0.718913 0.196155 0.165784
H24   H     H_    0.980181 0.361009 0.686266 0.102087
H25   H     H_    0.865840 0.368531 0.719561 0.153181
H26   H     H_    0.041377 0.712838 0.604192 0.161990
H27   H     H_    0.778612 0.681529 0.793222 0.102223
H28   H     H_    0.158472 0.835032 0.616202 0.141893
H29   H     H_    0.146671 0.842643 0.486341 0.149675
H30   H     H_    0.918298 0.592601 0.461628 0.155494
H31   H     H_    0.018579 0.627059 0.262315 0.180208
H32   H     H_    0.989482 0.874938 0.240082 0.121074
H33   H     H_    0.105063 0.913305 0.199300 0.152120
H34   H     H_    0.574690 0.909451 0.574412 0.162121
H35   H     H_    0.114419 0.947187 0.087834 0.176001
H36   H     H_    0.904127 0.686546 0.890321 0.136633
H37   H     H_    0.881885 0.876492 0.637710 0.130032
H38   H     H_    0.892018 0.652906 0.001927 0.099527
H39   H     H_    0.394081 0.596625 0.091260 0.122975
H40   H     H_    0.161283 0.498419 0.855390 0.137789
H41   H     H_    0.202312 0.324267 0.946501 0.167939
H42   H     H_    0.343302 0.448021 0.072196 0.130570
H43   H     H_    0.828975 0.191536 0.547738 0.099743
H44   H     H_    0.617054 0.625781 0.364510 0.154661
H45   H     H_    0.364136 0.662488 0.494326 0.190967
H46   H     H_    0.635305 0.918382 0.382781 0.162407
H47   H     H_    0.700287 0.888922 0.499915 0.155807
H48   H     H_    0.832992 0.008689 0.638443 0.104693
H49   H     H_    0.837702 0.706936 0.386535 0.325816
H50   H     H_    0.620519 0.902977 0.777110 0.377835
H51   H     H_    0.938441 0.266612 0.203735 0.371921
H52   H     H_    0.985726 0.060364 0.186231 0.360854
H53   H     H_    0.975105 0.126000 0.840820 0.322416
H54   H     H_    0.290270 0.783277 0.646811 0.383732
H55   H     H_    0.312498 0.656037 0.722211 0.387772
H56   H     H_    0.422567 0.708958 0.308414 0.119118
H57   H     H_    0.051294 0.493161 0.461125 0.368782
H58   H     H_    0.390423 0.180079 0.485766 0.342414
H59   H     H_    0.397263 0.215371 0.716349 0.338935
H60   H     H_    0.355884 0.100044 0.727212 0.346596
H61   H     H_    0.342115 0.833158 0.336067 0.364621
H62   H     H_    0.788590 0.530347 0.160162 0.369534
H63   H     H_    0.989998 0.924648 0.851638 0.361360
H64   H     H_    0.365124 0.681623 0.034242 0.348189
H65   H     H_    0.240325 0.418715 0.768491 0.334798
H66   H     H_    0.799479 0.172948 0.705401 0.340182
H67   H     H_    0.537200 0.859398 0.422691 0.144281
H68   H     H_    0.718685 0.134122 0.410898 0.333566
H69   H     H_    0.525944 0.712426 0.267482 0.314427
H70   H     H_    0.544174 0.783250 0.200961 0.333710
H71   H     H_    0.254616 0.637635 0.257455 0.152511
H72   H     H_    0.246928 0.363615 0.240411 0.165144
O1    O     O_R   0.409800 0.552190 0.462000 -0.509529
O2    O     O_R   0.947810 0.357610 0.909840 -0.441420
O3    O     O_R   0.142370 0.552160 0.090140 -0.521158
O4    O     O_R   0.409840 0.447810 0.357640 -0.519734
O5    O     O_R   0.037990 0.447800 0.090170 -0.488121
O6    O     O_R   0.052190 0.642350 0.090120 -0.475506
O7    O     O_R   0.947800 0.537990 0.090150 -0.502799
O8    O     O_R   0.962010 0.552150 0.909780 -0.502884
O9    O     O_R   0.857630 0.447800 0.909820 -0.503660
O10   O     O_R   0.590160 0.642370 0.552180 -0.492511
O11   O     O_R   0.590190 0.537990 0.447820 -0.518296
O12   O     O_R   0.947810 0.909820 0.357620 -0.512849
O13   O     O_R   0.590160 0.552190 0.642360 -0.509502
O14   O     O_R   0.590200 0.447810 0.538000 -0.500031
O15   O     O_R   0.409810 0.462010 0.552180 -0.525110
O16   O     O_R   0.409840 0.357630 0.447820 -0.444158
O17   O     O_R   0.052200 0.909800 0.461980 -0.543307
O18   O     O_3   0.841675 0.722364 0.342492 -0.665117
O19   O     O_2   0.459437 0.877339 0.675731 -0.229814
O20   O     O_2   0.469926 0.746711 0.666617 -0.226716
O21   O     O_3   0.609862 0.886974 0.717849 -0.554994
O22   O     O_2   0.139979 0.289381 0.288011 -0.272753
O23   O     O_R   0.962020 0.909790 0.552160 -0.517647
O24   O     O_2   0.099376 0.399644 0.280081 -0.242754
O25   O     O_3   0.978356 0.248601 0.232417 -0.422726
O26   O     O_2   0.870674 0.087631 0.080295 -0.249669
O27   O     O_2   0.930544 0.005425 0.015558 -0.296894
O28   O     O_3   0.019773 0.109504 0.180891 -0.435978
O29   O     O_3   0.017139 0.189690 0.879442 -0.706051
O30   O     O_2   0.154987 0.638128 0.493733 -0.255663
O31   O     O_2   0.153104 0.652043 0.626204 -0.366491
O32   O     O_3   0.301313 0.733408 0.638162 -0.434850
O33   O     O_3   0.341230 0.623425 0.704652 -0.626677
O34   O     O_R   0.857630 0.909810 0.447800 -0.501889
O35   O     O_3   0.066721 0.453123 0.428778 -0.593337
O36   O     O_3   0.395485 0.237698 0.496646 -0.690395
O37   O     O_3   0.345737 0.200476 0.664472 -0.665232
O38   O     O_3   0.370601 0.062741 0.690693 -0.669913
O39   O     O_2   0.214765 0.794723 0.375369 -0.310966
O40   O     O_2   0.204351 0.863987 0.285195 -0.298180
O41   O     O_3   0.355893 0.888829 0.382471 -0.499245
O42   O     O_2   0.897927 0.495716 0.259066 -0.248401
O43   O     O_2   0.794299 0.515434 0.301939 -0.272861
O44   O     O_3   0.832372 0.586835 0.214329 -0.522334
O45   O     O_R   0.052190 0.090130 0.642340 -0.447468
O46   O     O_2   0.115242 0.880761 0.925304 -0.239543
O47   O     O_2   0.965303 0.764568 0.814774 -0.348715
O48   O     O_3   0.993394 0.921462 0.903619 -0.493074
O49   O     O_3   0.307352 0.639487 0.981200 -0.674203
O50   O     O_2   0.217097 0.235890 0.778261 -0.202419
O51   O     O_2   0.158747 0.255465 0.654198 -0.317853
O52   O     O_3   0.257917 0.392702 0.804500 -0.521584
O53   O     O_3   0.848616 0.233167 0.748091 -0.684998
O54   O     O_3   0.686503 0.070839 0.391480 -0.669736
O55   O     O_3   0.585328 0.742608 0.317484 -0.755591
O56   O     O_R   0.947800 0.090160 0.537980 -0.510885
O57   O     O_3   0.559857 0.751257 0.161347 -0.701587
O58   O     O_R   0.142370 0.090140 0.552150 -0.444961
O59   O     O_R   0.037980 0.090170 0.447800 -0.517422
O60   O     O_R   0.052200 0.461970 0.909800 -0.548006
S1    S     S_3+6 0.501324 0.823893 0.653472 0.045665
S2    S     S_3+6 0.071174 0.303671 0.235799 0.057888
S3    S     S_3+6 0.952974 0.091992 0.084035 0.053439
S4    S     S_3+6 0.202119 0.643881 0.578946 -0.009814
S5    S     S_3+6 0.259182 0.875142 0.371039 -0.010638
S6    S     S_3+6 0.868212 0.559320 0.289872 0.021511
S7    S     S_3+6 0.021859 0.844708 0.903005 0.009051
S8    S     S_3+6 0.180305 0.286465 0.746183 0.022799

loop_
_geom_bond_atom_site_label_1
_geom_bond_atom_site_label_2
_ccdc_geom_bond_type
C84   H2    S    
C72   O16   A    
C32   H43   S    
O32   S4    S    
Cu5   O6    S    
C93   C94   A    
C9    H29   S    
Cu3   O17   S    
O39   S5    D    
C101  H17   S    
C41   C42   A    
Cu5   O8    S    
C105  C116  S    
H62   O44   S    
C35   C36   A    
C24   C27   A    
O27   S3    D    
C52   S1    S    
C93   H10   S    
C103  H18   S    
C14   C33   A    
Cu3   O45   S    
C97   C98   A    
C57   C58   A    
C81   H8    S    
C47   C49   A    
C54   C65   S    
O31   S4    D    
C48   O11   A    
Cu3   O23   S    
H70   O57   S    
Cu5   O3    S    
H64   O49   S    
C16   C21   A    
C106  H19   S    
C56   H56   S    
O20   S1    D    
C29   O53   S    
C113  H22   S    
C92   C93   A    
C28   C29   A    
O22   S2    D    
C12   H30   S    
C55   H38   S    
C18   C19   A    
C63   H72   S    
C5    O3    A    
C30   C31   A    
C103  C109  A    
O50   S8    D    
C22   H33   S    
C45   C51   A    
Cu6   O7    S    
C115  C116  A    
C26   H37   S    
C33   H1    S    
H65   O52   S    
Cu2   O16   S    
C56   C57   A    
C34   C35   A    
C84   C96   A    
C32   C39   A    
C89   C94   A    
C117  O17   A    
C2    C13   A    
C108  C120  A    
C3    O58   A    
Cu1   O1    S    
C6    O7    A    
C78   H6    S    
C103  C104  A    
Cu3   O58   S    
C37   H48   S    
C119  O56   A    
C22   C66   A    
C62   C63   A    
C111  C112  A    
C77   C88   A    
C118  O34   A    
C16   C17   A    
O43   S6    D    
C36   C37   A    
C62   C73   S    
C111  C116  A    
C67   C73   A    
C31   C99   S    
O48   S7    S    
C8    H28   S    
C9    C10   A    
C97   H14   S    
C67   S2    S    
C95   C102  A    
C43   C108  S    
C24   S8    S    
C15   H26   S    
C23   C25   A    
C72   O15   A    
C96   C108  A    
C36   H47   S    
C98   C109  S    
C74   C80   A    
C118  O23   A    
C35   H46   S    
C107  C109  A    
O41   S5    S    
O40   S5    D    
C1    O1    A    
C44   H36   S    
O42   S6    D    
C7    O8    A    
C45   O55   S    
C1    O4    A    
C25   C44   A    
C68   S3    S    
C60   O13   A    
O30   S4    D    
C26   C43   A    
C81   C82   A    
H60   O38   S    
C10   C21   S    
H68   O54   S    
C13   C77   A    
C59   C61   A    
C34   O54   S    
C74   C75   A    
C63   C64   A    
C90   O38   S    
C67   C68   A    
C92   S5    S    
C101  C102  A    
Cu3   Cu4   S    
C80   S4    S    
C70   O29   S    
C79   O35   S    
Cu4   O56   S    
C111  H20   S    
C91   C92   A    
C71   C73   A    
C86   C87   A    
C68   C69   A    
C28   C39   S    
C50   C51   A    
C85   C86   A    
C83   C94   S    
Cu5   O60   S    
H50   O21   S    
C4    C30   S    
C85   O36   S    
C57   H67   S    
C77   O49   S    
C102  H11   S    
Cu1   O15   S    
O51   S8    D    
C75   C76   A    
C6    O6    A    
C29   C30   A    
C110  H41   S    
C13   H39   S    
O28   S3    S    
C12   C15   A    
C50   O18   S    
Cu6   O9    S    
C53   C54   A    
C88   H40   S    
H54   O32   S    
C48   O10   A    
C3    C82   S    
C17   C18   A    
C8    C9    A    
Cu2   O11   S    
C5    C61   S    
C42   C48   S    
C11   S6    S    
H51   O25   S    
C60   O14   A    
C76   C87   S    
H58   O36   S    
Cu1   Cu2   S    
C81   C87   A    
C60   C107  S    
C52   C58   A    
H57   O35   S    
C7    O9    A    
C40   C41   A    
C83   C85   A    
Cu4   O59   S    
C82   C83   A    
C8    C15   A    
C14   C120  A    
C7    C104  S    
H69   O55   S    
C14   H27   S    
Cu5   Cu6   S    
Cu6   O5    S    
Cu2   O14   S    
O21   S1    S    
C42   C43   A    
C114  H24   S    
C40   C51   S    
C1    C64   S    
C2    H42   S    
C46   O57   S    
C100  H16   S    
C55   C66   A    
C52   C53   A    
C113  C114  A    
C41   H44   S    
Cu6   O2    S    
C6    C17   S    
C46   C47   A    
C2    C110  A    
C4    O60   A    
H59   O37   S    
H63   O48   S    
C78   C79   A    
C19   H32   S    
C95   H13   S    
O47   S7    D    
C120  H15   S    
H55   O33   S    
C76   C78   A    
C74   O33   S    
C104  C105  A    
C5    O5    A    
C25   S7    S    
C11   C12   A    
C95   C97   A    
C54   C56   A    
C16   H31   S    
C96   H7    S    
C27   C119  S    
C72   C86   S    
Cu4   O34   S    
H66   O53   S    
C105  C106  A    
O52   S8    S    
C98   C100  A    
O19   S1    D    
C112  H21   S    
C49   H23   S    
O46   S7    D    
C26   C38   A    
H49   O18   S    
C89   O37   S    
C19   C20   A    
C61   C62   A    
C24   C31   A    
C37   C39   A    
C3    O59   A    
C64   C65   A    
C71   H4    S    
C38   C40   A    
C99   C110  A    
C44   C55   A    
Cu2   O4    S    
C90   C91   A    
O25   S2    S    
Cu4   O12   S    
C59   H71   S    
C47   H12   S    
C100  C101  A    
C117  O12   A    
C112  C113  A    
C114  C115  A    
Cu1   O13   S    
H53   O29   S    
C69   C70   A    
C18   C66   S    
C33   C84   A    
O24   S2    D    
H61   O41   S    
H52   O28   S    
C88   C99   A    
C70   C71   A    
C10   C11   A    
C53   H45   S    
C79   C80   A    
C38   C118  S    
C45   C46   A    
C4    O2    A    
C91   H9    S    
C20   C21   A    
C75   H5    S    
C69   H3    S    
C49   C50   A    
C106  C107  A    
C115  H25   S    
C27   C28   A    
O44   S6    S    
C22   C23   A    
C58   H34   S    
Cu1   O10   S    
C89   C90   A    
O26   S3    D    
C119  O45   A    
C59   C65   A    
C32   C34   A    
C23   H35   S    
C20   C117  S    
