data_mof_unit_8444.cif
_audit_creation_date              2012-12-11T14:08:16-0500
_audit_creation_method            fapswitch 2.2
_symmetry_space_group_name_H-M    P1
_symmetry_Int_Tables_number       1
_space_group_crystal_system       triclinic
_cell_length_a                    11.092808
_cell_length_b                    11.106868
_cell_length_c                    18.759704
_cell_angle_alpha                 89.797639
_cell_angle_beta                  89.149675
_cell_angle_gamma                 59.143196
_cell_volume                      1983.91144351

loop_
_atom_site_label
_atom_site_type_symbol
_atom_type_description
_atom_site_fract_x
_atom_site_fract_y
_atom_site_fract_z
_atom_type_partial_charge
C1    C     C_R   0.278979 0.625860 0.614982 0.605043
C2    C     C_3   0.728422 0.553219 0.796288 0.130196
C3    C     C_3   0.714154 0.700442 0.806461 -0.053514
C4    C     C_3   0.673837 0.661176 0.672929 0.076746
C5    C     C_3   0.811110 0.672819 0.677034 0.437775
C6    C     C_3   0.690046 0.537044 0.719868 0.115194
C7    C     C_2   0.682653 0.144043 0.666735 -0.072202
C8    C     C_2   0.702637 0.135469 0.822466 -0.120494
C9    C     C_2   0.815336 0.082809 0.778266 -0.151729
C10   C     C_2   0.799280 0.118972 0.701368 0.078192
C11   C     C_2   0.225822 0.640104 0.688011 -0.036711
C12   C     C_R   0.654341 0.624730 0.599959 0.634005
C13   C     C_2   0.201783 0.658057 0.842889 -0.160863
C14   C     C_2   0.204858 0.554425 0.805392 -0.155842
C15   C     C_2   0.238485 0.533668 0.729053 0.118971
C16   C     C_2   0.649589 0.635798 0.314079 -0.098346
C17   C     C_2   0.624801 0.663073 0.155737 0.236944
C18   C     C_2   0.694646 0.538713 0.189594 0.137738
C19   C     C_2   0.692464 0.525039 0.268414 0.267319
C20   C     C_2   0.670669 0.140740 0.332987 -0.123952
C21   C     C_2   0.647801 0.149631 0.178644 -0.036185
C22   C     C_2   0.568187 0.119364 0.221758 0.168145
C23   C     C_R   0.630173 0.224844 0.600559 0.591460
C24   C     C_2   0.578495 0.118927 0.298689 -0.115338
C25   C     C_2   0.112823 0.690754 0.349941 0.303556
C26   C     C_2   0.126906 0.681443 0.187395 0.184812
C27   C     C_2   0.053901 0.790301 0.232736 -0.111023
C28   C     C_2   0.097514 0.789510 0.304573 -0.134601
C29   C     C_R   0.708926 0.090013 0.895176 0.576560
C30   C     C_R   0.751225 0.710190 0.882118 0.561902
C31   C     C_R   0.120244 0.705504 0.908628 0.531191
C32   C     C_R   0.675125 0.102661 0.105487 0.584569
C33   C     C_R   0.690857 0.688138 0.093909 0.605094
C34   C     C_R   0.213896 0.653573 0.406289 0.555294
C35   C     C_R   0.089190 0.711044 0.113886 0.554097
C36   C     C_R   0.638801 0.615905 0.390475 0.554191
C37   C     C_R   0.621589 0.222950 0.397782 0.586698
C38   C     C_3   0.553670 0.816587 0.784821 0.362467
C39   C     C_3   0.536666 0.803088 0.701172 0.411427
C40   C     C_3   0.811751 0.723335 0.754670 -0.248943
Cr1   Cr    Cr6+3 0.393010 0.398050 0.501480 1.080948
Cr2   Cr    Cr6+3 0.398820 0.707980 0.501630 1.081784
Cr3   Cr    Cr6+3 0.708140 0.393940 0.496850 1.051856
Cr4   Cr    Cr6+3 0.937950 0.938450 0.008940 1.051632
Cr5   Cr    Cr6+3 0.626180 0.937030 0.994750 1.086673
Cr6   Cr    Cr6+3 0.937790 0.625760 0.001410 1.094110
H1    H     H_    0.773537 0.435324 0.697626 0.202587
H2    H     H_    0.920112 0.675029 0.774659 0.116594
H3    H     H_    0.920356 0.016936 0.798966 0.161297
H4    H     H_    0.597720 0.199603 0.802407 0.139628
H5    H     H_    0.609954 0.121661 0.693712 0.193900
H6    H     H_    0.177259 0.484220 0.831131 0.176391
H7    H     H_    0.240351 0.722097 0.820369 0.143377
H8    H     H_    0.178089 0.743773 0.710482 0.075661
H9    H     H_    0.616572 0.740740 0.296081 0.126200
H10   H     H_    0.490456 0.123414 0.327437 0.197452
H11   H     H_    0.718621 0.179487 0.200108 0.124714
H12   H     H_    0.766605 0.124815 0.308282 0.099439
H13   H     H_    0.969884 0.891079 0.213802 0.110328
H14   H     H_    0.131990 0.862620 0.316823 0.104387
H15   H     H_    0.774424 0.837033 0.754390 0.143469
H16   H     H_    0.644426 0.562059 0.832083 0.228650
O1    O     O_R   0.507110 0.256280 0.580300 -0.445796
O2    O     O_R   0.524640 0.695370 0.425100 -0.489617
O3    O     O_R   0.735890 0.504390 0.415980 -0.521144
O4    O     O_R   0.690560 0.277820 0.422350 -0.477074
O5    O     O_3   0.499990 0.499990 0.499980 -0.282783
O6    O     O_R   0.089190 0.825870 0.932320 -0.530974
O7    O     O_R   0.819070 0.053960 0.931440 -0.486177
O8    O     O_R   0.607070 0.076440 0.916460 -0.469440
O9    O     O_R   0.647110 0.806550 0.917690 -0.493211
O10   O     O_R   0.837080 0.593860 0.915300 -0.453686
O11   O     O_R   0.064770 0.636080 0.932550 -0.512830
O12   O     O_R   0.280830 0.527190 0.577940 -0.511390
O13   O     O_R   0.068250 0.829200 0.092940 -0.541059
O14   O     O_R   0.799650 0.057040 0.080330 -0.487092
O15   O     O_R   0.586130 0.079760 0.077080 -0.447481
O16   O     O_R   0.627700 0.809630 0.066580 -0.461279
O17   O     O_R   0.816140 0.597180 0.075920 -0.479228
O18   O     O_R   0.045360 0.639170 0.081440 -0.461544
O19   O     O_3   0.833980 0.833750 0.001700 -0.313797
O20   O     O_R   0.261360 0.738990 0.584270 -0.506951
O21   O     O_R   0.532590 0.694780 0.574370 -0.431998
O22   O     O_R   0.744470 0.503750 0.577000 -0.545587
O23   O     O_R   0.698520 0.277230 0.571620 -0.457000
O24   O     O_R   0.498530 0.256920 0.419280 -0.498921
O25   O     O_R   0.272880 0.527780 0.428680 -0.467934
O26   O     O_R   0.252780 0.739630 0.423250 -0.550778
Br1   Br    Br    0.500219 0.012977 0.800321 -0.554867
O27   O     O_3   0.936933 0.539148 0.667696 -0.595009
C41   C     C_3   0.985157 0.496443 0.596568 -0.042624
H17   H     H_    0.088952 0.484882 0.589128 0.174582
H18   H     H_    0.916467 0.568105 0.554412 0.136478
H19   H     H_    0.001354 0.390380 0.587759 0.176678
Br2   Br    Br    0.947652 0.132072 0.655759 -0.640424
Br3   Br    Br    0.290286 0.349662 0.695919 -0.507398
O28   O     O_3   0.461142 0.781536 0.822290 -0.561913
C42   C     C_3   0.360622 0.881615 0.870703 -0.054316
H20   H     H_    0.272213 0.969317 0.842301 0.126746
H21   H     H_    0.404492 0.923026 0.909438 0.186850
H22   H     H_    0.317092 0.829191 0.903252 0.140347
Br4   Br    Br    0.796850 0.368426 0.133236 -0.488113
O29   O     O_3   0.735914 0.392375 0.295253 -0.529575
C43   C     C_3   0.884736 0.311708 0.298212 -0.057103
H23   H     H_    0.939795 0.368019 0.281515 0.147689
H24   H     H_    0.923717 0.217093 0.264124 0.146724
H25   H     H_    0.916354 0.274160 0.353484 0.144743
O30   O     O_3   0.508757 0.779196 0.185910 -0.575294
C44   C     C_3   0.394193 0.757582 0.187224 -0.082839
H26   H     H_    0.408160 0.680176 0.228749 0.151529
H27   H     H_    0.377248 0.724423 0.134139 0.144162
H28   H     H_    0.297765 0.858119 0.201408 0.172214
Br5   Br    Br    0.416112 0.095289 0.190742 -0.377671
O31   O     O_3   0.413480 0.794462 0.692213 -0.476230
C45   C     C_3   0.286610 0.926205 0.696448 0.002242
H29   H     H_    0.246259 0.960113 0.641890 0.205636
H30   H     H_    0.294736 0.011247 0.722094 0.182119
H31   H     H_    0.208171 0.916361 0.728702 0.123009
Br6   Br    Br    0.284525 0.500639 0.211498 -0.435239
O32   O     O_3   0.063130 0.602563 0.333136 -0.521497
C46   C     C_3   0.967251 0.614599 0.386647 -0.104224
H32   H     H_    0.872040 0.721526 0.387052 0.106112
H33   H     H_    0.015161 0.588042 0.440307 0.095289
H34   H     H_    0.934554 0.538297 0.374466 0.158355
Br7   Br    Br    0.515637 0.957811 0.636204 -0.452344
O33   O     O_3   0.801541 0.772215 0.625203 -0.561131
C47   C     C_3   0.912455 0.799789 0.625347 -0.059733
H35   H     H_    0.877110 0.899479 0.596682 0.169636
H36   H     H_    0.003313 0.720070 0.594194 0.127973
H37   H     H_    0.943652 0.812325 0.679227 0.114509
O34   O     O_3   0.843581 0.428725 0.825670 -0.577464
C48   C     C_3   0.975605 0.378439 0.792873 -0.027477
H38   H     H_    0.006105 0.457582 0.792210 0.167988
H39   H     H_    0.982727 0.333333 0.739553 0.194664
H40   H     H_    0.054891 0.290921 0.825593 0.152917
O35   O     O_3   0.560767 0.539744 0.717146 -0.542643
C49   C     C_3   0.559326 0.437223 0.759779 -0.116405
H41   H     H_    0.488235 0.487609 0.806263 0.156635
H42   H     H_    0.664168 0.360577 0.779699 0.150134
H43   H     H_    0.518383 0.383815 0.727909 0.169417

loop_
_geom_bond_atom_site_label_1
_geom_bond_atom_site_label_2
_ccdc_geom_bond_type
C8    C9    D    
C7    C10   D    
O33   C47   S    
C39   Br7   S    
Cr2   O2    S    
Cr5   O9    S    
C1    C11   S    
C43   H24   S    
C30   O9    A    
Cr1   O5    S    
C25   C28   D    
Cr1   O24   S    
C49   H42   S    
C38   Br1   S    
C35   O13   A    
C26   C27   D    
C1    O12   A    
C3    C30   S    
C48   H40   S    
C38   C39   S    
C33   O16   A    
C31   O11   A    
C45   H29   S    
O28   C42   S    
C35   O18   A    
O30   C44   S    
C12   O22   A    
C17   C18   D    
C18   C19   S    
C18   Br4   S    
Cr4   O14   S    
C29   O7    A    
C46   H34   S    
C6    O35   S    
O29   C43   S    
Cr1   O12   S    
C19   O29   S    
C22   Br5   S    
C14   H6    S    
C20   C24   D    
C3    C38   S    
C48   H38   S    
C45   H30   S    
Cr2   O20   S    
C5    O33   S    
Cr5   O16   S    
C13   C14   D    
C4    C12   S    
C9    C10   S    
Cr6   O10   S    
C5    O27   S    
C25   C34   S    
C45   H31   S    
C23   O1    A    
C32   O15   A    
C21   C22   D    
Cr3   O22   S    
C2    C6    S    
C17   C33   S    
C38   O28   S    
C43   H23   S    
C21   C32   S    
O31   C45   S    
C13   H7    S    
C28   H14   S    
C16   C19   D    
C31   O6    A    
Cr1   O25   S    
C49   H43   S    
C46   H33   S    
C6    H1    S    
Cr3   O23   S    
C37   O24   A    
C9    H3    S    
C26   Br6   S    
C4    C6    S    
Cr4   O19   S    
C17   O30   S    
C41   H17   S    
C36   O3    A    
C33   O17   A    
C1    O20   A    
C40   H15   S    
C12   O21   A    
Cr4   O13   S    
C47   H36   S    
C21   H11   S    
C41   H18   S    
Cr6   O19   S    
C4    C39   S    
Cr3   O3    S    
C39   O31   S    
C37   O4    A    
C2    O34   S    
Cr4   O7    S    
C34   O26   A    
C46   H32   S    
C11   H8    S    
C48   H39   S    
C3    C40   S    
C11   C15   D    
Cr2   O5    S    
C22   C24   S    
C44   H28   S    
Cr2   O26   S    
C8    C29   S    
C20   H12   S    
C47   H35   S    
C25   O32   S    
C8    H4    S    
C15   Br3   S    
O32   C46   S    
C29   O8    A    
C40   H2    S    
Cr5   O8    S    
C13   C31   S    
Cr5   O19   S    
Cr2   O21   S    
O35   C49   S    
C32   O14   A    
C30   O10   A    
C24   H10   S    
C42   H22   S    
C49   H41   S    
C42   H21   S    
C44   H27   S    
C2    C3    S    
C47   H37   S    
C7    H5    S    
C27   H13   S    
C44   H26   S    
C16   C36   S    
C41   H19   S    
Cr6   O18   S    
C20   C37   S    
O27   C41   S    
Cr6   O17   S    
C10   Br2   S    
Cr3   O4    S    
C7    C23   S    
C34   O25   A    
Cr6   O11   S    
O34   C48   S    
C16   H9    S    
Cr4   O6    S    
C26   C35   S    
C4    C5    S    
Cr3   O5    S    
C42   H20   S    
C23   O23   A    
C5    C40   S    
C27   C28   S    
Cr1   O1    S    
C14   C15   S    
Cr5   O15   S    
C36   O2    A    
C43   H25   S    
C2    H16   S    
