data_mof_unit_29294.cif
_audit_creation_date              2013-03-05T16:19:47-0500
_audit_creation_method            fapswitch 2.2
_symmetry_space_group_name_H-M    P1
_symmetry_Int_Tables_number       1
_space_group_crystal_system       triclinic
_cell_length_a                    8.335451
_cell_length_b                    18.813247
_cell_length_c                    26.895046
_cell_angle_alpha                 99.623769
_cell_angle_beta                  92.560376
_cell_angle_gamma                 88.080377
_cell_volume                      4152.64045092

loop_
_atom_site_label
_atom_site_type_symbol
_atom_site_description
_atom_site_fract_x
_atom_site_fract_y
_atom_site_fract_z
_atom_type_partial_charge
P1    P     P_3+3 0.929380 0.335110 0.452880 0.474177
O1    O     O_2   0.106080 0.324280 0.466820 -0.364728
O2    O     O_3   0.859130 0.413620 0.470620 -0.399572
O3    O     O_3   0.376230 0.370290 0.556910 -0.389668
O4    O     O_2   0.257592 0.243656 0.517965 -0.388121
O5    O     O_3   0.923615 0.317273 0.386820 -0.548508
O6    O     O_3   0.358120 0.246175 0.611563 -0.563794
H1    H     H_    0.340127 0.352932 0.648666 0.021034
C1    C     C_3   0.307087 0.278187 0.700882 -0.848007
H2    H     H_    0.176390 0.278031 0.697281 0.229358
H3    H     H_    0.349604 0.223585 0.707003 0.294784
P2    P     P_3+3 0.398530 0.559060 0.613740 0.497806
P3    P     P_3+3 0.965029 0.417591 0.648295 0.540828
O7    O     O_2   0.227190 0.537650 0.620070 -0.377700
O8    O     O_3   0.971110 0.406970 0.583250 -0.391593
O9    O     O_2   0.133978 0.441223 0.668991 -0.432888
O10   O     O_3   0.394903 0.653335 0.630711 -0.534170
O11   O     O_3   0.946789 0.330399 0.662758 -0.473144
C2    C     C_3   0.980176 0.278015 0.619621 0.343884
H4    H     H_    0.097856 0.286943 0.605853 0.114865
H5    H     H_    0.895783 0.282855 0.587448 0.106048
C3    C     C_3   0.968187 0.200973 0.631510 -0.144702
H6    H     H_    0.965386 0.202401 0.672921 0.175107
C4    C     C_3   0.877482 0.632663 0.638174 0.307790
H7    H     H_    0.748747 0.622999 0.642446 0.068601
H8    H     H_    0.937662 0.582957 0.618745 0.123786
C5    C     C_3   0.959045 0.653173 0.690278 -0.688532
H9    H     H_    0.906691 0.704829 0.709876 0.275167
H10   H     H_    0.944210 0.611434 0.713954 0.184209
H11   H     H_    0.089724 0.659167 0.686519 0.287122
Ba1   Ba    Ba6+2 0.160810 0.465630 0.521640 1.595009
C6    C     C_3   0.965446 0.378467 0.367615 0.427838
H12   H     H_    0.088473 0.394103 0.381056 0.092409
H13   H     H_    0.880049 0.424184 0.378981 0.116905
C7    C     C_3   0.958994 0.360065 0.310244 -0.844439
H14   H     H_    0.046433 0.315681 0.297615 0.301620
H15   H     H_    0.988694 0.407288 0.293162 0.201291
H16   H     H_    0.836326 0.342988 0.296532 0.264014
C8    C     C_3   0.340418 0.685997 0.589638 0.260130
H17   H     H_    0.209281 0.679692 0.583793 0.085759
H18   H     H_    0.400286 0.662245 0.554415 0.108264
C9    C     C_3   0.381295 0.766159 0.600326 -0.122180
H19   H     H_    0.362660 0.789316 0.565155 0.070994
H20   H     H_    0.510335 0.771080 0.612155 0.141817
P4    P     P_3+3 0.880940 0.664900 0.547160 0.482020
O12   O     O_2   0.704230 0.675760 0.533200 -0.376253
O13   O     O_3   0.951180 0.586390 0.529420 -0.404263
O14   O     O_3   0.434080 0.629720 0.443130 -0.380105
O15   O     O_3   0.888200 0.691115 0.612825 -0.535704
P5    P     P_3+3 0.837721 0.592295 0.351897 0.498522
O16   O     O_3   0.351080 0.462080 0.440130 -0.390933
O17   O     O_3   0.839200 0.593040 0.416790 -0.356199
O18   O     O_2   0.692586 0.546849 0.329817 -0.323606
O19   O     O_3   0.776422 0.678241 0.340989 -0.514404
Ba2   Ba    Ba6+2 0.649380 0.534380 0.478400 1.580603
P6    P     P_3+3 0.395371 0.276287 0.553906 0.484278
C10   C     C_3   0.384437 0.299076 0.654847 0.971693
H21   H     H_    0.336658 0.317743 0.735365 0.236739
O20   O     O_3   0.459240 0.537930 0.559910 -0.400509
C11   C     C_3   0.468114 0.313547 0.397280 0.228077
H22   H     H_    0.577868 0.340116 0.415569 0.039479
H23   H     H_    0.375369 0.316073 0.425869 0.115037
C12   C     C_3   0.513515 0.234437 0.378345 0.167557
H24   H     H_    0.626861 0.231337 0.357754 0.112986
H25   H     H_    0.534617 0.206177 0.411234 0.016497
P7    P     P_3+3 0.401921 0.440376 0.376656 0.467677
O21   O     O_2   0.583120 0.462390 0.379940 -0.353403
O22   O     O_3   0.408605 0.346899 0.356915 -0.525037
H26   H     H_    0.855200 0.176934 0.613975 0.168519
C13   C     C_3   0.904503 0.725479 0.351845 0.143497
H27   H     H_    0.969281 0.719372 0.388026 0.055347
H28   H     H_    0.988944 0.714353 0.320500 0.099741
C14   C     C_3   0.837209 0.803071 0.356568 0.215680
H29   H     H_    0.815618 0.824999 0.396769 0.066667
H30   H     H_    0.720462 0.804418 0.335046 0.149985
P8    P     P_3+3 0.413517 0.722615 0.445351 0.444968
C15   C     C_3   0.372086 0.693028 0.349079 0.513449
H31   H     H_    0.242178 0.693954 0.356505 -0.006031
O23   O     O_2   0.552837 0.756927 0.479918 -0.399482
O24   O     O_3   0.454159 0.742058 0.385819 -0.506644
H32   H     H_    0.422698 0.637502 0.348407 0.132070
H33   H     H_    0.312569 0.680692 0.268816 0.200703
C16   C     C_3   0.391544 0.713634 0.297333 -0.849737
H34   H     H_    0.517786 0.704142 0.285979 0.280720
H35   H     H_    0.358767 0.771396 0.297987 0.283323
C17   C     C_R   0.984098 0.046043 0.471855 0.093962
C18   C     C_R   0.059359 0.094082 0.445708 -0.109677
C19   C     C_R   0.200570 0.951654 0.455966 -0.094364
C20   C     C_R   0.047889 0.975144 0.474087 0.071732
C21   C     C_R   0.258104 0.881394 0.456177 -0.062386
C22   C     C_R   0.165800 0.830826 0.474009 -0.010575
C23   C     C_R   0.018763 0.854273 0.496657 -0.001444
C24   C     C_R   0.960188 0.926856 0.497143 0.043166
C25   C     C_R   0.217176 0.757770 0.470585 0.138418
C26   C     C_R   0.120582 0.709033 0.488868 -0.535629
C27   C     C_R   0.982470 0.731967 0.515395 0.281256
C28   C     C_R   0.932598 0.805855 0.520142 -0.030866
C29   C     C_R   0.839413 0.069970 0.496024 0.087038
C30   C     C_R   0.782478 0.143057 0.497502 0.018080
C31   C     C_R   0.870675 0.192082 0.475205 -0.053862
C32   C     C_R   0.004087 0.165072 0.447535 -0.015765
H36   H     H_    0.159590 0.653087 0.485502 0.176807
H37   H     H_    0.375063 0.867119 0.441126 0.173432
H38   H     H_    0.068990 0.198521 0.427130 0.200915
C33   C     C_R   0.800975 0.833413 0.548473 -0.015031
C34   C     C_R   0.742405 0.903472 0.548546 -0.173939
C35   C     C_R   0.815391 0.950724 0.521218 0.051508
C36   C     C_R   0.752481 0.021828 0.519430 0.037841
C37   C     C_R   0.602883 0.046204 0.539417 -0.186362
C38   C     C_R   0.637325 0.166928 0.521226 -0.076903
C39   C     C_R   0.547357 0.116819 0.540311 -0.054301
C40   C     C_R   0.586178 0.240100 0.525026 0.269933
C41   C     C_R   0.681667 0.288727 0.506343 -0.499825
C42   C     C_R   0.821829 0.266223 0.480897 0.189625
H39   H     H_    0.740313 0.801333 0.571037 0.156223
H40   H     H_    0.432526 0.131251 0.556435 0.231173
H41   H     H_    0.643429 0.344808 0.510226 0.185086
H42   H     H_    0.280561 0.986769 0.441848 0.132351
H43   H     H_    0.161795 0.078270 0.423017 0.149523
H44   H     H_    0.640822 0.919446 0.571605 0.146072
H45   H     H_    0.523404 0.011522 0.554132 0.156960
C43   C     C_R   0.419622 0.533584 0.190632 0.539244
O25   O     O_2   0.525269 0.531755 0.223416 -0.563804
N1    N     N_R   0.259044 0.539400 0.203124 -0.166565
C44   C     C_R   0.143507 0.550060 0.165784 0.591443
C45   C     C_2   0.080083 0.569015 0.275259 -0.246418
C46   C     C_3   0.022261 0.547589 0.322522 0.187115
C47   C     C_1   0.281467 0.491723 0.335609 0.252171
C48   C     C_2   0.310848 0.487886 0.286878 -0.143260
C49   C     C_2   0.212921 0.533749 0.254465 0.103189
C50   C     C_R   0.346212 0.543001 0.103090 -0.066584
C51   C     C_R   0.463304 0.530740 0.140122 -0.065915
C52   C     C_R   0.622920 0.519740 0.126249 -0.043208
C53   C     C_R   0.188195 0.558592 0.117324 -0.079543
C54   C     C_2   0.159942 0.530915 0.356913 -0.533574
H46   H     H_    0.396896 0.447697 0.269624 0.177243
H47   H     H_    0.717503 0.513932 0.154247 0.222370
C55   C     C_2   0.658607 0.480620 0.637328 -0.282579
C56   C     C_R   0.580897 0.504101 0.985025 -0.113553
C57   C     C_R   0.315401 0.558264 0.965531 0.068448
C58   C     C_R   0.469395 0.530327 0.950047 0.088304
C59   C     C_R   0.719213 0.462840 0.965197 0.459344
C60   C     C_R   0.754202 0.459817 0.914577 -0.139234
C61   C     C_R   0.650807 0.489974 0.880913 -0.102676
C62   C     C_R   0.508645 0.525679 0.898405 -0.079425
C63   C     C_R   0.404062 0.555424 0.864034 -0.212773
C64   C     C_R   0.455743 0.556578 0.814624 0.579641
N2    N     N_R   0.588810 0.515668 0.796276 -0.172273
C65   C     C_R   0.681572 0.479771 0.828995 0.671386
C66   C     C_2   0.777098 0.497717 0.726145 -0.082358
C67   C     C_3   0.809670 0.488101 0.670490 0.099671
C68   C     C_1   0.524720 0.511110 0.655572 0.225254
C69   C     C_2   0.490978 0.509006 0.702868 -0.158303
C70   C     C_2   0.624332 0.507962 0.742520 0.130914
O26   O     O_2   0.788438 0.437232 0.812936 -0.538779
C71   C     C_R   0.544503 0.517855 0.037215 0.099884
C72   C     C_R   0.387510 0.541184 0.052025 0.072919
C73   C     C_R   0.274198 0.565787 0.017177 -0.070432
C74   C     C_R   0.662550 0.515148 0.076026 -0.071402
H48   H     H_    0.880333 0.501473 0.752232 0.196311
H49   H     H_    0.861662 0.430522 0.900675 0.220074
H50   H     H_    0.787596 0.511931 0.068436 0.185255
O27   O     O_2   0.000827 0.550656 0.174138 -0.610342
C75   C     C_R   0.080475 0.587355 0.084121 -0.158132
H51   H     H_    0.010096 0.608045 0.257552 0.193943
H52   H     H_    0.964808 0.608710 0.097425 0.188070
C76   C     C_R   0.202574 0.571629 0.927604 -0.189067
C77   C     C_R   0.247768 0.578163 0.879333 0.422011
O28   O     O_2   0.383723 0.594909 0.788216 -0.528589
C78   C     C_R   0.128181 0.599514 0.037123 0.459272
H53   H     H_    0.076864 0.577723 0.934734 0.208217
H54   H     H_    0.367858 0.503689 0.712417 0.189864
H55   H     H_    0.153348 0.546376 0.397545 0.178642
H56   H     H_    0.664335 0.456763 0.597758 0.171439
N3    N     N_R   0.284959 0.808600 0.639409 0.282687
O29   O     O_R   0.309010 0.877333 0.651836 -0.322583
O30   O     O_R   0.173174 0.779845 0.661179 -0.331305
S1    S     S_3+6 0.589459 0.301711 0.669835 -0.053247
O31   O     O_2   0.661728 0.327964 0.626815 -0.373978
O32   O     O_2   0.624472 0.352161 0.718197 -0.310964
O33   O     O_3   0.653740 0.217816 0.675493 -0.542235
H57   H     H_    0.711683 0.222329 0.708959 0.381399
S2    S     S_3+6 0.361064 0.188526 0.337329 0.028907
O34   O     O_2   0.198697 0.221974 0.349940 -0.298895
O35   O     O_2   0.394086 0.193753 0.283593 -0.196664
O36   O     O_3   0.363852 0.101305 0.344262 -0.511416
H58   H     H_    0.261455 0.082274 0.327997 0.387007
S3    S     S_3+6 0.969512 0.860201 0.332103 -0.037818
O37   O     O_2   0.920253 0.937737 0.348924 -0.241212
O38   O     O_2   0.138669 0.847611 0.350883 -0.350157
O39   O     O_3   0.958565 0.841257 0.268677 -0.480127
H59   H     H_    0.070245 0.844242 0.257893 0.381278
S4    S     S_3+6 0.835590 0.400134 0.995955 -0.030972
O40   O     O_2   0.981470 0.436248 0.022330 -0.333428
O41   O     O_2   0.738042 0.370415 0.033085 -0.247178
O42   O     O_3   0.899619 0.330814 0.952815 -0.493180
H60   H     H_    0.970641 0.301106 0.972112 0.400473
N4    N     N_R   0.101203 0.153937 0.611889 0.258785
O43   O     O_R   0.189337 0.119979 0.642013 -0.331313
O44   O     O_R   0.119383 0.138307 0.563605 -0.409490
N5    N     N_R   0.129343 0.604223 0.845965 0.258600
O45   O     O_R   0.142394 0.668643 0.835190 -0.280821
O46   O     O_R   0.989826 0.574111 0.838986 -0.427989
S5    S     S_3+6 0.023139 0.672716 0.014618 -0.018845
O47   O     O_2   0.872641 0.645862 0.985467 -0.301849
O48   O     O_2   0.976197 0.728150 0.058986 -0.231943
O49   O     O_3   0.138538 0.712634 0.978173 -0.494315
H61   H     H_    0.069361 0.751759 0.967583 0.407369

loop_
_geom_bond_atom_site_label_1
_geom_bond_atom_site_label_2
_geom_bond_distance
_ccdc_geom_bond_type
C44   C53   1.407299 A    
O14   Ba2   2.745694 S    
P7    O22   1.749728 S    
C12   H25   1.110447 S    
C52   H47   1.081302 S    
C45   C46   1.499858 S    
Ba2   O20   2.752555 S    
C5    H10   1.103662 S    
C14   H30   1.111584 S    
N5    O45   1.301410 A    
O14   P8    1.741605 S    
O4    P6    1.542667 D    
C75   C78   1.398527 A    
C26   C27   1.399158 A    
P8    O23   1.543599 D    
O7    Ba1   2.805374 S    
C45   H51   1.081523 S    
C47   C48   1.333715 D    
S1    O31   1.489563 D    
C21   C22   1.400581 A    
C8    H18   1.109922 S    
P4    O12   1.519339 D    
C77   N5    1.433783 S    
P5    O19   1.746831 S    
C66   H48   1.082273 S    
P3    O11   1.760861 S    
C11   H22   1.112199 S    
S3    O39   1.682347 S    
C54   H55   1.086214 S    
S3    O38   1.501103 D    
C71   C72   1.418932 A    
C7    H15   1.105891 S    
C46   C54   1.499690 S    
C63   C64   1.418934 A    
C9    N3    1.462555 S    
C37   C39   1.388818 A    
O10   C8    1.402678 S    
C10   S1    1.738657 S    
C56   C59   1.439698 A    
C34   C35   1.412517 A    
C15   C16   1.522574 S    
C60   C61   1.397746 A    
P1    Ba1   3.413365 S    
C29   C36   1.420202 A    
C36   C37   1.411856 A    
C11   H23   1.108854 S    
P1    O1    1.519056 D    
C14   H29   1.111260 S    
Ba1   O20   2.937220 S    
C50   C72   1.425358 A    
P2    C68   1.831937 S    
C38   C39   1.399333 A    
C23   C24   1.432884 A    
C41   C42   1.397848 A    
C64   N2    1.389554 Am   
C57   C73   1.428637 A    
C18   C32   1.391852 A    
P2    O20   1.539373 S    
O2    Ba2   2.805290 S    
C72   C73   1.421751 A    
C2    H4    1.091713 S    
C9    H19   1.108527 S    
P7    C47   1.831000 S    
C51   C52   1.397245 A    
O5    C6    1.398413 S    
O12   Ba2   2.857695 S    
C55   H56   1.086150 S    
P5    O17   1.742513 S    
C35   C36   1.427937 A    
C4    C5    1.525292 S    
N4    O43   1.301023 A    
C15   H32   1.111029 S    
C1    H2    1.089452 S    
C3    H26   1.109707 S    
C78   S5    1.783299 S    
S4    O40   1.503504 D    
C26   H36   1.081459 S    
C58   C62   1.428915 A    
C28   C33   1.399134 A    
C50   C53   1.396092 A    
C57   C76   1.404424 A    
P7    O21   1.574265 D    
C76   C77   1.393797 A    
Ba1   O13   2.804691 S    
O3    P6    1.758991 S    
C5    H11   1.109649 S    
S5    O47   1.505238 D    
N5    O46   1.302946 A    
C44   O27   1.219503 D    
C9    H20   1.110388 S    
O6    P6    1.780574 S    
C43   C51   1.414026 A    
C40   C41   1.400394 A    
C3    N4    1.456443 S    
C23   C28   1.421730 A    
C62   C63   1.412785 A    
C8    C9    1.534237 S    
C38   C40   1.415900 A    
P4    O13   1.575892 S    
P5    O18   1.543539 D    
C12   S2    1.790932 S    
O39   H59   0.993432 S    
O3    Ba1   2.746309 S    
C6    C7    1.522747 S    
C7    H16   1.110600 S    
C31   C42   1.425096 A    
C4    H7    1.108499 S    
P3    C67   1.866062 S    
N3    O30   1.300800 A    
C47   C54   1.326120 D    
C22   C23   1.417179 A    
C17   C18   1.412378 A    
C73   C78   1.436852 A    
C76   H53   1.072589 S    
O16   Ba2   2.936302 S    
C55   C68   1.314235 D    
O33   H57   0.994472 S    
C30   C38   1.417562 A    
C2    H5    1.104329 S    
C13   H28   1.110889 S    
O49   H61   0.991164 S    
O1    Ba1   2.857240 S    
C52   C74   1.392841 A    
O16   P7    1.755163 S    
C6    H13   1.109243 S    
P2    O10   1.755535 S    
S2    O34   1.501769 D    
C18   H43   1.076489 S    
C61   C65   1.411177 A    
H1    C10   1.102912 S    
C48   H46   1.085151 S    
Ba2   O21   2.805709 S    
C16   H34   1.109195 S    
O19   C13   1.401360 S    
S5    O49   1.681892 S    
P4    O15   1.751315 S    
S4    O42   1.683619 S    
C27   C28   1.424105 A    
C2    C3    1.542893 S    
C13   C14   1.533348 S    
S4    O41   1.503544 D    
C74   H50   1.068844 S    
N1    C49   1.471413 S    
C57   C58   1.423625 A    
O2    Ba1   2.927688 S    
C1    H3    1.111243 S    
P4    Ba2   3.413978 S    
C13   H27   1.112627 S    
C41   H41   1.081332 S    
C16   H35   1.109056 S    
S5    O48   1.504305 D    
H33   C16   1.108582 S    
C32   H38   1.074548 S    
P3    O8    1.730085 S    
P2    Ba1   3.389792 S    
C11   C12   1.530914 S    
S2    O36   1.681450 S    
P1    C42   1.875052 S    
C19   H42   1.077577 S    
C50   C51   1.404515 A    
C8    H17   1.104860 S    
C14   S3    1.784648 S    
O13   Ba2   2.928536 S    
C48   C49   1.520343 S    
C15   O24   1.404424 S    
C4    O15   1.394558 S    
N2    C70   1.471129 S    
C63   C77   1.414655 A    
C1    H21   1.111654 S    
C19   C21   1.391767 A    
P1    O5    1.750894 S    
C34   H44   1.076775 S    
C59   C60   1.396516 A    
C33   H39   1.076355 S    
C71   C74   1.408201 A    
P8    O24   1.750632 S    
Ba1   O16   2.753220 S    
O42   H60   0.989734 S    
C17   C20   1.428937 A    
S1    O32   1.499908 D    
O17   Ba2   2.725745 S    
O8    Ba1   2.725119 S    
P5    C46   1.870139 S    
P8    C25   1.858243 S    
C55   C67   1.506780 S    
C33   C34   1.389857 A    
C66   C67   1.513099 S    
C30   C31   1.421432 A    
C61   C62   1.402697 A    
C39   H40   1.076219 S    
Ba1   Ba2   4.570464 S    
C6    H12   1.104704 S    
C75   H52   1.084342 S    
C65   O26   1.221280 D    
N3    O29   1.300332 A    
C24   C35   1.419128 A    
C22   C25   1.415154 A    
C56   C58   1.427801 A    
C4    H8    1.108049 S    
C37   H45   1.077031 S    
C3    H6    1.110867 S    
C56   C71   1.428489 A    
C69   H54   1.080822 S    
P6    C40   1.859417 S    
C31   C32   1.399393 A    
C59   S4    1.787461 S    
C53   C75   1.397802 A    
C1    C10   1.534277 S    
N2    C65   1.389679 Am   
C20   C24   1.420404 A    
C25   C26   1.402279 A    
C17   C29   1.419666 A    
O6    C10   1.413598 S    
C21   H37   1.080637 S    
C7    H14   1.109207 S    
S1    O33   1.678627 S    
C12   H24   1.111292 S    
P2    O7    1.521236 D    
C19   C20   1.413577 A    
C11   O22   1.406106 S    
S2    O35   1.503001 D    
C29   C30   1.434267 A    
C66   C70   1.363045 D    
P3    O9    1.542683 D    
C5    H9    1.110647 S    
C43   O25   1.221813 D    
O11   C2    1.422268 S    
C45   C49   1.364202 D    
C15   H31   1.108889 S    
S3    O37   1.502306 D    
N4    O44   1.297210 A    
C68   C69   1.322222 D    
P1    O2    1.575921 S    
O36   H58   0.991373 S    
P4    C27   1.880071 S    
C43   N1    1.390850 Am   
C60   H49   1.083429 S    
C64   O28   1.220248 D    
N1    C44   1.394350 Am   
C69   C70   1.507618 S    
