data_mof_unit_38693.cif
_audit_creation_date              2012-12-10T18:19:50-0500
_audit_creation_method            fapswitch 2.2
_symmetry_space_group_name_H-M    P1
_symmetry_Int_Tables_number       1
_space_group_crystal_system       triclinic
_cell_length_a                    14.965729
_cell_length_b                    14.023545
_cell_length_c                    14.151104
_cell_angle_alpha                 90.164085
_cell_angle_beta                  89.228023
_cell_angle_gamma                 89.039448
_cell_volume                      2969.22755889

loop_
_atom_site_label
_atom_site_type_symbol
_atom_type_description
_atom_site_fract_x
_atom_site_fract_y
_atom_site_fract_z
_atom_type_partial_charge
C1    C     C_R   0.326648 0.500726 0.502333 0.876736
C2    C     C_R   0.958492 0.364779 0.383777 -0.145850
C3    C     C_R   0.532752 0.797464 0.423011 -0.055621
C4    C     C_R   0.467840 0.202512 0.577158 -0.043217
C5    C     C_R   0.468519 0.799147 0.577385 -0.042465
C6    C     C_R   0.532180 0.200900 0.422792 -0.055607
C7    C     C_R   0.468022 0.899750 0.579324 0.013381
C8    C     C_R   0.533591 0.100325 0.421128 0.019180
C9    C     C_R   0.533785 0.898065 0.421190 0.014463
C10   C     C_R   0.467584 0.101971 0.579149 0.014356
C11   C     C_R   0.500728 0.949449 0.500169 0.085462
C12   C     C_R   0.673123 0.498853 0.496933 0.886392
C13   C     C_R   0.500664 0.050595 0.500149 0.087900
C14   C     C_R   0.436025 0.951659 0.658249 -0.204109
C15   C     C_R   0.566961 0.048540 0.342699 -0.214072
C16   C     C_R   0.567044 0.948291 0.342731 -0.205785
C17   C     C_R   0.435463 0.051815 0.658051 -0.206319
C18   C     C_R   0.499520 0.499933 0.329037 0.889263
C19   C     C_R   0.500733 0.500016 0.670956 0.876553
C20   C     C_1   0.498350 0.499950 0.227660 -0.191572
C21   C     C_1   0.501586 0.499790 0.772357 -0.213489
C22   C     C_1   0.498049 0.500009 0.142451 -0.012075
C23   C     C_R   0.952794 0.475686 0.518185 -0.077693
C24   C     C_1   0.501381 0.499519 0.857577 -0.019970
C25   C     C_1   0.498891 0.499843 0.042621 -0.010239
C26   C     C_1   0.500104 0.499631 0.957404 -0.002636
C27   C     C_R   0.817692 0.448930 0.429899 -0.083261
C28   C     C_R   0.183282 0.544000 0.580138 -0.103698
C29   C     C_R   0.768559 0.493467 0.503262 -0.230099
C30   C     C_R   0.230381 0.500295 0.504553 -0.260368
C31   C     C_R   0.809211 0.523977 0.586693 0.390664
C32   C     C_R   0.187400 0.444440 0.436984 0.435496
C33   C     C_R   0.902806 0.523904 0.590265 -0.021561
C34   C     C_R   0.046534 0.476763 0.519105 -0.092712
C35   C     C_R   0.095672 0.429152 0.446319 0.016813
C36   C     C_R   0.777524 0.440403 0.334460 0.123809
C37   C     C_R   0.715858 0.369007 0.314056 -0.098561
C38   C     C_R   0.683297 0.358826 0.222539 -0.143075
C39   C     C_R   0.711364 0.420342 0.150968 -0.100869
C40   C     C_R   0.771457 0.492596 0.170984 -0.144841
C41   C     C_R   0.804595 0.502591 0.262312 -0.168549
C42   C     C_R   0.228245 0.616676 0.638675 0.161880
C43   C     C_R   0.287508 0.589299 0.710104 -0.114659
C44   C     C_R   0.321036 0.657832 0.771601 -0.113741
C45   C     C_R   0.909129 0.428964 0.443196 0.010048
C46   C     C_R   0.297643 0.753916 0.760594 -0.155031
C47   C     C_R   0.242176 0.782164 0.686775 -0.164464
C48   C     C_R   0.207334 0.713802 0.626025 -0.136470
C49   C     C_R   0.081587 0.576945 0.764940 0.200452
C50   C     C_R   0.076224 0.667291 0.808176 -0.055833
C51   C     C_R   0.112438 0.681302 0.897618 -0.136980
C52   C     C_R   0.153429 0.605250 0.944838 -0.109570
C53   C     C_R   0.157891 0.514915 0.902905 -0.143287
C54   C     C_R   0.121701 0.500544 0.813495 -0.159596
C55   C     C_R   0.913189 0.291333 0.326641 0.117638
C56   C     C_R   0.090881 0.527136 0.591338 -0.024908
C57   C     C_R   0.919232 0.292374 0.227445 -0.109300
C58   C     C_R   0.877051 0.222304 0.174462 -0.123893
C59   C     C_R   0.829203 0.150593 0.220023 -0.120661
C60   C     C_R   0.823905 0.148432 0.318686 -0.157725
C61   C     C_R   0.866112 0.218247 0.371988 -0.161898
C62   C     C_R   0.947605 0.564848 0.667368 0.407080
C63   C     C_R   0.052559 0.364988 0.385749 0.428482
C64   C     C_R   0.040679 0.559864 0.671423 -0.103305
H1    H     H_    0.558278 0.756898 0.363033 0.136781
H2    H     H_    0.637034 0.302623 0.206873 0.126487
H3    H     H_    0.686531 0.412023 0.080005 0.141010
H4    H     H_    0.793026 0.540295 0.115516 0.148001
H5    H     H_    0.852224 0.557931 0.276656 0.136567
H6    H     H_    0.304082 0.514691 0.720797 0.104265
H7    H     H_    0.363567 0.636495 0.829167 0.140279
H8    H     H_    0.322489 0.806359 0.809425 0.124328
H9    H     H_    0.224751 0.856767 0.677824 0.140722
H10   H     H_    0.162154 0.736070 0.570849 0.128340
H11   H     H_    0.699416 0.525120 0.664317 0.329285
H12   H     H_    0.442313 0.243023 0.637173 0.133087
H13   H     H_    0.284284 0.449178 0.342698 0.313543
H14   H     H_    0.869910 0.664237 0.713206 0.355568
H15   H     H_    0.070447 0.243619 0.317842 0.332807
H16   H     H_    0.044876 0.726831 0.772157 0.122376
H17   H     H_    0.108946 0.751197 0.930200 0.127501
H18   H     H_    0.181655 0.616292 0.013946 0.133142
H19   H     H_    0.189425 0.456024 0.939659 0.141459
H20   H     H_    0.125225 0.430143 0.781848 0.130290
H21   H     H_    0.955807 0.347859 0.191497 0.147114
H22   H     H_    0.881118 0.223846 0.098074 0.132521
H23   H     H_    0.444200 0.759810 0.637692 0.154953
H24   H     H_    0.796223 0.096706 0.178888 0.124886
H25   H     H_    0.786843 0.092867 0.353846 0.141856
H26   H     H_    0.861535 0.215980 0.448395 0.139153
H27   H     H_    0.556326 0.240063 0.362227 0.122501
H28   H     H_    0.411670 0.914996 0.720281 0.138577
H29   H     H_    0.593003 0.085540 0.281387 0.138373
H30   H     H_    0.593039 0.910080 0.281379 0.141495
H31   H     H_    0.410147 0.090008 0.719722 0.141059
H32   H     H_    0.696198 0.318759 0.367884 0.146794
N1    N     N_R   0.500000 0.750030 0.500000 -0.097312
N2    N     N_R   0.500000 0.249970 0.500000 -0.093622
O1    O     O_R   0.367850 0.580280 0.500020 -0.602349
O2    O     O_3   0.233167 0.407984 0.358688 -0.681510
O3    O     O_3   0.901906 0.608746 0.741045 -0.716533
O4    O     O_3   0.104148 0.301925 0.331644 -0.696066
O5    O     O_R   0.632150 0.419720 0.499980 -0.624592
O6    O     O_R   0.632150 0.580280 0.499980 -0.592730
O7    O     O_R   0.367850 0.419720 0.500020 -0.582962
O8    O     O_R   0.500000 0.580290 0.373720 -0.609966
O9    O     O_R   0.500000 0.419710 0.626280 -0.610109
O10   O     O_R   0.500000 0.580290 0.626280 -0.595896
O11   O     O_R   0.500000 0.419710 0.373720 -0.602115
O12   O     O_3   0.759187 0.554118 0.664660 -0.734938
Zn1   Zn    Zn3+2 0.500000 0.607200 0.500000 0.958139
Zn2   Zn    Zn3+2 0.500000 0.392800 0.500000 0.951030

loop_
_geom_bond_atom_site_label_1
_geom_bond_atom_site_label_2
_ccdc_geom_bond_type
C34   C56   A    
C8    C13   A    
C23   C45   A    
C4    N2    A    
C12   C29   S    
C27   C29   A    
O9    Zn2   S    
C18   O11   A    
C1    O1    A    
C54   H20   S    
C28   C56   A    
C60   H25   S    
C52   C53   A    
C7    C11   A    
C44   H7    S    
C6    N2    A    
C36   C37   A    
C19   C21   S    
C9    C16   A    
C24   C26   S    
C12   O6    A    
C2    C55   S    
C38   C39   A    
N1    Zn1   S    
C10   C17   A    
C49   C54   A    
H13   O2    S    
C34   C35   A    
C59   H24   S    
C62   C64   A    
C46   C47   A    
C7    C14   A    
C38   H2    S    
C33   C62   A    
C23   C33   A    
C22   C25   S    
C56   C64   A    
H15   O4    S    
C17   H31   S    
C51   H17   S    
C46   H8    S    
C62   O3    S    
C19   O10   A    
C27   C45   A    
C59   C60   A    
C49   C64   S    
H14   O3    S    
C14   C17   A    
C36   C41   A    
C3    H1    S    
C63   O4    S    
C58   H22   S    
C44   C46   A    
O8    Zn1   S    
C2    C45   A    
N2    Zn2   S    
C15   C16   A    
C51   C52   A    
C32   C35   A    
C48   H10   S    
C47   H9    S    
C12   O5    A    
O11   Zn2   S    
C39   C40   A    
C5    C7    A    
C6    C8    A    
C58   C59   A    
C53   C54   A    
C32   O2    S    
C37   H32   S    
O5    Zn2   S    
C43   C44   A    
C18   O8    A    
C37   C38   A    
C3    C9    A    
C3    N1    A    
C47   C48   A    
C23   C34   A    
O1    Zn1   S    
C31   C33   A    
C50   C51   A    
C42   C48   A    
C52   H18   S    
C9    C11   A    
C14   H28   S    
C40   C41   A    
O7    Zn2   S    
C20   C22   T    
C8    C15   A    
C55   C57   A    
C42   C43   A    
C4    C10   A    
C61   H26   S    
C41   H5    S    
C2    C63   A    
H11   O12   S    
C39   H3    S    
C5    N1    A    
C10   C13   A    
C50   H16   S    
C15   H29   S    
O6    Zn1   S    
C27   C36   S    
C43   H6    S    
C16   H30   S    
O10   Zn1   S    
C53   H19   S    
C28   C30   A    
C25   C26   T    
C29   C31   A    
C30   C32   A    
C11   C13   A    
C57   C58   A    
C55   C61   A    
C28   C42   S    
C1    C30   S    
C31   O12   S    
C57   H21   S    
C18   C20   S    
C4    H12   S    
C5    H23   S    
C49   C50   A    
C40   H4    S    
C21   C24   T    
C60   C61   A    
C35   C63   A    
C6    H27   S    
C1    O7    A    
C19   O9    A    
