data_mof_unit_56980.cif
_audit_creation_date              2012-12-11T14:10:58-0500
_audit_creation_method            fapswitch 2.2
_symmetry_space_group_name_H-M    P1
_symmetry_Int_Tables_number       1
_space_group_crystal_system       triclinic
_cell_length_a                    19.670042
_cell_length_b                    17.175383
_cell_length_c                    15.584385
_cell_angle_alpha                 90.000548
_cell_angle_beta                  52.826868
_cell_angle_gamma                 90.000316
_cell_volume                      4195.25136007

loop_
_atom_site_label
_atom_site_type_symbol
_atom_type_description
_atom_site_fract_x
_atom_site_fract_y
_atom_site_fract_z
_atom_type_partial_charge
C1    C     C_R   0.377256 0.197393 0.989611 -0.057241
C2    C     C_3   0.749846 0.765607 0.442025 0.277564
C3    C     C_3   0.670750 0.278937 0.467535 0.290615
C4    C     C_3   0.329270 0.720832 0.532334 0.290506
C5    C     C_3   0.829470 0.779588 0.532083 0.290528
C6    C     C_3   0.170673 0.220472 0.467862 0.290410
C7    C     C_3   0.249812 0.734095 0.441939 0.277739
C8    C     C_3   0.750095 0.266215 0.558137 0.277832
C9    C     C_2   0.188694 0.744260 0.097808 -0.158842
C10   C     C_2   0.811227 0.255785 0.902278 -0.158792
C11   C     C_2   0.711223 0.686076 0.049007 -0.147064
C12   C     C_R   0.622698 0.802593 0.010453 -0.057271
C13   C     C_2   0.288772 0.313924 0.950995 -0.147061
C14   C     C_2   0.788701 0.186117 0.951102 -0.147170
C15   C     C_2   0.211283 0.813900 0.048899 -0.147085
C16   C     C_2   0.311336 0.244270 0.902121 -0.158927
C17   C     C_2   0.688619 0.755710 0.097939 -0.158936
C18   C     C_R   0.396220 0.801218 0.210319 0.185055
C19   C     C_R   0.603819 0.198775 0.789667 0.185129
C20   C     C_R   0.642058 0.818861 0.776510 0.219239
C21   C     C_R   0.358053 0.181219 0.223495 0.219261
C22   C     C_R   0.857933 0.318852 0.223453 0.219071
C23   C     C_R   0.662688 0.172543 0.948345 -0.061759
C24   C     C_R   0.142013 0.681181 0.776530 0.219137
C25   C     C_R   0.103674 0.301197 0.789745 0.185218
C26   C     C_R   0.896319 0.698808 0.210262 0.185194
C27   C     C_R   0.329196 0.913691 0.951872 -0.104027
C28   C     C_R   0.670800 0.086319 0.048138 -0.103953
C29   C     C_R   0.634951 0.890358 0.102864 -0.126006
C30   C     C_R   0.365037 0.109638 0.897153 -0.125998
C31   C     C_R   0.864993 0.390380 0.897214 -0.126070
C32   C     C_R   0.134959 0.609639 0.102840 -0.126039
C33   C     C_R   0.170815 0.413695 0.048110 -0.104139
C34   C     C_R   0.337296 0.827469 0.051672 -0.061645
C35   C     C_R   0.829186 0.586308 0.951887 -0.104130
C36   C     C_R   0.362669 0.083916 0.317012 -0.129357
C37   C     C_R   0.637412 0.916148 0.683004 -0.129460
C38   C     C_R   0.600208 0.105491 0.692442 -0.159790
C39   C     C_R   0.399852 0.894499 0.307526 -0.159582
C40   C     C_R   0.899986 0.605550 0.307453 -0.159610
C41   C     C_R   0.100003 0.394456 0.692557 -0.159485
C42   C     C_R   0.137464 0.583839 0.682999 -0.129515
C43   C     C_R   0.862450 0.416216 0.316982 -0.129581
C44   C     C_R   0.348012 0.185774 0.930171 0.122386
C45   C     C_R   0.837293 0.672527 0.051683 -0.061501
C46   C     C_R   0.651951 0.814214 0.069879 0.122376
C47   C     C_R   0.714263 0.146146 0.974509 0.122673
C48   C     C_R   0.285720 0.853870 0.025509 0.122673
C49   C     C_R   0.785707 0.646125 0.025536 0.122638
C50   C     C_R   0.214292 0.353877 0.974462 0.122652
C51   C     C_R   0.152016 0.685758 0.069769 0.122521
C52   C     C_R   0.847908 0.314270 0.930319 0.122612
C53   C     C_R   0.379902 0.818473 0.307026 0.047546
C54   C     C_R   0.620198 0.181509 0.692925 0.047577
C55   C     C_R   0.681649 0.851596 0.675208 0.028480
C56   C     C_R   0.162706 0.327474 0.948317 -0.061450
C57   C     C_R   0.318498 0.148509 0.324798 0.028508
C58   C     C_R   0.818189 0.351677 0.324740 0.028395
C59   C     C_R   0.181682 0.648405 0.675233 0.028458
C60   C     C_R   0.119861 0.318411 0.693106 0.047477
C61   C     C_R   0.880120 0.681601 0.306914 0.047516
C62   C     C_3   0.223429 0.156705 0.537618 -0.203130
C63   C     C_3   0.776704 0.843374 0.462359 -0.203202
C64   C     C_3   0.698134 0.201424 0.488206 -0.213360
C65   C     C_3   0.302108 0.798512 0.511724 -0.213358
C66   C     C_3   0.802598 0.701704 0.511567 -0.213439
C67   C     C_R   0.122792 0.697370 0.010306 -0.057497
C68   C     C_3   0.197481 0.298372 0.488438 -0.213391
C69   C     C_3   0.276959 0.656524 0.462369 -0.203040
C70   C     C_3   0.722729 0.343625 0.537643 -0.203009
C71   C     C_3   0.715047 0.735984 0.554146 -0.181043
C72   C     C_3   0.285049 0.264132 0.445893 -0.180950
C73   C     C_3   0.365362 0.691594 0.418072 -0.182818
C74   C     C_3   0.634467 0.308249 0.581830 -0.182814
C75   C     C_3   0.134831 0.191332 0.582069 -0.182796
C76   C     C_3   0.865289 0.808705 0.417867 -0.182818
C77   C     C_3   0.785352 0.236404 0.445933 -0.181065
C78   C     C_R   0.877147 0.302644 0.989766 -0.057575
C79   C     C_3   0.214742 0.763834 0.554113 -0.180994
C80   C     C_3   0.742387 0.812894 0.574410 0.047147
C81   C     C_3   0.257768 0.187207 0.425574 0.047110
C82   C     C_3   0.336662 0.768574 0.399534 0.050400
C83   C     C_3   0.663388 0.231437 0.600430 0.050385
C84   C     C_3   0.163178 0.268536 0.600574 0.050432
C85   C     C_3   0.836877 0.731518 0.399427 0.050446
C86   C     C_3   0.757510 0.312947 0.425514 0.046984
C87   C     C_3   0.242369 0.687126 0.574467 0.047008
C88   C     C_3   0.250224 0.234488 0.558012 0.277528
H1    H     H_    0.393623 0.253148 0.002547 0.154280
H2    H     H_    0.691044 0.053059 0.087981 0.122738
H3    H     H_    0.639054 0.917017 0.162487 0.121462
H4    H     H_    0.360938 0.082986 0.837523 0.121456
H5    H     H_    0.860891 0.417022 0.837581 0.121624
H6    H     H_    0.139050 0.582996 0.162481 0.121545
H7    H     H_    0.191069 0.446967 0.087932 0.122765
H8    H     H_    0.808933 0.553037 0.912063 0.122783
H9    H     H_    0.352734 0.049050 0.381343 0.119040
H10   H     H_    0.647370 0.951015 0.618662 0.119065
H11   H     H_    0.596002 0.076734 0.634123 0.116283
H12   H     H_    0.606245 0.746840 0.997642 0.154291
H13   H     H_    0.404046 0.923275 0.365845 0.116201
H14   H     H_    0.904192 0.576768 0.365759 0.116259
H15   H     H_    0.095809 0.423246 0.634246 0.116220
H16   H     H_    0.147457 0.548958 0.618643 0.119200
H17   H     H_    0.852419 0.451105 0.381355 0.119311
H18   H     H_    0.652217 0.706879 0.609423 0.190798
H19   H     H_    0.347869 0.293266 0.390651 0.190815
H20   H     H_    0.428476 0.663710 0.359842 0.181400
H21   H     H_    0.571246 0.335968 0.640011 0.181363
H22   H     H_    0.071883 0.163210 0.640339 0.181473
H23   H     H_    0.675608 0.218992 0.894534 0.143882
H24   H     H_    0.928248 0.836795 0.359551 0.181490
H25   H     H_    0.848438 0.207680 0.390745 0.190787
H26   H     H_    0.151760 0.792726 0.609338 0.190799
H27   H     H_    0.234331 0.098055 0.557127 0.165214
H28   H     H_    0.765827 0.902024 0.442837 0.165235
H29   H     H_    0.688416 0.142910 0.466992 0.166572
H30   H     H_    0.312080 0.856930 0.532895 0.166542
H31   H     H_    0.812915 0.643435 0.532666 0.166615
H32   H     H_    0.187141 0.356641 0.467353 0.166561
H33   H     H_    0.266402 0.597724 0.442812 0.165282
H34   H     H_    0.324357 0.781021 0.105495 0.143881
H35   H     H_    0.733049 0.402521 0.557218 0.165337
H36   H     H_    0.210874 0.724154 0.142856 0.165026
H37   H     H_    0.788995 0.275923 0.857302 0.165051
H38   H     H_    0.687664 0.665616 0.005622 0.158971
H39   H     H_    0.312360 0.334409 0.994336 0.158929
H40   H     H_    0.812293 0.165622 0.994436 0.158888
H41   H     H_    0.187756 0.834356 0.005472 0.158911
H42   H     H_    0.289105 0.224140 0.857143 0.164962
H43   H     H_    0.710823 0.775821 0.142956 0.164972
H44   H     H_    0.824354 0.718962 0.105512 0.143860
H45   H     H_    0.175646 0.281041 0.894483 0.143858
H46   H     H_    0.106509 0.753107 0.997240 0.154310
H47   H     H_    0.893368 0.246900 0.002907 0.154293
H48   H     H_    0.308953 0.946956 0.912033 0.122733
I1    I     I_    0.420288 0.687223 0.144740 -0.403007
I2    I     I_    0.677423 0.754428 0.381384 -0.390326
I3    I     I_    0.607146 0.291437 0.395575 -0.316681
I4    I     I_    0.392923 0.707911 0.604178 -0.316503
I5    I     I_    0.893224 0.793071 0.603697 -0.316181
I6    I     I_    0.106994 0.206972 0.396151 -0.316372
I7    I     I_    0.177457 0.744730 0.381116 -0.390404
I8    I     I_    0.822416 0.256005 0.619050 -0.390583
I9    I     I_    0.579633 0.312763 0.855284 -0.402728
I10   I     I_    0.651972 0.699590 0.804845 -0.403967
I11   I     I_    0.348287 0.300496 0.195096 -0.403858
I12   I     I_    0.848581 0.199431 0.195126 -0.403477
I13   I     I_    0.151531 0.800540 0.804930 -0.403680
I14   I     I_    0.079690 0.187226 0.855360 -0.402978
I15   I     I_    0.920313 0.812778 0.144642 -0.403004
I16   I     I_    0.322597 0.245695 0.618726 -0.390359
N1    N     N_R   0.408680 0.130810 0.995780 -0.052218
N2    N     N_R   0.578590 0.132790 0.846380 -0.069065
N3    N     N_R   0.578590 0.867210 0.846380 -0.066239
N4    N     N_R   0.421410 0.132790 0.153620 -0.066244
N5    N     N_R   0.921410 0.367210 0.153620 -0.066222
N6    N     N_R   0.078590 0.632790 0.846380 -0.066228
N7    N     N_R   0.078590 0.367210 0.846380 -0.068987
N8    N     N_R   0.921410 0.632790 0.153620 -0.068995
N9    N     N_R   0.403840 0.921910 0.935760 -0.051057
N10   N     N_R   0.596160 0.078090 0.064240 -0.051060
N11   N     N_R   0.596160 0.921910 0.064240 -0.052442
N12   N     N_R   0.591320 0.869190 0.004220 -0.052230
N13   N     N_R   0.403840 0.078090 0.935760 -0.052425
N14   N     N_R   0.903840 0.421910 0.935760 -0.052457
N15   N     N_R   0.096160 0.578090 0.064240 -0.052440
N16   N     N_R   0.096160 0.421910 0.064240 -0.051055
N17   N     N_R   0.903840 0.578090 0.935760 -0.051061
N18   N     N_R   0.426250 0.076100 0.213650 -0.057186
N19   N     N_R   0.573750 0.923900 0.786350 -0.057176
N20   N     N_R   0.573750 0.076100 0.786350 -0.053888
N21   N     N_R   0.426250 0.923900 0.213650 -0.053880
N22   N     N_R   0.926250 0.576100 0.213650 -0.053880
N23   N     N_R   0.591320 0.130810 0.004220 -0.047698
N24   N     N_R   0.073750 0.423900 0.786350 -0.053879
N25   N     N_R   0.073750 0.576100 0.786350 -0.057169
N26   N     N_R   0.926250 0.423900 0.213650 -0.057154
N27   N     N_R   0.408680 0.869190 0.995780 -0.047693
N28   N     N_R   0.908680 0.630810 0.995780 -0.047680
N29   N     N_R   0.091320 0.369190 0.004220 -0.047671
N30   N     N_R   0.091320 0.630810 0.004220 -0.052260
N31   N     N_R   0.908680 0.369190 0.995780 -0.052293
N32   N     N_R   0.421410 0.867210 0.153620 -0.069028
Ni1   Ni    Ni4+2 0.500000 0.131570 0.000000 0.263867
Ni2   Ni    Ni4+2 0.500000 0.868430 0.000000 0.263849
Ni3   Ni    Ni4+2 0.000000 0.631570 0.000000 0.263878
Ni4   Ni    Ni4+2 0.000000 0.368430 0.000000 0.263899
Ni5   Ni    Ni4+2 0.488900 1.000000 0.862310 0.226897
Ni6   Ni    Ni4+2 0.511100 1.000000 0.137690 0.226896
Ni7   Ni    Ni4+2 0.988900 0.500000 0.862310 0.226903
Ni8   Ni    Ni4+2 0.011100 0.500000 0.137690 0.226900

loop_
_geom_bond_atom_site_label_1
_geom_bond_atom_site_label_2
_ccdc_geom_bond_type
C27   C48   A    
C32   H6    S    
C28   C47   A    
N25   Ni7   S    
C20   N3    A    
C17   H43   S    
C8    C83   S    
C64   C77   S    
C29   N11   A    
N11   N12   A    
C9    C51   S    
N5    Ni4   S    
N10   Ni6   S    
C74   C83   S    
C39   N21   A    
C10   C52   S    
N6    Ni3   S    
C66   C85   S    
C79   C87   S    
C56   H45   S    
C28   N10   A    
C6    C75   S    
C43   N26   A    
N27   Ni2   S    
C3    C64   S    
C23   N23   A    
N15   Ni8   S    
C19   I9    S    
C65   C79   S    
C27   H48   S    
C21   I11   S    
C26   I15   S    
C67   N30   A    
N6    N25   A    
N14   Ni7   S    
N12   Ni2   S    
C13   H39   S    
C4    C65   S    
C24   N6    A    
C75   C84   S    
N15   N30   A    
N23   Ni1   S    
C56   N29   A    
C42   N25   A    
C33   H7    S    
N21   Ni6   S    
C9    H36   S    
C14   H40   S    
C8    C70   S    
N19   Ni5   S    
C2    C85   S    
C78   N31   A    
C43   H17   S    
C3    C74   S    
C70   C74   S    
C54   C83   S    
C18   C53   A    
C70   H35   S    
N21   N32   A    
C15   H41   S    
C35   C49   A    
N13   Ni5   S    
C65   H30   S    
C72   H19   S    
C26   N8    A    
C36   H9    S    
C25   C60   A    
C69   H33   S    
C6    I6    S    
C10   H37   S    
C16   H42   S    
C78   H47   S    
C16   C44   S    
N17   N28   A    
C72   C81   S    
C45   N28   A    
C68   C72   S    
N5    N26   A    
C6    C68   S    
C34   H34   S    
C6    C81   S    
C3    C86   S    
C88   I16   S    
C30   C44   A    
C34   N27   A    
C15   C48   S    
C74   H21   S    
C20   C55   A    
C77   H25   S    
C58   C86   S    
C7    I7    S    
C71   C80   S    
C72   C88   S    
N29   Ni4   S    
C39   H13   S    
C63   C80   S    
N2    Ni1   S    
C23   C47   A    
N2    N20   A    
C2    I2    S    
C11   H38   S    
C17   C46   S    
C41   C60   A    
N9    Ni5   S    
C36   C57   A    
C10   C14   D    
C4    C87   S    
C25   N7    A    
C5    C66   S    
N24   Ni7   S    
N10   N23   A    
C33   C50   A    
C35   H8    S    
C62   C88   S    
C50   C56   A    
C64   H29   S    
C41   H15   S    
C42   H16   S    
C25   I14   S    
C68   C84   S    
N7    Ni4   S    
C18   I1    S    
C1    N1    A    
C64   C83   S    
C21   C57   A    
C11   C49   S    
N28   Ni3   S    
C4    I4    S    
N26   Ni8   S    
C1    C44   A    
C5    I5    S    
C66   C71   S    
C38   C54   A    
C31   N14   A    
C18   N32   A    
C76   H24   S    
C67   H46   S    
C45   C49   A    
C37   H10   S    
C8    I8    S    
C51   C67   A    
C5    C80   S    
C69   C73   S    
C4    C73   S    
C61   C85   S    
C63   H28   S    
C19   C54   A    
C12   C46   A    
C41   N24   A    
C22   I12   S    
C77   C86   S    
N7    N24   A    
C8    C77   S    
C35   N17   A    
C20   I10   S    
C62   C75   S    
C71   H18   S    
C33   N16   A    
N9    N27   A    
N17   Ni7   S    
C2    C71   S    
C70   C86   S    
C73   C82   S    
C29   H3    S    
C2    C63   S    
C7    C79   S    
C22   C58   A    
C32   C51   A    
C79   H26   S    
C11   C17   D    
C75   H22   S    
C1    H1    S    
N1    N13   A    
N8    N22   A    
C62   C81   S    
N4    Ni1   S    
N14   N31   A    
C84   C88   S    
C30   N13   A    
C38   H11   S    
C73   H20   S    
N3    Ni2   S    
C69   C87   S    
C42   C59   A    
C37   N19   A    
C13   C16   D    
C38   N20   A    
C14   C47   S    
C22   N5    A    
N20   Ni5   S    
C23   H23   S    
N18   Ni6   S    
C34   C48   A    
C36   N18   A    
N16   Ni8   S    
C31   C52   A    
C29   C46   A    
C66   H31   S    
C5    C76   S    
C7    C69   S    
C9    C15   D    
C62   H27   S    
C31   H5    S    
N31   Ni4   S    
C27   N9    A    
C40   N22   A    
C55   C80   S    
C60   C84   S    
C65   C82   S    
C39   C53   A    
N1    Ni1   S    
C12   N12   A    
C24   C59   A    
N4    N18   A    
C21   N4    A    
N32   Ni2   S    
N11   Ni6   S    
C57   C81   S    
N30   Ni3   S    
C59   C87   S    
C12   H12   S    
C24   I13   S    
C40   C61   A    
C40   H14   S    
C13   C50   S    
C37   C55   A    
N3    N19   A    
C52   C78   A    
C7    C82   S    
C3    I3    S    
C45   H44   S    
N16   N29   A    
C63   C76   S    
C32   N15   A    
C19   N2    A    
C43   C58   A    
C53   C82   S    
C28   H2    S    
N8    Ni3   S    
C76   C85   S    
C68   H32   S    
N22   Ni8   S    
C26   C61   A    
C30   H4    S    
