data_mof_unit_57509.cif
_audit_creation_date              2012-12-10T18:57:41-0500
_audit_creation_method            fapswitch 2.2
_symmetry_space_group_name_H-M    P1
_symmetry_Int_Tables_number       1
_space_group_crystal_system       triclinic
_cell_length_a                    10.922888
_cell_length_b                    10.819218
_cell_length_c                    9.557701
_cell_angle_alpha                 89.991036
_cell_angle_beta                  89.78716
_cell_angle_gamma                 90.101819
_cell_volume                      1129.49185689

loop_
_atom_site_label
_atom_site_type_symbol
_atom_type_description
_atom_site_fract_x
_atom_site_fract_y
_atom_site_fract_z
_atom_type_partial_charge
C1    C     C_R   0.498955 0.262418 0.500113 0.869597
C2    C     C_R   0.486661 0.129510 0.501056 -0.088556
C3    C     C_R   0.434932 0.067519 0.386436 -0.268526
C4    C     C_R   0.425617 0.938021 0.385651 0.362862
C5    C     C_R   0.474308 0.870516 0.500662 -0.159333
C6    C     C_R   0.504656 0.935773 0.621632 0.021638
C7    C     C_3   0.607165 0.921577 0.723129 -0.473391
C8    C     C_3   0.618165 0.062051 0.721462 0.311552
C9    C     C_R   0.607448 0.504732 0.073111 0.240752
C10   C     C_R   0.394490 0.484776 0.074536 0.017157
C11   C     C_R   0.394484 0.484798 0.926260 -0.055806
C12   C     C_R   0.265328 0.497423 0.500336 0.861913
C13   C     C_R   0.607408 0.504431 0.925824 0.282980
C14   C     C_3   0.701577 0.604041 0.918945 -0.472591
C15   C     C_3   0.701432 0.604941 0.077634 -0.457162
C16   C     C_R   0.491987 0.737375 0.499731 0.844183
C17   C     C_R   0.734646 0.501395 0.499883 0.886985
C18   C     C_2   0.933234 0.480104 0.387674 -0.149535
C19   C     C_2   0.866721 0.507701 0.501379 -0.241705
C20   C     C_2   0.067066 0.487950 0.385911 -0.108047
C21   C     C_2   0.133283 0.488835 0.503520 -0.279125
C22   C     C_R   0.512730 0.062067 0.621233 0.017884
Cu1   Cu    Cu3+1 0.499990 0.499980 0.640670 0.989704
Cu2   Cu    Cu3+1 0.500010 0.500020 0.359330 1.013416
H1    H     H_    0.888751 0.452656 0.291221 0.157191
H2    H     H_    0.308467 0.473639 0.128939 0.139812
H3    H     H_    0.308473 0.473723 0.872433 0.149916
H4    H     H_    0.789279 0.570724 0.873341 0.205173
H5    H     H_    0.665905 0.690524 0.872156 0.213092
H6    H     H_    0.789497 0.572923 0.122087 0.191560
H7    H     H_    0.666069 0.692187 0.123604 0.241587
H8    H     H_    0.907912 0.537685 0.598504 0.142685
H9    H     H_    0.111655 0.490612 0.284194 0.169664
H10   H     H_    0.091702 0.479098 0.605962 0.152070
H11   H     H_    0.403341 0.119803 0.296965 0.191404
H12   H     H_    0.574187 0.885652 0.825466 0.175220
H13   H     H_    0.686402 0.870927 0.677594 0.228112
H14   H     H_    0.595358 0.105670 0.823570 0.087105
N1    N     N_R   0.500780 0.500930 0.147930 -0.177139
N2    N     N_R   0.500780 0.500890 0.852020 -0.194918
O1    O     O_R   0.500000 0.319640 0.618810 -0.573258
O2    O     O_R   0.500010 0.319680 0.381230 -0.596127
O3    O     O_R   0.321940 0.499980 0.618760 -0.602450
O4    O     O_R   0.321950 0.500020 0.381180 -0.572994
O5    O     O_R   0.499990 0.680320 0.618770 -0.585089
O6    O     O_R   0.500000 0.680360 0.381190 -0.514108
O7    O     O_R   0.678050 0.499980 0.618820 -0.564807
O8    O     O_R   0.678060 0.500020 0.381240 -0.597281
S1    S     S_3+6 0.760539 0.113532 0.647508 -0.001326
O9    O     O_2   0.769994 0.251279 0.662832 -0.311838
O10   O     O_2   0.864554 0.053872 0.724572 -0.258185
O11   O     O_3   0.768395 0.074986 0.477206 -0.538326
H15   H     H_    0.841984 0.118285 0.441113 0.378858
S2    S     S_3+6 0.350365 0.867724 0.241803 0.026497
O12   O     O_2   0.270302 0.763798 0.292610 -0.257345
O13   O     O_2   0.271791 0.960393 0.166982 -0.280332
O14   O     O_3   0.454366 0.811517 0.128613 -0.518455
H16   H     H_    0.504789 0.883805 0.101162 0.327184

loop_
_geom_bond_atom_site_label_1
_geom_bond_atom_site_label_2
_ccdc_geom_bond_type
C16   O5    A    
C2    C22   A    
C8    C22   S    
Cu1   Cu2   S    
C15   H7    S    
C6    C7    S    
Cu1   O5    S    
C11   H3    S    
Cu2   O2    S    
C7    H12   S    
S2    O12   D    
Cu1   O1    S    
C17   O8    A    
C3    H11   S    
S1    O11   S    
Cu2   O6    S    
C10   H2    S    
S1    O10   D    
C2    C3    A    
C7    H13   S    
C7    C8    S    
C12   O4    A    
C13   C14   S    
C20   C21   D    
O14   H16   S    
C11   N2    A    
C18   H1    S    
C8    H14   S    
C20   H9    S    
C12   C21   S    
C1    O1    A    
C17   C19   S    
C18   C19   D    
C12   O3    A    
C18   C20   S    
C9    C15   S    
C5    C6    A    
Cu2   O4    S    
S2    O13   D    
Cu1   O7    S    
C10   C11   A    
C19   H8    S    
C14   H5    S    
C3    C4    A    
Cu2   O8    S    
C17   O7    A    
C1    O2    A    
C9    N1    A    
Cu2   N1    S    
Cu1   O3    S    
O11   H15   S    
C15   H6    S    
C1    C2    S    
C16   O6    A    
S1    O9    D    
C9    C13   A    
C14   C15   S    
C4    C5    A    
C13   N2    A    
C21   H10   S    
C14   H4    S    
C4    S2    S    
C8    S1    S    
Cu1   N2    S    
C10   N1    A    
C5    C16   S    
S2    O14   S    
C6    C22   A    
