data_mof_unit_17286.cif
_audit_creation_date              2012-12-11T15:44:59-0500
_audit_creation_method            fapswitch 2.2
_symmetry_space_group_name_H-M    P1
_symmetry_Int_Tables_number       1
_space_group_crystal_system       triclinic
_cell_length_a                    6.918833
_cell_length_b                    16.985179
_cell_length_c                    16.979485
_cell_angle_alpha                 100.228241
_cell_angle_beta                  88.865209
_cell_angle_gamma                 90.778015
_cell_volume                      1963.19050979

loop_
_atom_site_label
_atom_site_type_symbol
_atom_type_description
_atom_site_fract_x
_atom_site_fract_y
_atom_site_fract_z
_atom_type_partial_charge
O1    O     O_R   0.494370 0.415690 0.413450 -0.525807
O2    O     O_R   0.819420 0.429360 0.578420 -0.530703
O3    O     O_R   0.994280 0.584310 0.586550 -0.530968
C1    C     C_R   0.650515 0.414559 0.605982 0.781483
O4    O     O_R   0.823790 0.406230 0.413570 -0.523731
O5    O     O_R   0.998670 0.561000 0.420530 -0.543258
C2    C     C_R   0.653668 0.382330 0.385347 0.781359
O6    O     O_R   0.489970 0.439000 0.579470 -0.539240
O7    O     O_3   0.662300 0.550810 0.502470 -0.347695
V1    V     V_3+5 0.935380 0.490570 0.499540 1.589511
O8    O     O_R   0.328650 0.570640 0.421580 -0.516208
C3    C     C_R   0.164684 0.584405 0.392634 0.720809
O9    O     O_R   0.324290 0.593770 0.586430 -0.520737
C4    C     C_R   0.153912 0.617042 0.615133 0.720204
V2    V     V_3+5 0.435930 0.509430 0.500460 1.601649
O10   O     O_3   0.159140 0.449190 0.497530 -0.359011
C5    C     C_R   0.286695 0.746341 0.696001 -0.022291
C6    C     C_R   0.283053 0.804596 0.766065 -0.174970
H1    H     H_    0.402622 0.846058 0.777612 0.202203
C7    C     C_R   0.123217 0.813025 0.818635 -0.097783
C8    C     C_R   0.974845 0.755837 0.805635 -0.137246
H2    H     H_    0.853081 0.760114 0.847357 0.129917
C9    C     C_R   0.983707 0.691421 0.741121 0.044679
C10   C     C_R   0.139573 0.686141 0.683759 -0.175236
C11   C     C_R   0.176491 0.636694 0.329776 -0.183923
C12   C     C_R   0.091807 0.859965 0.166508 -0.120708
C13   C     C_R   0.896629 0.801761 0.265987 0.448649
C14   C     C_R   0.918402 0.854754 0.210752 -0.268645
C15   C     C_R   0.242057 0.808168 0.175491 -0.226618
C16   C     C_R   0.217886 0.751070 0.226082 0.063304
C17   C     C_R   0.046605 0.748153 0.272465 0.063735
C18   C     C_R   0.028718 0.691697 0.324625 -0.171059
C19   C     C_R   0.343097 0.637529 0.278281 0.007977
C20   C     C_R   0.361346 0.694952 0.228546 -0.101983
H3    H     H_    0.901942 0.691834 0.363093 0.194215
H4    H     H_    0.489603 0.695446 0.190723 0.146847
H5    H     H_    0.797116 0.890973 0.200839 0.131567
H6    H     H_    0.373957 0.809532 0.140160 0.135213
C21   C     C_R   0.650372 0.363261 0.668925 -0.160486
C22   C     C_R   0.613466 0.133731 0.828533 -0.122705
C23   C     C_R   0.440794 0.173481 0.718049 -0.133547
C24   C     C_R   0.471292 0.118491 0.768557 -0.003154
C25   C     C_R   0.731310 0.202102 0.832040 -0.192972
C26   C     C_R   0.708582 0.255872 0.777576 0.069973
C27   C     C_R   0.554040 0.243292 0.722316 0.058887
C28   C     C_R   0.521327 0.298339 0.669586 -0.048704
C29   C     C_R   0.801735 0.374931 0.723938 -0.160425
C30   C     C_R   0.833161 0.322776 0.777771 0.016988
H7    H     H_    0.902610 0.424167 0.722711 0.159075
H8    H     H_    0.330975 0.159340 0.673091 0.170378
H9    H     H_    0.833882 0.214529 0.879944 0.148161
C31   C     C_R   0.769247 0.247504 0.309684 -0.101068
C32   C     C_R   0.756582 0.183606 0.243890 0.392111
C33   C     C_R   0.620808 0.184635 0.183324 -0.252492
C34   C     C_R   0.491418 0.248731 0.189969 0.375477
C35   C     C_R   0.489341 0.308962 0.258977 -0.088661
C36   C     C_R   0.636988 0.312119 0.317678 -0.293001
O11   O     O_R   0.774880 0.061150 0.920630 -0.533496
O12   O     O_R   0.440980 0.093710 0.086500 -0.518640
O13   O     O_R   0.266190 0.938890 0.079390 -0.548137
C37   C     C_R   0.609665 0.116599 0.114921 0.766796
O14   O     O_R   0.445420 0.070740 0.921670 -0.539906
O15   O     O_R   0.270660 0.915760 0.913380 -0.535616
C38   C     C_R   0.614265 0.085512 0.894066 0.727848
O16   O     O_R   0.770400 0.084270 0.086640 -0.518779
O17   O     O_3   0.602590 0.949210 0.997500 -0.385254
V3    V     V_3+5 0.329470 0.009420 0.000470 1.524768
O18   O     O_R   0.940650 0.906250 0.913470 -0.544029
C39   C     C_R   0.110629 0.882186 0.886013 0.715116
O19   O     O_R   0.936210 0.929220 0.078300 -0.545458
C40   C     C_R   0.101316 0.913321 0.105230 0.736377
V4    V     V_3+5 0.828930 0.990510 0.999490 1.495679
O20   O     O_3   0.105680 0.050790 0.002500 -0.354869
C41   C     C_2   0.438112 0.754916 0.634555 0.834625
O21   O     O_2   0.599819 0.779289 0.655136 -0.546118
O22   O     O_R   0.392995 0.739649 0.553265 -0.664129
H10   H     H_    0.507466 0.748414 0.517490 0.298333
C42   C     C_2   0.357071 0.287398 0.613741 0.749856
O23   O     O_2   0.191462 0.285164 0.639802 -0.549213
O24   O     O_R   0.391823 0.281619 0.531644 -0.652636
H11   H     H_    0.267998 0.283361 0.501353 0.310649
C43   C     C_2   0.006562 0.337687 0.828774 0.777792
O25   O     O_2   0.048911 0.406072 0.860172 -0.543541
O26   O     O_R   0.127043 0.274511 0.837650 -0.656978
H12   H     H_    0.242821 0.292787 0.872131 0.287171
C44   C     C_2   0.355511 0.043746 0.754785 0.756741
O27   O     O_2   0.431165 0.980757 0.760805 -0.580259
O28   O     O_R   0.162340 0.044757 0.732281 -0.649623
H13   H     H_    0.099507 0.989702 0.724487 0.299148
C45   C     C_2   0.911876 0.239851 0.372341 0.868676
O29   O     O_2   0.867169 0.256935 0.443319 -0.560784
O30   O     O_R   0.093587 0.207431 0.349457 -0.623355
H14   H     H_    0.169695 0.195221 0.396010 0.289319
O31   O     O_3   0.877948 0.118729 0.239311 -0.520072
C46   C     C_3   0.788127 0.061786 0.279569 -0.214049
H15   H     H_    0.896715 0.016340 0.286603 0.156692
H16   H     H_    0.666564 0.031193 0.244180 0.102847
H17   H     H_    0.735783 0.088373 0.340854 0.127706
O32   O     O_3   0.354321 0.249688 0.131700 -0.529110
C47   C     C_3   0.440954 0.280746 0.067489 -0.113922
H18   H     H_    0.549494 0.238988 0.034683 0.069121
H19   H     H_    0.509335 0.340424 0.087861 0.169089
H20   H     H_    0.326926 0.288412 0.024552 0.157691
C48   C     C_2   0.323662 0.364934 0.267942 0.840196
O33   O     O_2   0.209626 0.367043 0.324102 -0.550461
O34   O     O_R   0.286675 0.409171 0.208107 -0.639060
H21   H     H_    0.166277 0.442939 0.219897 0.285050
C49   C     C_2   0.830792 0.629526 0.739682 0.726011
O35   O     O_2   0.707662 0.621010 0.688177 -0.544908
O36   O     O_R   0.820328 0.584671 0.801128 -0.655922
H22   H     H_    0.705758 0.546357 0.795768 0.294390
C50   C     C_2   0.499818 0.577868 0.269371 0.752499
O37   O     O_2   0.530393 0.536407 0.203846 -0.544492
O38   O     O_R   0.625918 0.574805 0.331790 -0.644591
H23   H     H_    0.728738 0.532681 0.316239 0.274707
O39   O     O_3   0.723341 0.794422 0.307208 -0.561323
C51   C     C_3   0.650477 0.869768 0.343091 -0.256401
H24   H     H_    0.567488 0.896510 0.299297 0.136208
H25   H     H_    0.766216 0.911474 0.370467 0.131735
H26   H     H_    0.548022 0.860871 0.391907 0.182964

loop_
_geom_bond_atom_site_label_1
_geom_bond_atom_site_label_2
_ccdc_geom_bond_type
C34   C35   A    
C23   C24   A    
C31   C45   S    
C46   H15   S    
C1    O6    A    
O11   V4    S    
C50   O38   S    
O38   H23   S    
C46   H17   S    
C29   H7    S    
C32   C33   A    
O39   C51   S    
C41   O22   S    
O14   V3    S    
O30   H14   S    
C51   H25   S    
O5    C3    A    
C16   C17   A    
C42   O24   S    
O34   H21   S    
V2    O10   S    
C24   C44   S    
C49   O35   D    
C6    H1    S    
C4    C10   S    
O36   H22   S    
C48   O33   D    
O14   C38   A    
O12   V3    S    
O8    V2    S    
C22   C25   A    
O17   V4    S    
C29   C30   A    
O13   V3    S    
C30   C43   S    
O18   C39   A    
C15   H6    S    
C9    C10   A    
O19   C40   A    
O1    V2    S    
O7    V1    S    
C6    C7    A    
C13   O39   S    
C11   C18   A    
C22   C24   A    
O17   V3    S    
O1    C2    A    
O9    C4    A    
C12   C40   S    
C48   O34   S    
C50   O37   D    
C19   C20   A    
O11   C38   A    
O15   V3    S    
O12   C37   A    
C5    C10   A    
C41   O21   D    
C16   C20   A    
C44   O28   S    
C13   C17   A    
C18   H3    S    
O15   C39   A    
O22   H10   S    
C35   C48   S    
C28   C42   S    
C51   H26   S    
O4    C2    A    
C42   O23   D    
V4    O20   S    
O13   C40   A    
C27   C28   A    
C47   H20   S    
O2    C1    A    
C25   C26   A    
C15   C16   A    
C45   O30   S    
C17   C18   A    
C1    C21   S    
O18   V4    S    
C7    C8    A    
C47   H19   S    
C5    C6    A    
C19   C50   S    
O26   H12   S    
O3    C4    A    
C21   C28   A    
V3    O20   S    
O6    V2    S    
C43   O26   S    
C8    C9    A    
C5    C41   S    
C7    C39   S    
C35   C36   A    
O2    V1    S    
C23   H8    S    
C31   C32   A    
C21   C29   A    
C33   C34   A    
C32   O31   S    
C44   O27   D    
C26   C27   A    
O24   H11   S    
O5    V1    S    
O8    C3    A    
C46   H16   S    
C33   C37   S    
O16   V4    S    
C12   C14   A    
C22   C38   S    
O32   C47   S    
C3    C11   S    
O9    V2    S    
O7    V2    S    
O4    V1    S    
O3    V1    S    
V1    O10   S    
C51   H24   S    
C25   H9    S    
C45   O29   D    
C14   H5    S    
C9    C49   S    
C47   H18   S    
C49   O36   S    
C20   H4    S    
O31   C46   S    
C31   C36   A    
C37   O16   A    
O28   H13   S    
C12   C15   A    
C43   O25   D    
C34   O32   S    
C13   C14   A    
C23   C27   A    
O19   V4    S    
C8    H2    S    
C2    C36   S    
C26   C30   A    
C11   C19   A    
