data_mof_unit_61029.cif
_audit_creation_date              2013-03-05T16:21:18-0500
_audit_creation_method            fapswitch 2.2
_symmetry_space_group_name_H-M    P1
_symmetry_Int_Tables_number       1
_space_group_crystal_system       triclinic
_cell_length_a                    44.447028
_cell_length_b                    38.908544
_cell_length_c                    21.616638
_cell_angle_alpha                 90.00055
_cell_angle_beta                  60.873723
_cell_angle_gamma                 89.999709
_cell_volume                      32656.0137593

loop_
_atom_site_label
_atom_site_type_symbol
_atom_site_description
_atom_site_fract_x
_atom_site_fract_y
_atom_site_fract_z
_atom_type_partial_charge
O1    O     O_R   0.050910 0.528730 0.449120 -0.598905
O2    O     O_R   0.949090 0.528730 0.550880 -0.598906
O3    O     O_R   0.550910 0.028730 0.449120 -0.591024
O4    O     O_R   0.449090 0.028730 0.550880 -0.590945
O5    O     O_R   0.050890 0.471250 0.449130 -0.611638
O6    O     O_R   0.949110 0.471250 0.550870 -0.611634
O7    O     O_R   0.550890 0.971250 0.449130 -0.618302
O8    O     O_R   0.449110 0.971250 0.550870 -0.618185
C1    C     C_R   0.067125 0.499937 0.434513 0.843763
C2    C     C_R   0.932875 0.499938 0.565487 0.843759
C3    C     C_R   0.567191 0.999981 0.434410 0.845854
C4    C     C_R   0.432812 0.999980 0.565595 0.845460
O9    O     O_R   0.000000 0.528730 0.591620 -0.602469
O10   O     O_R   0.000000 0.528730 0.408380 -0.602469
O11   O     O_R   0.500000 0.028730 0.591620 -0.614848
O12   O     O_R   0.500000 0.028730 0.408380 -0.614698
O13   O     O_R   0.999980 0.471250 0.591630 -0.624819
O14   O     O_R   0.000020 0.471250 0.408370 -0.624819
O15   O     O_R   0.499980 0.971250 0.591630 -0.620681
O16   O     O_R   0.500020 0.971250 0.408370 -0.620686
C5    C     C_R   0.999059 0.500038 0.620976 0.863901
C6    C     C_R   0.000941 0.500038 0.379024 0.863902
C7    C     C_R   0.499035 0.000020 0.620838 0.867671
C8    C     C_R   0.500956 0.000019 0.379172 0.867670
Zn1   Zn    Zn3+2 1.000000 0.538370 0.500000 1.050717
Zn2   Zn    Zn3+2 0.500000 0.038370 0.500000 1.094907
Zn3   Zn    Zn3+2 0.000000 0.461610 0.500000 0.993331
Zn4   Zn    Zn3+2 0.500000 0.961610 0.500000 0.993708
H1    H     H_    0.881308 0.602844 0.731677 0.186862
H2    H     H_    0.118694 0.602838 0.268324 0.186865
H3    H     H_    0.354269 0.055387 0.752901 0.176323
H4    H     H_    0.645731 0.055348 0.247110 0.176161
C9    C     C_R   0.928324 0.601190 0.738726 0.345891
C10   C     C_R   0.071678 0.601186 0.261277 0.345882
C11   C     C_R   0.407878 0.067564 0.717129 0.349870
C12   C     C_R   0.592142 0.067567 0.282748 0.350162
C13   C     C_R   0.952722 0.579240 0.741786 -0.204242
C14   C     C_R   0.047279 0.579237 0.258217 -0.204233
C15   C     C_R   0.438044 0.056384 0.716965 -0.180149
C16   C     C_R   0.561974 0.056384 0.282926 -0.180208
H5    H     H_    0.974152 0.589875 0.746089 0.187674
H6    H     H_    0.025849 0.589873 0.253916 0.187676
H7    H     H_    0.461189 0.071868 0.691948 0.193474
H8    H     H_    0.538843 0.071894 0.307848 0.193438
C17   C     C_R   0.949755 0.543426 0.738987 0.069489
C18   C     C_R   0.050246 0.543423 0.261013 0.069490
C19   C     C_R   0.438522 0.025142 0.748962 0.025712
C20   C     C_R   0.561475 0.025107 0.251062 0.025712
C21   C     C_R   0.921992 0.529415 0.733924 -0.141595
C22   C     C_R   0.078009 0.529411 0.266074 -0.141600
C23   C     C_R   0.408338 0.005485 0.783184 -0.161205
C24   C     C_R   0.591633 0.005402 0.217003 -0.160989
H9    H     H_    0.919192 0.501823 0.732566 0.124005
H10   H     H_    0.080809 0.501819 0.267430 0.124008
H11   H     H_    0.408246 0.981423 0.808475 0.152530
H12   H     H_    0.591704 0.981307 0.191830 0.152518
C25   C     C_R   0.897432 0.551032 0.731751 -0.178249
C26   C     C_R   0.102570 0.551027 0.268248 -0.178246
C27   C     C_R   0.378165 0.016681 0.784664 -0.186127
C28   C     C_R   0.621805 0.016591 0.215532 -0.186261
H13   H     H_    0.875725 0.540231 0.728903 0.165675
H14   H     H_    0.124277 0.540225 0.271094 0.165675
H15   H     H_    0.354979 0.001330 0.810934 0.166555
H16   H     H_    0.644972 0.001203 0.189390 0.166579
C29   C     C_R   0.900618 0.586668 0.733713 -0.160263
C30   C     C_R   0.099384 0.586663 0.266288 -0.160249
C31   C     C_R   0.377892 0.047444 0.751674 -0.183798
C32   C     C_R   0.622106 0.047402 0.248351 -0.183979
C33   C     C_R   0.976034 0.519685 0.807108 -0.225391
C34   C     C_R   0.023967 0.519684 0.192892 -0.225387
C35   C     C_R   0.471288 0.011963 0.811074 -0.221737
C36   C     C_R   0.528717 0.011940 0.188929 -0.221734
H17   H     H_    0.958017 0.535230 0.851424 0.167291
H18   H     H_    0.041983 0.535227 0.148577 0.167296
H19   H     H_    0.449687 0.022271 0.858553 0.176637
H20   H     H_    0.550324 0.022238 0.141449 0.176652
C37   C     C_R   0.000233 0.499163 0.813196 -0.080496
C38   C     C_R   0.999767 0.499163 0.186803 -0.080497
C39   C     C_R   0.499899 0.998090 0.813043 -0.102276
C40   C     C_R   0.500100 0.998083 0.186959 -0.102308
C41   C     C_R   0.024430 0.479567 0.755587 0.094112
C42   C     C_R   0.975570 0.479568 0.244412 0.094112
C43   C     C_R   0.527726 0.983978 0.751638 0.102059
C44   C     C_R   0.472265 0.983981 0.248367 0.102102
C45   C     C_R   0.022908 0.479819 0.693234 -0.175613
C46   C     C_R   0.977092 0.479819 0.306765 -0.175614
C47   C     C_R   0.526877 0.985495 0.688586 -0.171637
C48   C     C_R   0.473110 0.985501 0.311424 -0.171658
H21   H     H_    0.041183 0.464637 0.648519 0.158397
H22   H     H_    0.958817 0.464637 0.351480 0.158396
H23   H     H_    0.547997 0.974797 0.640740 0.152224
H24   H     H_    0.451985 0.974812 0.359273 0.152193
C49   C     C_R   0.998563 0.500108 0.687473 -0.086923
C50   C     C_R   0.001438 0.500107 0.312526 -0.086922
C51   C     C_R   0.498700 0.000075 0.686882 -0.080917
C52   C     C_R   0.501292 0.000070 0.313128 -0.080858
C53   C     C_R   0.975223 0.520765 0.743945 0.022357
C54   C     C_R   0.024778 0.520763 0.256055 0.022355
C55   C     C_R   0.470313 0.012984 0.748113 0.022131
C56   C     C_R   0.529686 0.012961 0.251896 0.022113
C57   C     C_R   0.086032 0.469218 0.722764 0.512474
C58   C     C_R   0.913968 0.469222 0.277235 0.512474
C59   C     C_R   0.590572 0.979096 0.714960 0.505017
C60   C     C_R   0.409419 0.979117 0.285044 0.505020
C61   C     C_R   0.111324 0.448421 0.725346 -0.356781
C62   C     C_R   0.888674 0.448427 0.274653 -0.356782
C63   C     C_R   0.617773 0.960936 0.715849 -0.356055
C64   C     C_R   0.382214 0.960965 0.284155 -0.356133
H25   H     H_    0.138105 0.456181 0.698492 0.175388
H26   H     H_    0.861894 0.456188 0.301507 0.175388
H27   H     H_    0.643841 0.970773 0.688020 0.171948
H28   H     H_    0.356148 0.970808 0.311982 0.171890
C65   C     C_R   0.102243 0.417337 0.762260 -0.129464
C66   C     C_R   0.897754 0.417343 0.237740 -0.129462
C67   C     C_R   0.611540 0.929905 0.752566 -0.138038
C68   C     C_R   0.388440 0.929934 0.247439 -0.138099
H29   H     H_    0.122019 0.401491 0.763297 0.188851
H30   H     H_    0.877978 0.401497 0.236704 0.188852
H31   H     H_    0.632762 0.916205 0.752492 0.187279
H32   H     H_    0.367215 0.916240 0.247512 0.187241
C69   C     C_R   0.067948 0.406461 0.797256 0.536805
C70   C     C_R   0.932049 0.406464 0.202744 0.536807
C71   C     C_R   0.578244 0.916374 0.788916 0.535996
C72   C     C_R   0.421732 0.916394 0.211091 0.536023
C73   C     C_R   0.042438 0.427348 0.795827 -0.376268
C74   C     C_R   0.957560 0.427349 0.204173 -0.376262
C75   C     C_R   0.550885 0.934502 0.788745 -0.355133
C76   C     C_R   0.449095 0.934514 0.211262 -0.355085
H33   H     H_    0.015735 0.419232 0.822901 0.143722
H34   H     H_    0.984262 0.419232 0.177099 0.143723
H35   H     H_    0.524942 0.924282 0.816813 0.139635
H36   H     H_    0.475035 0.924288 0.183195 0.139627
C77   C     C_R   0.051389 0.458517 0.758594 0.038716
C78   C     C_R   0.948610 0.458519 0.241406 0.038717
C79   C     C_R   0.556905 0.965751 0.752059 0.044174
C80   C     C_R   0.443082 0.965763 0.247946 0.044169
C81   C     C_R   0.377687 0.483929 0.072219 -0.147206
C82   C     C_R   0.622313 0.483929 0.927779 -0.147209
C83   C     C_R   0.877591 0.003503 0.065080 -0.174654
C84   C     C_R   0.122396 0.004095 0.934816 -0.175018
H37   H     H_    0.391632 0.473746 0.018919 0.163133
H38   H     H_    0.608369 0.473746 0.981078 0.163133
H39   H     H_    0.891419 0.007539 0.008341 0.166876
H40   H     H_    0.108560 0.008524 0.991430 0.166688
C85   C     C_R   0.341965 0.481472 0.108969 -0.139509
C86   C     C_R   0.658035 0.481473 0.891029 -0.139507
C87   C     C_R   0.841900 0.002199 0.099163 -0.130355
C88   C     C_R   0.158089 0.002830 0.900774 -0.129939
H41   H     H_    0.328799 0.469541 0.083534 0.145698
H42   H     H_    0.671202 0.469542 0.916463 0.145699
H43   H     H_    0.828658 0.005147 0.068610 0.147172
H44   H     H_    0.171328 0.006189 0.931234 0.147176
C89   C     C_R   0.323408 0.494097 0.178319 0.143143
C90   C     C_R   0.676592 0.494098 0.821680 0.143142
C91   C     C_R   0.823419 0.996687 0.172226 0.146744
C92   C     C_R   0.176573 0.996820 0.827883 0.146693
C93   C     C_R   0.340923 0.509577 0.210231 -0.071651
C94   C     C_R   0.659077 0.509579 0.789770 -0.071655
C95   C     C_R   0.840661 0.993124 0.211504 -0.086267
C96   C     C_R   0.159337 0.992733 0.788708 -0.086623
H45   H     H_    0.326893 0.520220 0.263119 0.153325
H46   H     H_    0.673106 0.520222 0.736884 0.153324
H47   H     H_    0.826387 0.989210 0.268273 0.150254
H48   H     H_    0.173615 0.988422 0.732063 0.150277
C97   C     C_R   0.376688 0.511381 0.174038 -0.146788
C98   C     C_R   0.623311 0.511382 0.825964 -0.146792
C99   C     C_R   0.876440 0.994561 0.177462 -0.113699
C100  C     C_R   0.123557 0.994145 0.822702 -0.113053
H49   H     H_    0.389832 0.523093 0.199735 0.163826
H50   H     H_    0.610167 0.523094 0.800268 0.163827
H51   H     H_    0.889435 0.991448 0.208434 0.177614
H52   H     H_    0.110562 0.990613 0.791837 0.178164
C101  C     C_R   0.395215 0.498626 0.104823 -0.023533
C102  C     C_R   0.604785 0.498627 0.895176 -0.023536
C103  C     C_R   0.895116 0.999564 0.103934 -0.036656
C104  C     C_R   0.104879 0.999628 0.896079 -0.037035
C105  C     C_R   0.267019 0.480317 0.287037 0.308213
C106  C     C_R   0.732982 0.480320 0.712961 0.308215
C107  C     C_R   0.767455 0.965944 0.245257 0.310080
C108  C     C_R   0.232518 0.965867 0.755940 0.310163
C109  C     C_R   0.231096 0.483092 0.322943 -0.219949
C110  C     C_R   0.768904 0.483096 0.677055 -0.219948
C111  C     C_R   0.731485 0.967337 0.281946 -0.225339
C112  C     C_R   0.268490 0.967239 0.719187 -0.225493
H53   H     H_    0.216398 0.474127 0.377105 0.187497
H54   H     H_    0.783603 0.474131 0.622893 0.187497
H55   H     H_    0.716888 0.945152 0.311740 0.185755
H56   H     H_    0.283070 0.944896 0.690134 0.185684
C113  C     C_R   0.213828 0.495987 0.288447 0.059551
C114  C     C_R   0.786172 0.495990 0.711553 0.059555
C115  C     C_R   0.714166 0.997137 0.280397 0.064464
C116  C     C_R   0.285830 0.997219 0.719726 0.064597
C117  C     C_R   0.232173 0.506473 0.217902 -0.153816
C118  C     C_R   0.767827 0.506475 0.782099 -0.153822
C119  C     C_R   0.732719 0.025851 0.241888 -0.162543
C120  C     C_R   0.267284 0.026138 0.757286 -0.162633
H57   H     H_    0.218829 0.516391 0.191014 0.151418
H58   H     H_    0.781170 0.516393 0.808988 0.151415
H59   H     H_    0.719553 0.048924 0.239946 0.157129
H60   H     H_    0.280453 0.049354 0.758484 0.157336
C121  C     C_R   0.267885 0.505052 0.182309 -0.215614
C122  C     C_R   0.732114 0.505054 0.817692 -0.215618
C123  C     C_R   0.768405 0.024953 0.205632 -0.212471
C124  C     C_R   0.231598 0.025268 0.793542 -0.212474
H61   H     H_    0.281761 0.514547 0.128436 0.159914
H62   H     H_    0.718238 0.514548 0.871566 0.159909
H63   H     H_    0.782484 0.047583 0.176869 0.166600
H64   H     H_    0.217530 0.048053 0.821528 0.166725
C125  C     C_R   0.285636 0.492381 0.216350 -0.027789
C126  C     C_R   0.714364 0.492384 0.783649 -0.027786
C127  C     C_R   0.785926 0.995400 0.207606 -0.037954
C128  C     C_R   0.214064 0.995532 0.792561 -0.038005
C129  C     C_R   0.157678 0.476623 0.304514 -0.162168
C130  C     C_R   0.842322 0.476627 0.695488 -0.162165
C131  C     C_R   0.657415 0.971467 0.313464 -0.179915
C132  C     C_R   0.342595 0.971646 0.687024 -0.180045
H65   H     H_    0.170775 0.459505 0.259632 0.163316
H66   H     H_    0.829225 0.459510 0.740371 0.163315
H67   H     H_    0.670038 0.950196 0.277769 0.160722
H68   H     H_    0.329979 0.950501 0.723092 0.160526
C133  C     C_R   0.121957 0.477261 0.341576 -0.251127
C134  C     C_R   0.878042 0.477264 0.658425 -0.251126
C135  C     C_R   0.621768 0.972210 0.352028 -0.211025
C136  C     C_R   0.378242 0.972358 0.648411 -0.210796
H69   H     H_    0.107788 0.460879 0.324200 0.169961
H70   H     H_    0.892212 0.460882 0.675803 0.169960
H71   H     H_    0.607418 0.951582 0.344726 0.181007
H72   H     H_    0.392595 0.951835 0.656026 0.180799
C137  C     C_R   0.104602 0.499465 0.399429 -0.154959
C138  C     C_R   0.895398 0.499466 0.600572 -0.154958
C139  C     C_R   0.604783 0.999650 0.398047 -0.167129
C140  C     C_R   0.395227 0.999654 0.601970 -0.167006
C141  C     C_R   0.123508 0.520553 0.421926 0.447124
C142  C     C_R   0.876492 0.520553 0.578074 0.447123
C143  C     C_R   0.624200 0.026400 0.406407 0.459284
C144  C     C_R   0.375819 0.026277 0.593199 0.459699
C145  C     C_R   0.159384 0.519493 0.384236 -0.146249
C146  C     C_R   0.840616 0.519494 0.615763 -0.146252
C147  C     C_R   0.659935 0.025836 0.365587 -0.151041
C148  C     C_R   0.340083 0.025737 0.634007 -0.150684
H73   H     H_    0.174094 0.535428 0.401037 0.176108
H74   H     H_    0.825906 0.535429 0.598961 0.176107
H75   H     H_    0.674831 0.046258 0.371820 0.177092
H76   H     H_    0.325199 0.046055 0.627418 0.176777
C149  C     C_R   0.176381 0.497646 0.325912 0.018457
C150  C     C_R   0.823619 0.497649 0.674088 0.018458
C151  C     C_R   0.676597 0.998324 0.319840 0.019704
C152  C     C_R   0.323410 0.998377 0.680218 0.019889
O17   O     O_R   0.971250 0.449060 0.028730 -0.623376
O18   O     O_R   0.028750 0.449060 0.971270 -0.623377
O19   O     O_R   0.471250 0.949060 0.028730 -0.621520
O20   O     O_R   0.528750 0.949060 0.971270 -0.621525
C153  C     C_R   0.000000 0.432728 1.000000 0.855975
C154  C     C_R   0.500000 0.932757 1.000000 0.853824
O21   O     O_R   0.971250 0.499970 0.937120 -0.634976
O22   O     O_R   0.028750 0.499970 0.062880 -0.634975
O23   O     O_R   0.471250 0.999970 0.937120 -0.637804
O24   O     O_R   0.528750 0.999970 0.062880 -0.637796
O25   O     O_R   0.028730 0.499980 0.879660 -0.594375
O26   O     O_R   0.971270 0.499980 0.120340 -0.594376
O27   O     O_R   0.528730 0.999980 0.879660 -0.597070
O28   O     O_R   0.471270 0.999980 0.120340 -0.597073
C155  C     C_R   0.000071 0.499404 0.879661 0.878135
C156  C     C_R   0.999929 0.499404 0.120339 0.878137
C157  C     C_R   0.500018 0.999083 0.879550 0.881621
C158  C     C_R   0.499982 0.999081 0.120451 0.881631
Zn5   Zn    Zn3+2 0.961610 0.499970 0.038370 1.022547
Zn6   Zn    Zn3+2 0.038390 0.499970 0.961630 1.022556
Zn7   Zn    Zn3+2 0.461610 0.999970 0.038370 1.018826
Zn8   Zn    Zn3+2 0.538390 0.999970 0.961630 1.018830
O29   O     O_R   0.971250 0.550880 0.028740 -0.577331
O30   O     O_R   0.028750 0.550880 0.971260 -0.577323
O31   O     O_R   0.471250 0.050880 0.028740 -0.576539
O32   O     O_R   0.528750 0.050880 0.971260 -0.576532
C159  C     C_R   1.000000 0.567161 0.000001 0.980074
C160  C     C_R   0.500000 0.067166 0.000000 0.984948
O33   O     O_R   0.499970 0.449010 0.051630 -0.589218
O34   O     O_R   0.500030 0.449010 0.948370 -0.589219
O35   O     O_R   0.999970 0.949010 0.051630 -0.587647
O36   O     O_R   0.000030 0.949010 0.948370 -0.587839
C161  C     C_R   0.500000 0.432800 1.000000 1.011993
C162  C     C_R   0.999999 0.932797 0.000000 1.019169
O37   O     O_R   0.449080 0.499920 0.102620 -0.591000
O38   O     O_R   0.550920 0.499920 0.897380 -0.591000
O39   O     O_R   0.949080 0.999920 0.102620 -0.603706
O40   O     O_R   0.050920 0.999920 0.897380 -0.603871
O41   O     O_R   0.449080 0.499990 0.999170 -0.635947
O42   O     O_R   0.550920 0.499990 0.000830 -0.635946
O43   O     O_R   0.949080 0.999990 0.999170 -0.631659
O44   O     O_R   0.050920 0.999990 0.000830 -0.631329
C163  C     C_R   0.432756 0.499936 0.067223 0.904604
C164  C     C_R   0.567244 0.499936 0.932777 0.904604
C165  C     C_R   0.932726 0.000064 0.067160 0.912173
C166  C     C_R   0.067272 0.000077 0.932841 0.912267
Zn9   Zn    Zn3+2 0.499990 0.499910 0.069080 1.042662
Zn10  Zn    Zn3+2 0.500010 0.499910 0.930920 1.042664
Zn11  Zn    Zn3+2 0.999990 0.999910 0.069080 1.038907
Zn12  Zn    Zn3+2 0.000010 0.999910 0.930920 1.038595
O45   O     O_R   0.500000 0.550830 0.051830 -0.626854
O46   O     O_R   0.500000 0.550830 0.948170 -0.626852
O47   O     O_R   0.000000 0.050830 0.051830 -0.627108
O48   O     O_R   0.000000 0.050830 0.948170 -0.626995
C167  C     C_R   0.500000 0.567151 0.000000 0.855782
C168  C     C_R   0.000000 0.067127 0.000000 0.856885
C169  C     C_R   0.492601 0.622819 0.952818 -0.176777
C170  C     C_R   0.507398 0.622819 0.047187 -0.176779
C171  C     C_R   0.008737 0.122719 0.045214 -0.178328
C172  C     C_R   0.991266 0.122720 0.954786 -0.178251
H77   H     H_    0.486662 0.609395 0.916188 0.168064
H78   H     H_    0.513337 0.609394 0.083816 0.168062
H79   H     H_    0.015736 0.109275 0.080240 0.165959
H80   H     H_    0.984267 0.109276 0.919759 0.165987
C173  C     C_R   0.492426 0.658546 0.953110 -0.057478
C174  C     C_R   0.507573 0.658546 0.046897 -0.057484
C175  C     C_R   0.008940 0.158434 0.044869 -0.057970
C176  C     C_R   0.991066 0.158435 0.955131 -0.057973
H81   H     H_    0.486394 0.672280 0.916917 0.154890
H82   H     H_    0.513605 0.672279 0.083090 0.154886
H83   H     H_    0.016043 0.172164 0.079455 0.154153
H84   H     H_    0.983963 0.172166 0.920546 0.154160
C177  C     C_R   0.499999 0.676458 0.000004 0.232171
C178  C     C_R   0.000003 0.176336 0.000000 0.233876
C179  C     C_R   0.500000 0.604729 0.000002 -0.046299
C180  C     C_R   0.000001 0.104659 0.000000 -0.043541
C181  C     C_R   0.475799 0.732029 0.060691 0.202771
C182  C     C_R   0.524202 0.732027 0.939316 0.202771
C183  C     C_R   0.022938 0.231893 0.938029 0.201449
C184  C     C_R   0.977070 0.231894 0.061973 0.201450
C185  C     C_R   0.022524 0.267922 0.937924 0.207001
C186  C     C_R   0.977483 0.267923 0.062077 0.207003
C187  C     C_R   0.476018 0.768086 0.060868 0.203009
C188  C     C_R   0.523984 0.768084 0.939137 0.202999
C189  C     C_R   0.000003 0.285829 0.000000 -0.269230
C190  C     C_R   0.500001 0.785989 0.000002 -0.266091
C191  C     C_R   0.500000 0.714108 0.000004 -0.266852
C192  C     C_R   0.000004 0.213962 0.000001 -0.266722
C193  C     C_R   0.028412 0.341385 0.994986 -0.055059
C194  C     C_R   0.971592 0.341384 0.005014 -0.055066
C195  C     C_R   0.528367 0.841538 0.995240 -0.053096
C196  C     C_R   0.471635 0.841538 0.004759 -0.053115
H85   H     H_    0.050428 0.327631 0.991244 0.159338
H86   H     H_    0.949576 0.327629 0.008756 0.159346
H87   H     H_    0.550334 0.827802 0.991788 0.159487
H88   H     H_    0.449669 0.827802 0.008212 0.159509
C197  C     C_R   0.028414 0.377149 0.995058 -0.183562
C198  C     C_R   0.971589 0.377148 0.004942 -0.183576
C199  C     C_R   0.528410 0.877269 0.995080 -0.184611
C200  C     C_R   0.471591 0.877269 0.004919 -0.184683
H89   H     H_    0.050512 0.390669 0.991453 0.170274
H90   H     H_    0.949490 0.390667 0.008547 0.170281
H91   H     H_    0.550496 0.890795 0.991533 0.176379
H92   H     H_    0.449506 0.890794 0.008466 0.176410
C201  C     C_R   0.000001 0.395206 0.000000 -0.084844
C202  C     C_R   0.500000 0.895288 1.000000 -0.092744
C203  C     C_R   0.000002 0.323476 0.000000 0.199030
C204  C     C_R   0.500001 0.823632 1.000000 0.214630
C205  C     C_R   0.524759 0.377268 0.939875 0.272474
C206  C     C_R   0.475240 0.377269 0.060123 0.272476
C207  C     C_R   0.024645 0.877254 0.939740 0.279466
C208  C     C_R   0.975346 0.877257 0.060265 0.279172
C209  C     C_R   0.524089 0.341436 0.940309 -0.208304
C210  C     C_R   0.475909 0.341437 0.059689 -0.208306
C211  C     C_R   0.023966 0.841421 0.940177 -0.200415
C212  C     C_R   0.976020 0.841424 0.059829 -0.200435
H93   H     H_    0.543279 0.327437 0.894835 0.186628
H94   H     H_    0.456719 0.327439 0.105163 0.186628
H95   H     H_    0.043066 0.827418 0.894588 0.188441
H96   H     H_    0.956919 0.827423 0.105418 0.188437
C213  C     C_R   0.499999 0.323509 0.999999 -0.014981
C214  C     C_R   0.999992 0.823496 0.000003 -0.016687
C215  C     C_R   0.500000 0.395362 0.999999 -0.295052
C216  C     C_R   0.999997 0.895353 0.000002 -0.295945
C217  C     C_R   0.497024 0.267849 0.058883 -0.160753
C218  C     C_R   0.502974 0.267848 0.941115 -0.160758
C219  C     C_R   0.997285 0.767838 0.058664 -0.153729
C220  C     C_R   0.002697 0.767836 0.941347 -0.153812
H97   H     H_    0.495168 0.281384 0.104402 0.157421
H98   H     H_    0.504829 0.281383 0.895596 0.157413
H99   H     H_    0.995636 0.781377 0.104000 0.161036
H100  H     H_    0.004346 0.781374 0.896010 0.160996
C221  C     C_R   0.997267 0.732136 0.058676 -0.157301
C222  C     C_R   0.002718 0.732134 0.941334 -0.157309
C223  C     C_R   0.496997 0.232148 0.058901 -0.166398
C224  C     C_R   0.503000 0.232147 0.941098 -0.166415
H101  H     H_    0.995583 0.718572 0.104020 0.161741
H102  H     H_    0.004403 0.718569 0.895989 0.161729
H103  H     H_    0.495093 0.218581 0.104432 0.153737
H104  H     H_    0.504904 0.218580 0.895567 0.153721
C225  C     C_R   0.999993 0.714125 0.000005 0.141179
C226  C     C_R   0.499999 0.214141 1.000000 0.147963
C227  C     C_R   0.499999 0.285880 0.999999 0.140870
C228  C     C_R   0.999991 0.785868 0.000005 0.137239
C229  C     C_R   0.024550 0.658608 0.940814 -0.263747
C230  C     C_R   0.975442 0.658607 0.059193 -0.263769
C231  C     C_R   0.524768 0.158631 0.941098 -0.273779
C232  C     C_R   0.475229 0.158632 0.058902 -0.273777
H105  H     H_    0.043658 0.672671 0.895335 0.154393
H106  H     H_    0.956333 0.672669 0.104672 0.154387
H107  H     H_    0.544038 0.172697 0.895846 0.152819
H108  H     H_    0.455959 0.172699 0.104153 0.152823
C233  C     C_R   0.024803 0.622639 0.940191 0.387320
C234  C     C_R   0.975194 0.622638 0.059814 0.387324
C235  C     C_R   0.525024 0.122662 0.940473 0.386028
C236  C     C_R   0.474974 0.122663 0.059527 0.386035
C237  C     C_R   0.999999 0.604705 0.000002 -0.145203
C238  C     C_R   0.499999 0.104721 0.000000 -0.145290
C239  C     C_R   0.999995 0.676524 0.000004 0.023436
C240  C     C_R   0.499999 0.176543 1.000000 0.022232
O49   O     O_3   0.060245 0.375238 0.831533 -0.703131
H109  H     H_    0.035156 0.371154 0.852416 0.358480
O50   O     O_3   0.939750 0.375240 0.168468 -0.703134
H110  H     H_    0.964840 0.371155 0.147584 0.358484
O51   O     O_3   0.573308 0.885414 0.823543 -0.711650
H111  H     H_    0.548641 0.879076 0.845036 0.360274
O52   O     O_3   0.426661 0.885435 0.176465 -0.711687
H112  H     H_    0.451327 0.879089 0.154974 0.360279
N1    N     N_R   0.283882 0.464229 0.321903 0.199465
O53   O     O_R   0.270326 0.466008 0.390438 -0.363894
O54   O     O_R   0.310171 0.444056 0.286832 -0.329551
N2    N     N_R   0.716119 0.464232 0.678093 0.199465
O55   O     O_R   0.729675 0.466013 0.609558 -0.363894
O56   O     O_R   0.689831 0.444059 0.713162 -0.329550
N3    N     N_R   0.784559 0.934592 0.245807 0.205433
O57   O     O_R   0.769920 0.913533 0.299152 -0.354880
O58   O     O_R   0.812755 0.924979 0.190016 -0.336576
N4    N     N_R   0.215396 0.934336 0.756515 0.205577
O59   O     O_R   0.230062 0.912813 0.704019 -0.354824
O60   O     O_R   0.187159 0.925073 0.812596 -0.336924
N5    N     N_R   0.931565 0.637918 0.741070 0.215624
O61   O     O_R   0.909030 0.658247 0.738162 -0.352055
O62   O     O_R   0.957098 0.651403 0.746066 -0.363261
N6    N     N_R   0.068436 0.637915 0.258936 0.215632
O63   O     O_R   0.090971 0.658243 0.261844 -0.352011
O64   O     O_R   0.042903 0.651401 0.253941 -0.363226
N7    N     N_R   0.407747 0.099005 0.682174 0.223518
O65   O     O_R   0.379988 0.109129 0.681540 -0.346770
O66   O     O_R   0.435549 0.117501 0.649536 -0.354550
N8    N     N_R   0.592300 0.099056 0.317537 0.223665
O67   O     O_R   0.620067 0.109193 0.318126 -0.346377
O68   O     O_R   0.564517 0.117588 0.350057 -0.354504
O69   O     O_3   0.108379 0.541575 0.480796 -0.728960
H113  H     H_    0.084290 0.534265 0.511781 0.344058
O70   O     O_3   0.891621 0.541574 0.519203 -0.728960
H114  H     H_    0.915710 0.534264 0.488218 0.344059
O71   O     O_3   0.609641 0.052821 0.454537 -0.699683
H115  H     H_    0.588142 0.044355 0.495359 0.345136
O72   O     O_3   0.390386 0.052543 0.544676 -0.700033
H116  H     H_    0.411958 0.044039 0.504104 0.345017
N9    N     N_R   0.451229 0.713641 0.122453 0.239551
O73   O     O_R   0.448106 0.720501 0.184226 -0.307107
O74   O     O_R   0.431752 0.690139 0.117243 -0.352739
N10   N     N_R   0.548772 0.713638 0.877555 0.239549
O75   O     O_R   0.551896 0.720496 0.815782 -0.307099
O76   O     O_R   0.568248 0.690135 0.882768 -0.352750
N11   N     N_R   0.046501 0.213579 0.875092 0.237581
O77   O     O_R   0.048234 0.220671 0.814617 -0.305329
O78   O     O_R   0.066612 0.190039 0.877850 -0.355242
N12   N     N_R   0.953506 0.213581 0.124910 0.237582
O79   O     O_R   0.951774 0.220674 0.185385 -0.305329
O80   O     O_R   0.933395 0.190042 0.122153 -0.355215
N13   N     N_R   0.044948 0.286383 0.874625 0.254037
O81   O     O_R   0.032004 0.304612 0.842847 -0.347040
O82   O     O_R   0.078152 0.282399 0.845109 -0.297681
N14   N     N_R   0.955059 0.286385 0.125376 0.254035
O83   O     O_R   0.968002 0.304615 0.157153 -0.347057
O84   O     O_R   0.921855 0.282401 0.154893 -0.297661
N15   N     N_R   0.451679 0.786529 0.122712 0.248210
O85   O     O_R   0.462305 0.809153 0.152072 -0.357797
O86   O     O_R   0.418871 0.780288 0.150629 -0.294815
N16   N     N_R   0.548322 0.786525 0.877292 0.248218
O87   O     O_R   0.537695 0.809144 0.847925 -0.357752
O88   O     O_R   0.581131 0.780285 0.849377 -0.294818
N17   N     N_R   0.551449 0.394703 0.879279 0.224960
O89   O     O_R   0.568066 0.420198 0.887666 -0.386815
O90   O     O_R   0.562761 0.381898 0.816185 -0.341569
N18   N     N_R   0.448551 0.394706 0.120719 0.224960
O91   O     O_R   0.431933 0.420200 0.112332 -0.386818
O92   O     O_R   0.437239 0.381901 0.183813 -0.341566
N19   N     N_R   0.051242 0.894685 0.878993 0.224667
O93   O     O_R   0.067952 0.920158 0.887157 -0.387456
O94   O     O_R   0.062391 0.881890 0.815941 -0.347396
N20   N     N_R   0.948752 0.894692 0.121011 0.224745
O95   O     O_R   0.932044 0.920168 0.112848 -0.387004
O96   O     O_R   0.937603 0.881897 0.184064 -0.346934
O97   O     O_3   0.048450 0.604576 0.881467 -0.730102
H117  H     H_    0.063722 0.621026 0.844373 0.348602
O98   O     O_3   0.951548 0.604574 0.118538 -0.730106
H118  H     H_    0.936274 0.621024 0.155633 0.348601
O99   O     O_3   0.548897 0.104610 0.881998 -0.731207
H119  H     H_    0.564312 0.121065 0.845099 0.346504
O100  O     O_3   0.451102 0.104611 0.118002 -0.731189
H120  H     H_    0.435686 0.121067 0.154901 0.346519
O101  O     O_3   0.094394 0.499986 0.686297 -0.738883
H121  H     H_    0.119614 0.503599 0.664262 0.345063
O102  O     O_3   0.905607 0.499990 0.313701 -0.738882
H122  H     H_    0.880387 0.503606 0.335736 0.345063
O103  O     O_3   0.596113 0.009885 0.679225 -0.748947
H123  H     H_    0.621001 0.015520 0.656181 0.342444
O104  O     O_3   0.403885 0.009906 0.320779 -0.748790
H124  H     H_    0.378998 0.015546 0.343822 0.342492

loop_
_geom_bond_atom_site_label_1
_geom_bond_atom_site_label_2
_geom_bond_distance
_ccdc_geom_bond_type
C174  H82   1.083390 S    
O1    Zn1   2.011934 S    
C131  C151  1.397248 A    
C47   H23   1.085825 S    
C115  C151  1.459946 S    
Zn8   O32   2.015882 S    
C105  N1    1.439296 S    
O102  H122  0.991702 S    
O26   C156  1.274005 A    
O19   Zn7   2.015886 S    
N18   O92   1.301401 A    
C186  N14   1.433204 S    
H3    C31   1.082379 S    
C187  N15   1.436859 S    
C170  H78   1.083010 S    
O20   C154  1.283906 A    
N2    O55   1.301435 A    
C122  C126  1.404329 A    
C90   C94   1.402647 A    
O25   C155  1.274005 A    
C8    C52   1.420444 S    
C220  C222  1.389109 A    
C12   N8    1.439374 S    
C222  H102  1.083269 S    
C133  H69   1.083665 S    
C148  H76   1.083800 S    
O31   C160  1.283581 A    
C117  C121  1.387714 A    
Zn12  O48   2.015961 S    
Zn10  O46   2.015961 S    
C141  C145  1.394082 A    
C81   H37   1.083243 S    
C206  C215  1.415453 A    
C130  C134  1.387420 A    
C59   O103  1.381053 S    
C86   H42   1.083281 S    
C124  H64   1.083792 S    
N14   O83   1.300247 A    
N9    O74   1.301259 A    
C82   C102  1.401866 A    
C198  H90   1.083058 S    
C120  C124  1.386034 A    
C60   O104  1.381057 S    
C87   C91   1.397216 A    
C170  C179  1.403707 A    
O18   C153  1.284451 A    
N5    O62   1.301602 A    
C18   C54   1.479310 S    
C176  C178  1.399550 A    
O44   Zn11  2.012412 S    
C143  C147  1.391931 A    
C136  H72   1.083489 S    
C167  C179  1.462125 S    
C183  C192  1.411070 A    
C106  C126  1.417412 A    
C114  C118  1.395109 A    
C97   H49   1.083253 S    
C20   C56   1.481641 S    
C98   C102  1.401263 A    
C67   C71   1.397399 A    
C170  C174  1.390104 A    
C232  H108  1.083687 S    
C236  C238  1.409619 A    
O23   C157  1.278988 A    
C46   H22   1.085692 S    
C74   H34   1.083819 S    
Zn9   O45   2.015968 S    
O16   Zn4   2.015514 S    
C35   C55   1.383199 A    
C188  N16   1.436855 S    
O43   C165  1.283933 A    
O7    Zn4   2.011178 S    
C197  C201  1.403045 A    
C220  C228  1.402143 A    
C42   C78   1.478747 S    
O15   C7    1.275790 A    
C132  C136  1.385757 A    
C81   C101  1.401868 A    
C38   C42   1.408899 A    
O4    Zn2   2.011942 S    
O33   Zn9   2.016126 S    
C84   C104  1.404373 A    
O34   Zn10  2.016132 S    
C124  C128  1.400918 A    
O9    C5    1.274704 A    
C25   H13   1.081256 S    
C217  C223  1.389063 A    
C106  C110  1.398933 A    
C69   O49   1.376645 S    
C219  C221  1.389109 A    
N10   O76   1.301261 A    
N6    O63   1.301572 A    
N15   O86   1.301125 A    
O21   C155  1.278793 A    
C146  H74   1.083953 S    
N16   O88   1.301122 A    
N20   O96   1.301398 A    
O22   C156  1.278794 A    
C190  C204  1.464646 S    
O8    Zn4   2.011170 S    
C13   C17   1.403787 A    
O42   C164  1.285099 A    
C15   C19   1.403836 A    
C210  H94   1.083622 S    
O47   C168  1.287374 A    
C81   C85   1.390411 A    
C16   C20   1.403819 A    
C3    C139  1.459863 S    
C169  C179  1.403703 A    
C38   C156  1.433268 S    
O3    Zn2   2.011934 S    
C44   C48   1.383015 A    
C12   C32   1.406440 A    
C208  N20   1.438982 S    
O41   C163  1.285097 A    
C57   C77   1.408253 A    
C132  C152  1.397379 A    
C9    N5    1.439657 S    
C27   H15   1.082405 S    
C99   H51   1.083014 S    
C28   H16   1.082408 S    
C90   C126  1.468085 S    
O28   Zn7   2.016097 S    
C5    C49   1.426831 S    
O30   C159  1.283481 A    
C21   H9    1.082806 S    
C7    C51   1.420470 S    
C181  C187  1.402985 A    
C23   H11   1.083188 S    
C96   C100  1.390877 A    
O71   H115  0.989665 S    
C75   H35   1.083869 S    
O3    C3    1.285308 A    
C73   H33   1.083818 S    
C20   C24   1.402107 A    
C119  C123  1.386054 A    
O38   C164  1.285443 A    
N11   O78   1.301267 A    
O38   Zn10  2.012177 S    
C229  C239  1.398113 A    
C147  H75   1.083828 S    
C110  C114  1.397864 A    
O33   C161  1.281379 A    
O49   H109  0.991236 S    
C218  C227  1.402172 A    
C108  C112  1.397792 A    
C37   C155  1.433268 S    
N7    O66   1.301527 A    
C39   C43   1.412444 A    
C33   C37   1.396287 A    
C10   C30   1.406210 A    
C35   C39   1.401058 A    
C200  C202  1.402351 A    
N5    O61   1.301574 A    
C69   C73   1.407482 A    
C231  C235  1.399548 A    
C40   C158  1.440785 S    
C61   C65   1.396012 A    
C161  C215  1.456662 S    
C89   C93   1.402649 A    
C142  C146  1.394082 A    
C135  H71   1.083466 S    
C2    C138  1.456184 S    
C21   C25   1.396844 A    
O40   C166  1.287707 A    
C108  C128  1.414025 A    
C217  H97   1.083204 S    
O25   Zn6   2.016092 S    
C24   C28   1.395552 A    
C27   C31   1.396352 A    
O5    Zn3   2.011178 S    
C45   C49   1.393109 A    
Zn6   O30   2.015882 S    
O52   H112  0.991422 S    
C222  C225  1.401668 A    
O37   Zn9   2.012173 S    
C47   C51   1.391613 A    
C34   C54   1.383903 A    
C138  C142  1.419043 A    
C172  C180  1.403285 A    
O46   C167  1.287833 A    
C143  O71   1.379327 S    
C197  H89   1.083056 S    
C6    C50   1.426829 S    
C123  C127  1.401014 A    
C154  C202  1.457860 S    
C218  C224  1.389063 A    
C224  H104  1.083262 S    
C121  C125  1.404335 A    
N1    O54   1.301449 A    
C119  H59   1.083507 S    
C205  C209  1.394435 A    
O48   C168  1.287373 A    
C114  C150  1.455379 S    
C10   N6    1.439654 S    
N12   O79   1.301168 A    
C91   C95   1.400298 A    
O13   Zn3   2.015504 S    
C92   C96   1.400283 A    
C130  H66   1.083477 S    
C93   C97   1.390452 A    
C183  C185  1.401969 A    
N16   O87   1.300958 A    
O19   C154  1.283904 A    
C193  C203  1.399468 A    
C115  C119  1.397483 A    
C199  H91   1.083131 S    
O34   C161  1.281382 A    
C68   H32   1.082774 S    
C87   H43   1.083615 S    
O5    C1    1.282355 A    
O97   H117  0.991770 S    
C71   C75   1.407350 A    
C11   C31   1.406432 A    
O8    C4    1.284989 A    
C66   H30   1.082785 S    
C129  C149  1.395857 A    
O15   Zn4   2.015504 S    
C74   C78   1.401837 A    
C65   H29   1.082786 S    
C235  O99   1.382495 S    
C223  H103  1.083266 S    
C98   H50   1.083250 S    
C67   H31   1.082776 S    
C195  C204  1.399728 A    
C182  C188  1.402981 A    
O10   C6    1.274704 A    
H1    C29   1.082327 S    
C171  C175  1.389617 A    
O24   C158  1.278997 A    
C72   O52   1.378278 S    
C49   C53   1.406950 A    
C99   C103  1.403168 A    
C221  C225  1.401666 A    
C100  C104  1.403121 A    
C61   H25   1.082739 S    
C144  C148  1.391925 A    
C60   C80   1.408434 A    
O14   C6    1.278069 A    
C63   H27   1.082745 S    
C88   H44   1.083562 S    
N10   O75   1.301186 A    
C59   C63   1.408541 A    
C41   C77   1.478747 S    
N17   O90   1.301401 A    
C195  C199  1.390225 A    
O35   Zn11  2.016126 S    
C145  H73   1.083954 S    
C129  C133  1.387420 A    
O17   Zn5   2.015886 S    
N2    O56   1.301451 A    
O18   Zn6   2.015894 S    
C36   C40   1.401069 A    
O22   Zn6   2.015199 S    
C118  H58   1.083567 S    
O21   Zn5   2.015195 S    
C82   C86   1.390414 A    
C105  C109  1.398933 A    
C52   C56   1.403640 A    
C206  C210  1.394434 A    
O32   C160  1.283579 A    
C171  C180  1.403292 A    
C199  C202  1.402352 A    
C13   H5    1.083231 S    
O36   Zn12  2.016132 S    
C187  C190  1.409727 A    
C85   H41   1.083279 S    
C14   C18   1.403782 A    
C205  N17   1.438973 S    
C113  C117  1.395108 A    
C16   H8    1.082666 S    
O23   Zn7   2.015195 S    
C134  C138  1.402226 A    
N14   O84   1.300949 A    
N9    O73   1.301186 A    
C213  C227  1.464082 S    
O98   H118  0.991767 S    
C121  H61   1.083450 S    
C139  C143  1.418663 A    
C41   C45   1.382099 A    
C220  H100  1.083213 S    
C33   C53   1.383902 A    
C26   H14   1.081260 S    
C43   C47   1.383001 A    
C48   C52   1.391598 A    
O51   H111  0.991422 S    
C177  C191  1.464911 S    
N19   O93   1.301044 A    
C225  C239  1.463027 S    
C40   C44   1.412467 A    
N3    O58   1.301380 A    
C22   H10   1.082805 S    
C116  C120  1.397592 A    
C209  C213  1.397474 A    
C75   C79   1.404358 A    
C76   C80   1.404366 A    
C175  C178  1.399553 A    
C62   H26   1.082741 S    
C92   C128  1.457304 S    
N4    O59   1.301467 A    
C50   C54   1.406948 A    
C51   C55   1.403702 A    
C106  N2    1.439294 S    
C118  C122  1.387719 A    
C231  C240  1.397994 A    
C169  C173  1.390104 A    
C147  C151  1.399754 A    
C110  H54   1.083813 S    
C108  N4    1.440570 S    
N8    O67   1.301596 A    
C207  N19   1.438981 S    
C109  C113  1.397866 A    
C186  C189  1.407288 A    
C19   C55   1.481710 S    
C112  C116  1.401254 A    
C33   H17   1.085324 S    
O4    C4    1.285257 A    
C232  C240  1.397998 A    
O6    Zn3   2.011170 S    
C120  H60   1.083487 S    
C72   C76   1.407349 A    
N6    O64   1.301604 A    
N11   O77   1.301169 A    
O44   C166  1.283896 A    
O101  H121  0.991704 S    
C232  C236  1.399548 A    
N18   O91   1.301046 A    
C135  C139  1.402954 A    
C234  O98   1.382477 S    
O12   Zn2   2.015720 S    
C210  C213  1.397474 A    
C212  C214  1.397448 A    
O72   H116  0.989640 S    
C196  C204  1.399735 A    
C132  H68   1.083337 S    
C235  C238  1.409617 A    
C104  C166  1.460404 S    
C82   H38   1.083245 S    
Zn5   O29   2.015891 S    
C45   H21   1.085689 S    
C19   C23   1.402120 A    
O37   C163  1.285447 A    
N13   O81   1.300256 A    
C9    C13   1.406973 A    
C64   H28   1.082744 S    
C111  C115  1.401122 A    
C22   C26   1.396846 A    
C11   C15   1.407951 A    
O27   C157  1.277808 A    
C131  H67   1.083357 S    
C212  H96   1.083630 S    
C37   C41   1.408899 A    
C146  C150  1.398416 A    
C181  N9    1.437920 S    
O1    C1    1.285528 A    
C173  H81   1.083396 S    
C58   O102  1.381123 S    
C230  H106  1.083673 S    
C205  C215  1.415451 A    
C217  C227  1.402175 A    
C93   H45   1.083203 S    
C60   C64   1.408541 A    
C94   C98   1.390457 A    
C184  N12   1.438216 S    
C185  N13   1.433205 S    
C44   C80   1.482056 S    
C68   C72   1.397399 A    
O39   Zn11  2.012173 S    
C182  C191  1.410852 A    
C211  H95   1.083630 S    
Zn11  O47   2.015968 S    
C196  H88   1.083301 S    
C25   C29   1.396507 A    
C116  C152  1.460352 S    
O6    C2    1.282359 A    
C209  H93   1.083621 S    
C14   H6    1.083233 S    
C219  H99   1.083210 S    
C230  C239  1.398112 A    
C178  C192  1.463981 S    
C175  H83   1.083399 S    
C219  C228  1.402146 A    
Zn7   O31   2.015891 S    
C176  H84   1.083402 S    
C64   C68   1.396559 A    
C84   H40   1.083024 S    
C207  C216  1.415535 A    
C184  C192  1.411073 A    
C42   C46   1.382097 A    
C89   C125  1.468088 S    
O20   Zn8   2.015894 S    
C160  C238  1.461195 S    
C142  O70   1.381152 S    
O2    Zn1   2.011942 S    
C171  H79   1.083062 S    
O10   Zn1   2.015720 S    
C11   N7    1.439373 S    
O24   Zn8   2.015199 S    
O13   C5    1.278067 A    
C57   O101  1.381124 S    
C221  H101  1.083272 S    
C100  H52   1.082976 S    
C28   C32   1.396355 A    
N20   O95   1.301048 A    
C133  C137  1.402226 A    
O50   H110  0.991236 S    
C148  C152  1.399912 A    
C207  C211  1.394477 A    
C88   C92   1.397199 A    
O45   C167  1.287834 A    
C193  H85   1.083255 S    
C195  H87   1.083305 S    
C144  O72   1.379389 S    
C34   C38   1.396286 A    
C194  C203  1.399467 A    
C83   C103  1.404432 A    
C223  C226  1.401600 A    
C140  C144  1.418569 A    
C36   H20   1.084779 S    
C84   C88   1.387161 A    
N1    O53   1.301436 A    
C9    C29   1.406210 A    
C107  N3    1.440467 S    
O7    C3    1.285085 A    
C83   C87   1.387146 A    
N12   O80   1.301264 A    
C62   C66   1.396014 A    
O43   Zn12  2.012415 S    
C229  C233  1.399562 A    
O36   C162  1.281443 A    
O29   C159  1.283476 A    
C111  H55   1.083540 S    
C136  C140  1.402831 A    
C169  H77   1.083008 S    
O35   C162  1.281440 A    
C109  H53   1.083813 S    
C134  H70   1.083664 S    
C97   C101  1.401264 A    
O104  H124  0.991699 S    
C96   H48   1.083391 S    
C107  C127  1.414050 A    
O17   C153  1.284455 A    
C200  H92   1.083130 S    
O41   Zn10  2.012415 S    
C1    C137  1.456185 S    
O103  H123  0.991700 S    
C218  H98   1.083208 S    
O42   Zn9   2.012412 S    
C105  C125  1.417410 A    
C59   C79   1.408432 A    
C34   H18   1.085322 S    
C172  C176  1.389621 A    
C39   C157  1.440759 S    
C231  H107  1.083687 S    
C26   C30   1.396506 A    
C113  C149  1.455382 S    
C214  C228  1.464066 S    
C48   H24   1.085826 S    
C86   C90   1.401880 A    
O100  H120  0.991771 S    
C189  C203  1.464798 S    
C17   C21   1.401173 A    
C46   C50   1.393107 A    
O99   H119  0.991775 S    
C198  C201  1.403043 A    
C43   C79   1.482055 S    
C206  N18   1.438969 S    
H4    C32   1.082372 S    
C85   C89   1.401880 A    
O11   C7    1.273653 A    
C101  C163  1.458459 S    
O12   C8    1.273664 A    
C208  C216  1.415540 A    
C137  C141  1.419046 A    
O9    Zn1   2.015723 S    
C83   H39   1.083001 S    
C95   C99   1.390848 A    
C153  C201  1.459946 S    
C76   H36   1.083868 S    
C4    C140  1.459613 S    
C107  C111  1.397734 A    
N13   O82   1.300943 A    
C57   C61   1.408070 A    
C145  C149  1.398412 A    
O16   C8    1.275757 A    
C12   C16   1.407941 A    
C184  C186  1.401965 A    
N3    O57   1.301556 A    
C129  H65   1.083475 S    
O11   Zn2   2.015723 S    
C15   H7    1.082654 S    
N17   O89   1.301044 A    
C194  H86   1.083254 S    
C123  H63   1.083810 S    
C112  H56   1.083476 S    
C70   C74   1.407485 A    
C58   C78   1.408251 A    
C211  C214  1.397446 A    
C224  C226  1.401603 A    
C234  C237  1.409397 A    
C70   O50   1.376642 S    
C174  C177  1.399546 A    
N15   O85   1.300955 A    
C226  C240  1.462864 S    
C65   C69   1.397285 A    
C130  C150  1.395856 A    
C168  C180  1.460331 S    
O26   Zn5   2.016097 S    
C63   C67   1.396559 A    
O27   Zn8   2.016092 S    
H2    C30   1.082326 S    
C103  C165  1.460552 S    
C95   H47   1.083372 S    
C181  C191  1.410854 A    
C23   C27   1.395549 A    
C141  O69   1.381150 S    
O2    C2    1.285528 A    
C208  C212  1.394481 A    
C36   C56   1.383185 A    
C73   C77   1.401834 A    
C229  H105  1.083676 S    
C185  C189  1.407286 A    
C10   C14   1.406975 A    
O14   Zn3   2.015514 S    
C173  C177  1.399546 A    
C131  C135  1.385737 A    
O28   C158  1.277815 A    
N19   O94   1.301398 A    
C183  N11   1.438215 S    
C71   O51   1.378281 S    
C18   C22   1.401172 A    
C194  C198  1.391530 A    
C236  O100  1.382495 S    
C91   C127  1.457342 S    
C193  C197  1.391534 A    
O70   H114  0.988823 S    
C17   C53   1.479310 S    
C35   H19   1.084781 S    
O69   H113  0.988826 S    
N4    O60   1.301369 A    
C230  C234  1.399562 A    
C117  H57   1.083572 S    
C159  C237  1.460794 S    
C58   C62   1.408072 A    
C233  O97   1.382474 S    
N8    O68   1.301529 A    
C94   H46   1.083202 S    
N7    O65   1.301604 A    
C66   C70   1.397283 A    
C172  H80   1.083058 S    
C188  C190  1.409728 A    
C182  N10   1.437919 S    
C122  H62   1.083451 S    
O39   C165  1.287745 A    
O40   Zn12  2.012177 S    
C102  C164  1.458457 S    
C196  C200  1.390221 A    
C162  C216  1.456899 S    
C233  C237  1.409396 A    
C24   H12   1.083189 S    
