data_mof_unit_45175.cif
_audit_creation_date              2012-12-11T14:04:12-0500
_audit_creation_method            fapswitch 2.2
_symmetry_space_group_name_H-M    P1
_symmetry_Int_Tables_number       1
_space_group_crystal_system       triclinic
_cell_length_a                    19.155614
_cell_length_b                    10.897619
_cell_length_c                    18.785279
_cell_angle_alpha                 90.081513
_cell_angle_beta                  88.625984
_cell_angle_gamma                 89.94007
_cell_volume                      3920.30414695

loop_
_atom_site_label
_atom_site_type_symbol
_atom_type_description
_atom_site_fract_x
_atom_site_fract_y
_atom_site_fract_z
_atom_type_partial_charge
C1    C     C_R   0.240914 0.465924 0.647383 0.544811
C2    C     C_R   0.759387 0.466107 0.352769 0.537436
C3    C     C_R   0.740915 0.965921 0.647385 0.543389
C4    C     C_R   0.259385 0.966100 0.352766 0.539311
C5    C     C_2   0.276431 0.818601 0.531645 -0.158333
C6    C     C_2   0.728148 0.813927 0.468959 -0.158193
C7    C     C_2   0.776437 0.318616 0.531650 -0.157872
C8    C     C_2   0.228141 0.313946 0.468953 -0.158780
C9    C     C_R   0.958086 0.652226 0.439310 -0.036556
C10   C     C_R   0.040662 0.658361 0.561355 -0.038441
C11   C     C_R   0.458082 0.152224 0.439311 -0.037514
C12   C     C_R   0.540661 0.158360 0.561354 -0.038450
C13   C     C_R   0.929884 0.868075 0.459850 -0.086128
C14   C     C_R   0.033369 0.886983 0.558129 -0.090722
C15   C     C_R   0.429881 0.368074 0.459850 -0.085367
C16   C     C_R   0.533373 0.386982 0.558124 -0.090430
C17   C     C_R   0.941768 0.980412 0.492269 -0.122645
C18   C     C_R   0.995602 0.990870 0.539751 -0.121523
C19   C     C_R   0.441770 0.480413 0.492265 -0.121925
C20   C     C_R   0.495607 0.490870 0.539744 -0.121219
C21   C     C_R   0.015595 0.769545 0.531978 0.015790
C22   C     C_R   0.969024 0.763786 0.475346 0.008218
C23   C     C_R   0.515594 0.269543 0.531976 0.015739
C24   C     C_R   0.469021 0.263784 0.475346 0.008143
C25   C     C_R   0.028829 0.546367 0.525109 0.018101
C26   C     C_R   0.979880 0.541651 0.471342 0.031318
C27   C     C_R   0.528826 0.046366 0.525109 0.018097
C28   C     C_R   0.479876 0.041649 0.471343 0.030946
C29   C     C_R   0.063846 0.437127 0.542445 -0.075698
C30   C     C_R   0.955542 0.425214 0.449650 -0.071492
C31   C     C_R   0.563845 0.937126 0.542443 -0.075711
C32   C     C_R   0.455539 0.925212 0.449650 -0.071084
C33   C     C_R   0.044941 0.324331 0.514099 -0.110359
C34   C     C_R   0.988816 0.317891 0.469431 -0.118309
C35   C     C_R   0.544941 0.824331 0.514096 -0.110431
C36   C     C_R   0.488814 0.817890 0.469429 -0.117558
C37   C     C_2   0.218753 0.843185 0.935936 -0.084860
C38   C     C_2   0.765360 0.893845 0.069699 -0.070051
C39   C     C_2   0.715263 0.330605 0.936760 -0.082940
C40   C     C_2   0.246318 0.429620 0.083742 -0.073261
C41   C     C_2   0.246405 0.892611 0.086905 -0.126047
C42   C     C_2   0.750999 0.896513 0.914328 -0.144531
C43   C     C_2   0.747128 0.393985 0.085599 -0.138462
C44   C     C_2   0.242870 0.438351 0.927191 -0.137836
C45   C     C_R   0.227126 0.872996 0.646935 0.549345
C46   C     C_R   0.772247 0.874059 0.352632 0.527866
C47   C     C_R   0.727127 0.373001 0.646937 0.549186
C48   C     C_R   0.272244 0.374067 0.352629 0.528908
C49   C     C_2   0.183129 0.902580 0.057896 -0.126341
C50   C     C_2   0.810669 0.917327 0.947220 -0.108728
C51   C     C_2   0.682723 0.397054 0.058542 -0.123792
C52   C     C_2   0.270160 0.525303 0.969598 -0.125681
C53   C     C_2   0.169348 0.884679 0.982158 0.183585
C54   C     C_2   0.819912 0.897284 0.022419 0.206368
C55   C     C_2   0.668290 0.381330 0.982555 0.186519
C56   C     C_2   0.283110 0.510569 0.044894 0.205549
C57   C     C_2   0.041549 0.652524 0.933229 -0.071861
C58   C     C_2   0.019812 0.662772 0.088077 -0.093008
C59   C     C_2   0.541945 0.153333 0.933009 -0.074599
C60   C     C_2   0.518034 0.164488 0.087108 -0.116432
C61   C     C_2   0.041303 0.562399 0.052450 -0.157410
C62   C     C_2   0.065871 0.568043 0.978085 -0.172408
C63   C     C_2   0.542582 0.065020 0.052697 -0.151425
C64   C     C_2   0.567053 0.070264 0.978266 -0.168754
C65   C     C_R   0.061463 0.651103 0.636780 0.537315
C66   C     C_R   0.938026 0.649947 0.363254 0.531296
C67   C     C_R   0.561463 0.151103 0.636779 0.537216
C68   C     C_R   0.438024 0.149946 0.363255 0.529862
C69   C     C_R   0.237317 0.469693 0.852518 0.546383
C70   C     C_R   0.760929 0.462681 0.150380 0.560793
C71   C     C_R   0.738748 0.963065 0.849364 0.538617
C72   C     C_R   0.260749 0.962301 0.150830 0.565712
C73   C     C_R   0.207793 0.825831 0.860295 0.559104
C74   C     C_R   0.776791 0.866095 0.143878 0.581344
C75   C     C_R   0.706789 0.322914 0.859780 0.568862
C76   C     C_R   0.272084 0.376598 0.148749 0.581791
C77   C     C_R   0.061504 0.647398 0.858436 0.553828
C78   C     C_R   0.973854 0.652441 0.150811 0.589512
C79   C     C_R   0.561727 0.147466 0.858323 0.553877
C80   C     C_R   0.473390 0.152675 0.150498 0.566386
C81   C     C_2   0.247606 0.905612 0.574494 -0.105741
C82   C     C_2   0.751422 0.904953 0.425487 -0.113746
C83   C     C_2   0.747611 0.405624 0.574499 -0.105526
C84   C     C_2   0.251416 0.404969 0.425480 -0.113334
C85   C     C_2   0.240670 0.907515 0.419931 -0.109646
C86   C     C_2   0.760733 0.908956 0.579943 -0.109525
C87   C     C_2   0.740674 0.407530 0.419938 -0.110444
C88   C     C_2   0.260728 0.408975 0.579936 -0.109418
C89   C     C_2   0.284276 0.834890 0.454482 -0.179837
C90   C     C_2   0.720998 0.828862 0.546450 -0.185432
C91   C     C_2   0.784281 0.334906 0.454488 -0.180221
C92   C     C_2   0.220994 0.328878 0.546444 -0.185491
Cr1   Cr    Cr6+3 0.113970 0.508630 0.747920 1.028574
Cr2   Cr    Cr6+3 0.886030 0.508630 0.252080 1.025989
Cr3   Cr    Cr6+3 0.613970 0.008630 0.747920 1.030257
Cr4   Cr    Cr6+3 0.386030 0.008630 0.252080 1.046617
Cr5   Cr    Cr6+3 0.269200 0.666740 0.749850 1.040937
Cr6   Cr    Cr6+3 0.730800 0.666740 0.250150 1.042644
Cr7   Cr    Cr6+3 0.769200 0.166740 0.749850 1.036041
Cr8   Cr    Cr6+3 0.230800 0.166740 0.250150 1.034716
Cr9   Cr    Cr6+3 0.112300 0.820070 0.749800 1.066119
Cr10  Cr    Cr6+3 0.887700 0.820070 0.250200 1.071344
Cr11  Cr    Cr6+3 0.612300 0.320070 0.749800 1.068288
Cr12  Cr    Cr6+3 0.387700 0.320070 0.250200 1.072745
H1    H     H_    0.326587 0.788032 0.426405 0.129123
H2    H     H_    0.681240 0.777503 0.575594 0.130937
H3    H     H_    0.826590 0.288043 0.426410 0.127327
H4    H     H_    0.181242 0.277509 0.575589 0.130885
H5    H     H_    0.290645 0.849855 0.060125 0.152752
H6    H     H_    0.708250 0.845868 0.939273 0.116807
H7    H     H_    0.792112 0.358879 0.056120 0.113729
H8    H     H_    0.222253 0.351947 0.947023 0.109384
H9    H     H_    0.269492 0.815589 0.953861 0.079806
H10   H     H_    0.711738 0.899402 0.052697 0.051686
H11   H     H_    0.761911 0.287245 0.956381 0.076717
H12   H     H_    0.200020 0.387328 0.062191 0.066415
H13   H     H_    0.035145 0.471695 0.075651 0.169268
H14   H     H_    0.098578 0.493612 0.958033 0.143989
H15   H     H_    0.539516 0.974917 0.077233 0.176350
H16   H     H_    0.600892 0.996973 0.958632 0.138795
H17   H     H_    0.030499 0.753596 0.066997 0.183365
H18   H     H_    0.005581 0.723780 0.951025 0.197917
H19   H     H_    0.524988 0.255663 0.064846 0.150118
H20   H     H_    0.505566 0.224359 0.950254 0.167929
H21   H     H_    0.294061 0.731720 0.553169 0.153105
H22   H     H_    0.714672 0.724557 0.447603 0.156604
H23   H     H_    0.794067 0.231734 0.553172 0.153188
H24   H     H_    0.214666 0.224574 0.447598 0.156597
H25   H     H_    0.192873 0.939535 0.446313 0.113973
H26   H     H_    0.806274 0.947297 0.552670 0.118227
H27   H     H_    0.692878 0.439555 0.446320 0.114269
H28   H     H_    0.306264 0.447327 0.552660 0.118003
H29   H     H_    0.230232 0.993199 0.553841 0.093710
H30   H     H_    0.765030 0.994879 0.445819 0.092138
H31   H     H_    0.730237 0.493212 0.553848 0.093788
H32   H     H_    0.265023 0.494898 0.445810 0.092901
H33   H     H_    0.908735 0.058188 0.480946 0.097678
H34   H     H_    0.006530 0.078044 0.564433 0.113509
H35   H     H_    0.408738 0.558190 0.480942 0.098179
H36   H     H_    0.506538 0.578045 0.564423 0.113782
H37   H     H_    0.886079 0.858221 0.427819 0.152782
H38   H     H_    0.076209 0.900544 0.592446 0.166053
H39   H     H_    0.386074 0.358220 0.427823 0.152266
H40   H     H_    0.576213 0.400541 0.592440 0.166073
H41   H     H_    0.912209 0.416941 0.415117 0.151578
H42   H     H_    0.106118 0.439589 0.577896 0.154184
H43   H     H_    0.412205 0.916939 0.415118 0.151334
H44   H     H_    0.606120 0.939589 0.577892 0.154276
H45   H     H_    0.072992 0.242017 0.527716 0.097060
H46   H     H_    0.972352 0.230787 0.448224 0.106843
H47   H     H_    0.572995 0.742018 0.527709 0.097125
H48   H     H_    0.472352 0.730787 0.448220 0.108133
H49   H     H_    0.140279 0.942816 0.088954 0.197843
H50   H     H_    0.854333 0.960896 0.919165 0.209882
H51   H     H_    0.639549 0.432549 0.091097 0.191754
H52   H     H_    0.289837 0.610170 0.946867 0.178459
O1    O     O_R   0.043230 0.549300 0.667990 -0.495269
O2    O     O_R   0.956770 0.549300 0.332010 -0.516753
O3    O     O_R   0.543230 0.049300 0.667990 -0.495022
O4    O     O_R   0.456770 0.049300 0.332010 -0.515130
O5    O     O_R   0.262920 0.788600 0.824420 -0.497876
O6    O     O_R   0.737080 0.788600 0.175580 -0.497553
O7    O     O_R   0.762920 0.288600 0.824420 -0.491573
O8    O     O_R   0.237080 0.288600 0.175580 -0.506686
O9    O     O_R   0.167530 0.905110 0.830340 -0.431146
O10   O     O_R   0.832470 0.905110 0.169660 -0.445989
O11   O     O_R   0.667530 0.405110 0.830340 -0.430448
O12   O     O_R   0.332470 0.405110 0.169660 -0.430111
O13   O     O_R   0.054010 0.748440 0.822860 -0.454068
O14   O     O_R   0.945990 0.748440 0.177140 -0.443439
O15   O     O_R   0.554010 0.248440 0.822860 -0.457232
O16   O     O_R   0.445990 0.248440 0.177140 -0.477091
O17   O     O_3   0.165160 0.665150 0.749190 -0.328175
O18   O     O_3   0.834840 0.665150 0.250810 -0.279641
O19   O     O_3   0.665160 0.165150 0.749190 -0.328809
O20   O     O_3   0.334840 0.165150 0.250810 -0.283108
O21   O     O_R   0.178620 0.457600 0.674100 -0.526184
O22   O     O_R   0.821380 0.457600 0.325900 -0.529091
O23   O     O_R   0.678620 0.957600 0.674100 -0.526345
O24   O     O_R   0.321380 0.957600 0.325900 -0.526347
O25   O     O_R   0.284680 0.542100 0.669460 -0.509167
O26   O     O_R   0.715320 0.542100 0.330540 -0.516782
O27   O     O_R   0.784680 0.042100 0.669460 -0.510565
O28   O     O_R   0.215320 0.042100 0.330540 -0.517335
O29   O     O_R   0.262860 0.790390 0.676650 -0.484123
O30   O     O_R   0.737140 0.790390 0.323350 -0.491290
O31   O     O_R   0.762860 0.290390 0.676650 -0.484629
O32   O     O_R   0.237140 0.290390 0.323350 -0.493557
O33   O     O_R   0.167460 0.907030 0.670940 -0.543849
O34   O     O_R   0.832540 0.907030 0.329060 -0.542085
O35   O     O_R   0.667460 0.407030 0.670940 -0.543739
O36   O     O_R   0.332540 0.407030 0.329060 -0.536656
O37   O     O_R   0.053950 0.750220 0.675100 -0.494423
O38   O     O_R   0.946050 0.750220 0.324900 -0.494935
O39   O     O_R   0.553950 0.250220 0.675100 -0.493871
O40   O     O_R   0.446050 0.250220 0.324900 -0.492860
O41   O     O_R   0.043300 0.547370 0.827390 -0.481258
O42   O     O_R   0.956700 0.547370 0.172610 -0.509632
O43   O     O_R   0.543300 0.047370 0.827390 -0.478637
O44   O     O_R   0.456700 0.047370 0.172610 -0.496465
O45   O     O_R   0.178690 0.455820 0.821860 -0.510971
O46   O     O_R   0.821310 0.455820 0.178140 -0.486931
O47   O     O_R   0.678690 0.955820 0.821860 -0.510944
O48   O     O_R   0.321310 0.955820 0.178140 -0.470633
O49   O     O_R   0.284750 0.540170 0.828860 -0.497678
O50   O     O_R   0.715250 0.540170 0.171140 -0.501097
O51   O     O_R   0.784750 0.040170 0.828860 -0.513355
O52   O     O_R   0.215250 0.040170 0.171140 -0.509034
Cl1   Cl    Cl    0.086868 0.938143 0.955260 -0.565806
Cl2   Cl    Cl    0.908723 0.892989 0.045298 -0.571329
Cl3   Cl    Cl    0.588432 0.445667 0.955364 -0.574981
Cl4   Cl    Cl    0.350623 0.602699 0.079113 -0.570163

loop_
_geom_bond_atom_site_label_1
_geom_bond_atom_site_label_2
_ccdc_geom_bond_type
C70   O46   A    
C7    C83   D    
C14   H38   S    
Cr10  O14   S    
C6    C82   D    
C87   C91   D    
Cr3   O23   S    
C14   C18   A    
Cr9   O17   S    
C35   C36   A    
C66   O2    A    
C43   C51   D    
C50   H50   S    
Cr7   O31   S    
Cr8   O52   S    
C57   C62   D    
Cr12  O20   S    
C32   H43   S    
Cr11  O11   S    
C75   O11   A    
C12   C23   A    
C51   H51   S    
C59   C64   D    
C50   C54   S    
C35   H47   S    
C60   C63   D    
Cr3   O3    S    
C32   C36   A    
C14   C21   A    
C49   H49   S    
C16   H40   S    
C46   O34   A    
C48   O32   A    
Cr9   O33   S    
C2    O26   A    
Cr6   O18   S    
C49   C53   S    
C9    C22   A    
C37   H9    S    
Cr5   O29   S    
Cr3   O47   S    
C80   O44   A    
C53   Cl1   S    
C29   C33   A    
C11   C24   A    
C78   O14   A    
C63   H15   S    
C75   O7    A    
Cr2   O22   S    
C79   O15   A    
C18   H34   S    
C3    O23   A    
C9    C66   S    
Cr3   O19   S    
C66   O38   A    
C57   H18   S    
C46   C82   S    
C52   C56   S    
C1    O21   A    
C92   H4    S    
C39   C55   D    
C88   C92   D    
Cr9   O37   S    
C40   C56   D    
C71   O47   A    
Cr8   O20   S    
C73   O5    A    
C23   C24   A    
Cr9   O13   S    
C8    C92   S    
C39   C75   S    
Cr1   O45   S    
Cr7   O27   S    
C72   O48   A    
C37   C53   D    
C69   O49   A    
C44   C52   D    
C58   C61   D    
C71   O51   A    
Cr10  O10   S    
C41   H5    S    
C21   C22   A    
C3    C86   S    
C86   H26   S    
C61   C62   S    
Cr11  O39   S    
C4    O24   A    
C67   O39   A    
Cr10  O38   S    
C41   C49   D    
Cr6   O6    S    
C8    H24   S    
C9    C26   A    
Cr4   O48   S    
C65   O37   A    
C10   C21   A    
C25   C29   A    
C69   O45   A    
C12   C67   S    
C79   O43   A    
C30   C34   A    
C12   C27   A    
C61   H13   S    
C56   Cl4   S    
C57   C77   S    
C28   C32   A    
Cr5   O17   S    
C90   H2    S    
C72   O52   A    
C86   C90   D    
C59   C79   S    
C29   H42   S    
C74   O6    A    
Cr1   O21   S    
C36   H48   S    
C4    C85   S    
C51   C55   S    
C25   C26   A    
C6    C90   S    
C27   C31   A    
Cr4   O24   S    
C48   C84   S    
C48   O36   A    
Cr7   O51   S    
Cr2   O42   S    
C88   H28   S    
C81   H29   S    
C82   H30   S    
C60   H19   S    
C15   C19   A    
Cr8   O8    S    
C15   H39   S    
C85   H25   S    
Cr12  O12   S    
C5    C81   D    
C38   C54   D    
C16   C20   A    
C7    C91   S    
Cr11  O19   S    
C17   C18   A    
Cr12  O40   S    
C2    C87   S    
C68   O40   A    
C85   C89   D    
C46   O30   A    
Cr1   O1    S    
C6    H22   S    
C87   H27   S    
C42   C50   D    
C41   C72   S    
Cr2   O46   S    
C31   H44   S    
C44   H8    S    
C10   C25   A    
C65   O1    A    
C15   C24   A    
Cr4   O4    S    
C73   O9    A    
Cr2   O18   S    
C26   C30   A    
C16   C23   A    
C39   H11   S    
Cr7   O7    S    
C76   O8    A    
Cr11  O35   S    
C80   O16   A    
C47   O31   A    
Cr12  O16   S    
C74   O10   A    
C11   C68   S    
C30   H41   S    
C38   C74   S    
C10   C65   S    
C45   O33   A    
C59   H20   S    
Cr4   O44   S    
C77   O13   A    
C37   C73   S    
C60   C80   S    
C58   H17   S    
C1    O25   A    
Cr4   O20   S    
Cr8   O32   S    
C8    C84   D    
C83   H31   S    
C13   H37   S    
C45   C81   S    
C47   C83   S    
Cr2   O2    S    
C17   H33   S    
Cr5   O25   S    
Cr10  O18   S    
C70   O50   A    
Cr6   O26   S    
C43   C70   S    
C78   O42   A    
Cr5   O5    S    
C64   H16   S    
C13   C17   A    
Cr5   O49   S    
C89   H1    S    
C20   H36   S    
C19   C20   A    
C42   H6    S    
Cr6   O30   S    
C33   H45   S    
Cr9   O9    S    
Cr11  O15   S    
C45   O29   A    
C40   H12   S    
C3    O27   A    
C11   C28   A    
C1    C88   S    
C38   H10   S    
Cr1   O41   S    
Cr1   O17   S    
C42   C71   S    
Cr10  O34   S    
C33   C34   A    
C13   C22   A    
C76   O12   A    
C31   C35   A    
C34   H46   S    
C47   O35   A    
C52   H52   S    
Cr8   O28   S    
C62   H14   S    
C58   C78   S    
C55   Cl3   S    
C63   C64   S    
C43   H7    S    
C40   C76   S    
C54   Cl2   S    
Cr7   O19   S    
Cr3   O43   S    
C5    H21   S    
C27   C28   A    
C44   C69   S    
Cr6   O50   S    
C67   O3    A    
C2    O22   A    
C7    H23   S    
C68   O4    A    
C77   O41   A    
C19   H35   S    
C5    C89   S    
C4    O28   A    
C84   H32   S    
C91   H3    S    
Cr12  O36   S    
