data_mof_unit_20183.cif
_audit_creation_date              2012-12-10T17:32:17-0500
_audit_creation_method            fapswitch 2.2
_symmetry_space_group_name_H-M    P1
_symmetry_Int_Tables_number       1
_space_group_crystal_system       triclinic
_cell_length_a                    12.388081
_cell_length_b                    13.270923
_cell_length_c                    15.037646
_cell_angle_alpha                 76.418529
_cell_angle_beta                  101.280021
_cell_angle_gamma                 117.207445
_cell_volume                      2126.03194957

loop_
_atom_site_label
_atom_site_type_symbol
_atom_type_description
_atom_site_fract_x
_atom_site_fract_y
_atom_site_fract_z
_atom_type_partial_charge
C1    C     C_R   0.854880 0.286770 0.509053 0.757024
C2    C     C_R   0.955953 0.567031 0.071946 0.063274
C3    C     C_R   0.075659 0.350742 0.092449 -0.222595
C4    C     C_R   0.069544 0.344378 0.000573 -0.204706
C5    C     C_R   0.026788 0.412682 0.930221 0.114529
C6    C     C_R   0.992123 0.490329 0.954213 -0.026019
C7    C     C_R   0.953036 0.563360 0.885518 0.086094
C8    C     C_R   0.914411 0.637446 0.910687 0.192913
C9    C     C_R   0.915535 0.637512 0.003918 -0.211933
C10   C     C_R   0.017492 0.404976 0.836762 0.137990
C11   C     C_R   0.989599 0.485902 0.768888 -0.080517
C12   C     C_R   0.996288 0.494620 0.671284 0.799547
C13   C     C_R   0.955489 0.561765 0.793460 -0.286915
C14   C     C_R   0.279814 0.022171 0.374307 -0.188672
C15   C     C_R   0.228128 0.834936 0.468075 -0.043896
C16   C     C_R   0.812428 0.085634 0.575784 -0.193225
C17   C     C_R   0.732032 0.970885 0.596717 -0.148262
C18   C     C_R   0.609653 0.933251 0.562928 -0.160919
C19   C     C_R   0.565623 0.009894 0.503989 0.082275
C20   C     C_R   0.650900 0.123919 0.474469 0.082004
C21   C     C_R   0.440077 0.976887 0.472505 0.080416
C22   C     C_R   0.403397 0.054107 0.406250 0.164888
C23   C     C_R   0.145016 0.713267 0.486762 0.822765
C24   C     C_R   0.490615 0.160993 0.370604 -0.236623
C25   C     C_R   0.612691 0.194695 0.402933 -0.190597
C26   C     C_R   0.349471 0.869265 0.504995 -0.204854
C27   C     C_R   0.192488 0.912489 0.404497 -0.194025
C28   C     C_R   0.772589 0.163636 0.516742 -0.094646
C29   C     C_R   0.340011 0.322245 0.645754 -0.297054
C30   C     C_R   0.751764 0.629845 0.365224 0.082499
C31   C     C_R   0.642218 0.630559 0.322295 -0.257383
C32   C     C_R   0.537256 0.567720 0.367543 -0.112956
C33   C     C_R   0.542472 0.513575 0.459974 0.007842
C34   C     C_R   0.000450 0.500529 0.329111 0.822000
C35   C     C_R   0.651314 0.500597 0.494689 0.232048
C36   C     C_R   0.441186 0.462402 0.515321 -0.123423
C37   C     C_R   0.441636 0.378994 0.594357 0.119466
C38   C     C_R   0.544251 0.354828 0.621236 0.126618
C39   C     C_R   0.647509 0.417959 0.573308 -0.184201
C40   C     C_R   0.342866 0.495127 0.499457 0.397769
C41   C     C_R   0.242810 0.351704 0.622913 0.012574
C42   C     C_R   0.957090 0.568254 0.164613 -0.231195
C43   C     C_R   0.000095 0.499487 0.232674 -0.056051
C44   C     C_R   0.041627 0.428632 0.208628 -0.233035
C45   C     C_R   0.038003 0.424249 0.116422 0.124214
C46   C     C_R   0.995507 0.494021 0.047415 0.069991
Cu1   Cu    Cu3+1 0.098270 0.475420 0.521130 0.972162
Cu2   Cu    Cu3+1 0.901730 0.524580 0.478870 0.921667
H1    H     H_    0.926038 0.623741 0.183884 0.139933
H2    H     H_    0.464468 0.218821 0.317169 0.145041
H3    H     H_    0.251357 0.080671 0.323640 0.130692
H4    H     H_    0.370673 0.808720 0.557928 0.151423
H5    H     H_    0.905396 0.113927 0.608004 0.150055
H6    H     H_    0.552831 0.843143 0.582814 0.144528
H7    H     H_    0.763946 0.911233 0.641881 0.145070
H8    H     H_    0.676672 0.275955 0.369232 0.175881
H9    H     H_    0.164691 0.306469 0.662006 0.135187
H10   H     H_    0.334668 0.255390 0.704314 0.157384
H11   H     H_    0.074040 0.374902 0.261777 0.151739
H12   H     H_    0.832206 0.674594 0.328563 0.119996
H13   H     H_    0.451788 0.556485 0.327032 0.182200
H14   H     H_    0.637403 0.675114 0.252469 0.147281
H15   H     H_    0.721877 0.396102 0.597347 0.210119
H16   H     H_    0.109183 0.297368 0.144923 0.140781
H17   H     H_    0.100641 0.286718 0.985569 0.155976
H18   H     H_    0.932126 0.620724 0.739497 0.179780
H19   H     H_    0.885405 0.693325 0.023709 0.141919
H20   H     H_    0.098503 0.886734 0.375126 0.147956
N1    N     N_R   0.246280 0.438190 0.553160 -0.192254
N2    N     N_R   0.754320 0.561190 0.447410 -0.203048
O1    O     O_R   0.972510 0.318130 0.526570 -0.589034
O2    O     O_R   0.806530 0.359650 0.490890 -0.601922
O3    O     O_R   0.082980 0.479210 0.647590 -0.570044
O4    O     O_R   0.917000 0.520730 0.611900 -0.607274
O5    O     O_R   0.193470 0.640350 0.509110 -0.530946
O6    O     O_R   0.027490 0.681870 0.473430 -0.594595
O7    O     O_R   0.083000 0.479270 0.388100 -0.545145
O8    O     O_R   0.917020 0.520790 0.352410 -0.605302
C47   C     C_3   0.547757 0.264120 0.702770 -0.866752
H21   H     H_    0.634944 0.255947 0.713742 0.228870
H22   H     H_    0.537798 0.286606 0.766370 0.235519
H23   H     H_    0.472824 0.179155 0.691482 0.236161
Br1   Br    Br    0.354539 0.632675 0.413734 -0.539673
C48   C     C_3   0.028951 0.306638 0.810791 -0.885507
H24   H     H_    0.988339 0.291474 0.739930 0.231302
H25   H     H_    0.126401 0.323344 0.818680 0.232514
H26   H     H_    0.976935 0.224657 0.855318 0.222043
C49   C     C_3   0.870727 0.716012 0.839981 -0.894746
H27   H     H_    0.945277 0.778347 0.797316 0.230065
H28   H     H_    0.790924 0.664581 0.795291 0.238033
H29   H     H_    0.842185 0.765892 0.872408 0.229928

loop_
_geom_bond_atom_site_label_1
_geom_bond_atom_site_label_2
_ccdc_geom_bond_type
C16   C28   A    
C21   C26   A    
C12   O4    A    
Cu2   O6    S    
C19   C20   A    
C31   H14   S    
C25   H8    S    
C23   O6    A    
C7    C8    A    
C3    H16   S    
C2    C46   A    
C1    O1    A    
C36   C37   A    
C19   C21   A    
C48   H25   S    
C32   H13   S    
C34   O7    A    
C5    C6    A    
C38   C47   S    
C44   H11   S    
C33   C36   A    
C18   C19   A    
Cu2   O8    S    
C4    H17   S    
Cu1   N1    S    
C27   H20   S    
C16   H5    S    
C31   C32   A    
C35   N2    A    
C8    C9    A    
C30   H12   S    
C1    C28   S    
C48   H26   S    
C14   C27   A    
C17   H7    S    
C49   H27   S    
C15   C23   S    
C12   O3    A    
C40   Br1   S    
Cu2   O2    S    
C30   N2    A    
C13   H18   S    
C24   H2    S    
C1    O2    A    
C40   N1    A    
Cu2   O4    S    
C36   C40   A    
C24   C25   A    
Cu1   O3    S    
Cu2   N2    S    
C47   H22   S    
C16   C17   A    
C15   C26   A    
C20   C28   A    
C45   C46   A    
C3    C45   A    
C8    C49   S    
C35   C39   A    
C43   C44   A    
C9    H19   S    
C37   C38   A    
C26   H4    S    
C15   C27   A    
Cu1   Cu2   S    
C49   H29   S    
C30   C31   A    
C17   C18   A    
C48   H24   S    
Cu1   O1    S    
C49   H28   S    
C22   C24   A    
C42   C43   A    
Cu1   O7    S    
C3    C4    A    
C44   C45   A    
C41   N1    A    
C6    C46   A    
C29   C41   A    
C34   C43   S    
C23   O5    A    
C4    C5    A    
C47   H23   S    
C11   C12   S    
C6    C7    A    
C39   H15   S    
C32   C33   A    
C14   C22   A    
C41   H9    S    
C5    C10   A    
C34   O8    A    
C11   C13   A    
C38   C39   A    
C2    C42   A    
C10   C48   S    
C33   C35   A    
C10   C11   A    
C18   H6    S    
C42   H1    S    
Cu1   O5    S    
C47   H21   S    
C7    C13   A    
C29   H10   S    
C14   H3    S    
C20   C25   A    
C29   C37   A    
C21   C22   A    
C2    C9    A    
