data_mof_unit_63512.cif
_audit_creation_date              2013-03-05T16:29:38-0500
_audit_creation_method            fapswitch 2.2
_symmetry_space_group_name_H-M    P1
_symmetry_Int_Tables_number       1
_space_group_crystal_system       triclinic
_cell_length_a                    28.37599
_cell_length_b                    18.260357
_cell_length_c                    18.256886
_cell_angle_alpha                 89.999897
_cell_angle_beta                  130.221442
_cell_angle_gamma                 90.002678
_cell_volume                      7223.15587036

loop_
_atom_site_label
_atom_site_type_symbol
_atom_site_description
_atom_site_fract_x
_atom_site_fract_y
_atom_site_fract_z
_atom_type_partial_charge
O1    O     O_R   0.500010 0.939400 0.392680 -0.597879
O2    O     O_R   0.499990 0.939400 0.607320 -0.597891
O3    O     O_R   0.000010 0.439400 0.392680 -0.597929
O4    O     O_R   0.999990 0.439400 0.607320 -0.597867
O5    O     O_R   0.499990 0.060580 0.392690 -0.616071
O6    O     O_R   0.500010 0.060580 0.607310 -0.616072
O7    O     O_R   0.999990 0.560580 0.392690 -0.616094
O8    O     O_R   0.000010 0.560580 0.607310 -0.616064
C1    C     C_R   0.499954 0.999975 0.358705 0.899897
C2    C     C_R   0.500046 0.999975 0.641295 0.899915
C3    C     C_R   0.999954 0.499975 0.358705 0.899888
C4    C     C_R   0.000046 0.499975 0.641294 0.899958
O9    O     O_R   0.591620 0.939400 0.591620 -0.592773
O10   O     O_R   0.408380 0.939400 0.408380 -0.592690
O11   O     O_R   0.091620 0.439400 0.591620 -0.592764
O12   O     O_R   0.908380 0.439400 0.408380 -0.592779
O13   O     O_R   0.591600 0.060580 0.591620 -0.619043
O14   O     O_R   0.408400 0.060580 0.408380 -0.619092
O15   O     O_R   0.091600 0.560580 0.591620 -0.619035
O16   O     O_R   0.908400 0.560580 0.408380 -0.619101
C5    C     C_R   0.620194 0.999906 0.621796 0.907972
C6    C     C_R   0.379807 0.999902 0.378203 0.908003
C7    C     C_R   0.120194 0.499906 0.621794 0.907980
C8    C     C_R   0.879807 0.499902 0.378199 0.908019
Zn1   Zn    Zn3+2 0.500000 0.919080 0.500000 1.142281
Zn2   Zn    Zn3+2 0.000000 0.419080 0.500000 1.142203
Zn3   Zn    Zn3+2 0.500000 0.080900 0.500000 1.046458
Zn4   Zn    Zn3+2 0.000000 0.580900 0.500000 1.046454
C9    C     C_R   0.638424 0.804401 0.795923 0.536600
C10   C     C_R   0.361467 0.804493 0.203769 0.536667
C11   C     C_R   0.138462 0.304432 0.796038 0.536655
C12   C     C_R   0.861512 0.304232 0.204200 0.536519
C13   C     C_R   0.668375 0.842353 0.769385 0.210506
C14   C     C_R   0.331571 0.842417 0.230419 0.210556
C15   C     C_R   0.168395 0.342370 0.769459 0.210536
C16   C     C_R   0.831559 0.342266 0.230679 0.210519
C17   C     C_R   0.687427 0.915338 0.799646 -0.098353
C18   C     C_R   0.312561 0.915423 0.200277 -0.098468
C19   C     C_R   0.187428 0.415367 0.799665 -0.098382
C20   C     C_R   0.812567 0.415259 0.200392 -0.098202
C21   C     C_R   0.678063 0.948446 0.858613 -0.327592
C22   C     C_R   0.321918 0.948583 0.141333 -0.327610
C23   C     C_R   0.178058 0.448504 0.858609 -0.327610
C24   C     C_R   0.821998 0.448296 0.141465 -0.327687
H1    H     H_    0.693420 0.004109 0.883555 0.224791
H2    H     H_    0.306590 0.004262 0.116479 0.224799
H3    H     H_    0.193400 0.504178 0.883507 0.224800
H4    H     H_    0.806691 0.503967 0.116508 0.224735
C25   C     C_R   0.649527 0.909829 0.886605 0.557521
C26   C     C_R   0.350400 0.909995 0.113232 0.557604
C27   C     C_R   0.149539 0.409902 0.886640 0.557528
C28   C     C_R   0.850543 0.409598 0.113541 0.557517
C29   C     C_R   0.628832 0.838164 0.854282 0.112607
C30   C     C_R   0.371046 0.838306 0.145424 0.112618
C31   C     C_R   0.128867 0.338223 0.854378 0.112589
C32   C     C_R   0.871170 0.337922 0.145881 0.112778
C33   C     C_R   0.782694 0.959010 0.835268 0.624378
C34   C     C_R   0.217303 0.959056 0.164697 0.624401
C35   C     C_R   0.282694 0.459016 0.835270 0.624403
C36   C     C_R   0.717301 0.459026 0.164709 0.624396
C37   C     C_R   0.813269 0.000896 0.812786 -0.217116
C38   C     C_R   0.186734 0.000900 0.187217 -0.217298
C39   C     C_R   0.313268 0.500896 0.812784 -0.217126
C40   C     C_R   0.686733 0.500902 0.187210 -0.217255
C41   C     C_R   0.780040 0.042012 0.727231 0.103570
C42   C     C_R   0.219971 0.041961 0.272822 0.103495
C43   C     C_R   0.280039 0.542006 0.727224 0.103573
C44   C     C_R   0.719971 0.541989 0.272793 0.103445
C45   C     C_R   0.716277 0.041396 0.666037 -0.142260
C46   C     C_R   0.283734 0.041337 0.334017 -0.142037
C47   C     C_R   0.216276 0.541389 0.666028 -0.142268
C48   C     C_R   0.783733 0.541374 0.333978 -0.141949
H5    H     H_    0.690016 0.072756 0.599929 0.171782
H6    H     H_    0.310001 0.072653 0.400161 0.171756
H7    H     H_    0.190016 0.572743 0.599916 0.171775
H8    H     H_    0.810001 0.572712 0.400106 0.171767
C49   C     C_R   0.686063 0.999567 0.688464 -0.165556
C50   C     C_R   0.313940 0.999556 0.311544 -0.165561
C51   C     C_R   0.186062 0.499567 0.688461 -0.165559
C52   C     C_R   0.813939 0.499558 0.311532 -0.165581
C53   C     C_R   0.718800 0.957535 0.772764 -0.003753
C54   C     C_R   0.281197 0.957574 0.227204 -0.003745
C55   C     C_R   0.218800 0.457544 0.772766 -0.003740
C56   C     C_R   0.781195 0.457534 0.227223 -0.003853
C57   C     C_R   0.815965 0.054489 0.634592 0.591667
C58   C     C_R   0.184302 0.054386 0.365821 0.591354
C59   C     C_R   0.315969 0.554477 0.634589 0.591676
C60   C     C_R   0.684363 0.554422 0.365878 0.591292
C61   C     C_R   0.843348 0.094240 0.605506 -0.362192
C62   C     C_R   0.156957 0.094074 0.395012 -0.362157
C63   C     C_R   0.343355 0.594224 0.605507 -0.362216
C64   C     C_R   0.657039 0.594107 0.395105 -0.362128
H9    H     H_    0.847946 0.069969 0.556299 0.238434
H10   H     H_    0.152555 0.069820 0.444450 0.238475
H11   H     H_    0.347956 0.569950 0.556304 0.238421
H12   H     H_    0.652686 0.569865 0.444606 0.238473
C65   C     C_R   0.864434 0.165335 0.639063 0.591085
C66   C     C_R   0.135660 0.165086 0.361265 0.591038
C67   C     C_R   0.364443 0.665319 0.639064 0.591059
C68   C     C_R   0.635704 0.665103 0.361318 0.591021
C69   C     C_R   0.858408 0.197310 0.702396 0.186481
C70   C     C_R   0.141448 0.197045 0.297654 0.186737
C71   C     C_R   0.358414 0.697298 0.702392 0.186490
C72   C     C_R   0.641433 0.697049 0.297633 0.186732
C73   C     C_R   0.831557 0.157248 0.733290 0.083659
C74   C     C_R   0.168271 0.157048 0.266670 0.083676
C75   C     C_R   0.331558 0.657240 0.733281 0.083662
C76   C     C_R   0.668238 0.657055 0.266615 0.083685
C77   C     C_R   0.810126 0.085375 0.698869 -0.137534
C78   C     C_R   0.189901 0.085252 0.301263 -0.137236
C79   C     C_R   0.310126 0.585366 0.698861 -0.137535
C80   C     C_R   0.689905 0.585274 0.301245 -0.137225
C81   C     C_1   0.500127 0.999909 0.282405 -0.142911
C82   C     C_1   0.499873 0.999908 0.717595 -0.142797
C83   C     C_1   0.000127 0.499909 0.282405 -0.142812
C84   C     C_1   0.999873 0.499909 0.717595 -0.142793
C85   C     C_1   0.500208 0.999843 0.217689 -0.068607
C86   C     C_1   0.499792 0.999843 0.782311 -0.068464
C87   C     C_1   0.000208 0.499843 0.217689 -0.068437
C88   C     C_1   0.999791 0.499843 0.782311 -0.068452
O17   O     O_R   0.999970 0.107360 0.060570 -0.611073
O18   O     O_R   0.000030 0.107360 0.939430 -0.611190
O19   O     O_R   0.499970 0.607360 0.060570 -0.611073
O20   O     O_R   0.500030 0.607360 0.939430 -0.611186
C89   C     C_R   0.999993 0.141287 0.999992 0.925695
C90   C     C_R   0.499992 0.641287 0.999991 0.925731
O21   O     O_R   0.908370 0.000030 0.968970 -0.552865
O22   O     O_R   0.091630 0.000030 0.031030 -0.552726
O23   O     O_R   0.408370 0.500030 0.968970 -0.552852
O24   O     O_R   0.591630 0.500030 0.031030 -0.552763
O25   O     O_R   0.908380 0.000000 0.847800 -0.632857
O26   O     O_R   0.091620 0.000000 0.152200 -0.633052
O27   O     O_R   0.408380 0.500000 0.847800 -0.632867
O28   O     O_R   0.591620 0.500000 0.152200 -0.633061
C91   C     C_R   0.879555 0.000766 0.879362 0.948979
C92   C     C_R   0.120446 0.000768 0.120639 0.949189
C93   C     C_R   0.379555 0.500767 0.879362 0.948975
C94   C     C_R   0.620445 0.500767 0.120638 0.949238
Zn5   Zn    Zn3+2 0.999980 0.000040 0.080910 1.111674
Zn6   Zn    Zn3+2 0.000020 0.000040 0.919090 1.111867
Zn7   Zn    Zn3+2 0.499980 0.500040 0.080910 1.111667
Zn8   Zn    Zn3+2 0.500020 0.500040 0.919090 1.111837
O29   O     O_R   0.000000 0.892710 0.060610 -0.601094
O30   O     O_R   0.000000 0.892710 0.939390 -0.601027
O31   O     O_R   0.500000 0.392710 0.060610 -0.601101
O32   O     O_R   0.500000 0.392710 0.939390 -0.601028
C95   C     C_R   0.000001 0.858775 0.000001 0.944303
C96   C     C_R   0.500001 0.358775 0.000001 0.944319
O33   O     O_R   0.551710 0.107310 0.051740 -0.611585
O34   O     O_R   0.448290 0.107310 0.948260 -0.611539
O35   O     O_R   0.051710 0.607310 0.051740 -0.611569
O36   O     O_R   0.948290 0.607310 0.948260 -0.611600
C97   C     C_R   0.500001 0.140974 0.000002 0.879097
C98   C     C_R   0.000001 0.640974 0.000002 0.879098
O37   O     O_R   0.551700 0.999990 0.159040 -0.612482
O38   O     O_R   0.448300 0.999990 0.840960 -0.612399
O39   O     O_R   0.051700 0.499990 0.159040 -0.612510
O40   O     O_R   0.948300 0.499990 0.840960 -0.612393
O41   O     O_R   0.448260 0.000000 0.055600 -0.547944
O42   O     O_R   0.551740 1.000000 0.944400 -0.548046
O43   O     O_R   0.948260 0.500000 0.055600 -0.548077
O44   O     O_R   0.051740 0.500000 0.944400 -0.547994
C99   C     C_R   0.500062 0.999841 0.141058 0.924087
C100  C     C_R   0.499938 0.999841 0.858942 0.924052
C101  C     C_R   0.000062 0.499841 0.141058 0.924122
C102  C     C_R   0.999937 0.499841 0.858942 0.924085
Zn9   Zn    Zn3+2 0.569060 0.999980 0.069070 1.157641
Zn10  Zn    Zn3+2 0.430940 0.999980 0.930930 1.157857
Zn11  Zn    Zn3+2 0.069060 0.499980 0.069070 1.157658
Zn12  Zn    Zn3+2 0.930940 0.499980 0.930930 1.157661
O45   O     O_R   0.551720 0.892660 0.051710 -0.571377
O46   O     O_R   0.448280 0.892660 0.948290 -0.571382
O47   O     O_R   0.051720 0.392660 0.051710 -0.571378
O48   O     O_R   0.948280 0.392660 0.948290 -0.571390
C103  C     C_R   0.499997 0.859006 0.999991 0.949292
C104  C     C_R   0.999998 0.359006 0.999994 0.949295
C105  C     C_1   0.999988 0.217739 0.999986 -0.043476
C106  C     C_1   0.499987 0.717739 0.999983 -0.043410
C107  C     C_1   0.499990 0.782523 0.999981 -0.009531
C108  C     C_1   0.999991 0.282523 0.999985 -0.009633
C109  C     C_1   0.000003 0.782280 0.000004 -0.121435
C110  C     C_1   0.500003 0.282280 0.000004 -0.121421
C111  C     C_1   0.500004 0.217474 0.000004 -0.120669
C112  C     C_1   0.000004 0.717474 0.000004 -0.120684
Br1   Br    Br    0.587915 0.786382 0.890477 -0.263101
Br2   Br    Br    0.411874 0.786558 0.109057 -0.263171
Br3   Br    Br    0.087976 0.286459 0.890632 -0.263159
Br4   Br    Br    0.912089 0.286027 0.109765 -0.262827
F1    F     F_    0.890397 0.203386 0.609214 -0.554001
F2    F     F_    0.109735 0.203077 0.391214 -0.553994
F3    F     F_    0.390411 0.703365 0.609221 -0.554036
F4    F     F_    0.609801 0.703093 0.391306 -0.554002
Br5   Br    Br    0.885972 0.296306 0.742955 -0.316164
Br6   Br    Br    0.113620 0.295942 0.256866 -0.316496
Br7   Br    Br    0.385981 0.796292 0.742951 -0.316176
Br8   Br    Br    0.613561 0.795931 0.256805 -0.316566
Br9   Br    Br    0.823316 0.200547 0.820685 -0.383589
Br10  Br    Br    0.176248 0.200353 0.178977 -0.383953
Br11  Br    Br    0.323311 0.700544 0.820666 -0.383478
Br12  Br    Br    0.676147 0.700346 0.178838 -0.384035
F5    F     F_    0.619080 0.734540 0.765637 -0.548428
F6    F     F_    0.380753 0.734608 0.233912 -0.548453
F7    F     F_    0.119142 0.234557 0.765814 -0.548400
F8    F     F_    0.880792 0.234362 0.234504 -0.548436
Br13  Br    Br    0.683024 0.793287 0.692645 -0.258636
Br14  Br    Br    0.316927 0.793282 0.307125 -0.258781
Br15  Br    Br    0.183048 0.293270 0.692744 -0.258626
Br16  Br    Br    0.816834 0.293305 0.307388 -0.258732
F9    F     F_    0.642679 0.942032 0.946079 -0.598208
F10   F     F_    0.357225 0.942246 0.053760 -0.598150
F11   F     F_    0.142691 0.442133 0.946099 -0.598210
F12   F     F_    0.857463 0.441733 0.054112 -0.598252
F13   F     F_    0.814987 0.918205 0.916896 -0.621891
F14   F     F_    0.185007 0.918294 0.083029 -0.621858
F15   F     F_    0.314985 0.418219 0.916904 -0.621873
F16   F     F_    0.685003 0.418227 0.083072 -0.621900
F17   F     F_    0.795391 0.985545 0.600558 -0.602580
F18   F     F_    0.205090 0.985526 0.400052 -0.602541
F19   F     F_    0.295393 0.485532 0.600556 -0.602585
F20   F     F_    0.705195 0.485580 0.400155 -0.602526

loop_
_geom_bond_atom_site_label_1
_geom_bond_atom_site_label_2
_geom_bond_distance
_ccdc_geom_bond_type
C34   C38   1.402145 A    
C67   F3    1.356821 S    
C25   C29   1.399270 A    
O27   C93   1.268833 A    
O17   Zn5   1.994538 S    
C59   C63   1.394788 A    
C46   C50   1.392601 A    
C20   C56   1.480384 S    
C45   C49   1.392638 A    
O33   Zn9   1.995633 S    
C68   C72   1.400972 A    
C52   C56   1.405093 A    
O9    Zn1   2.019463 S    
C47   C51   1.392639 A    
C106  C107  1.182977 T    
C88   C102  1.396381 S    
C40   C94   1.436230 S    
C14   Br14  1.921042 S    
O26   Zn5   2.021120 S    
O17   C89   1.268024 A    
C73   Br9   1.925486 S    
C10   C30   1.401328 A    
C13   Br13  1.921085 S    
O27   Zn8   2.021123 S    
C26   C30   1.399161 A    
O21   Zn5   2.018171 S    
C12   C16   1.403271 A    
C58   C78   1.404974 A    
O21   C91   1.271828 A    
C18   C22   1.401530 A    
C57   C77   1.404908 A    
Zn8   O32   1.994686 S    
C34   C54   1.384942 A    
C16   Br16  1.921179 S    
C35   F15   1.360952 S    
O42   Zn9   1.994345 S    
C11   C31   1.401372 A    
C59   C79   1.404908 A    
C58   F18   1.357775 S    
O38   Zn10  1.996422 S    
O42   C100  1.277911 A    
C9    C13   1.403249 A    
C64   H12   1.082638 S    
O41   Zn10  1.994345 S    
C22   H2    1.083487 S    
O35   C98   1.277944 A    
C38   C92   1.436239 S    
C57   F17   1.357691 S    
C110  C111  1.183377 T    
O33   C97   1.277944 A    
O25   Zn6   2.021123 S    
O39   Zn11  1.996422 S    
O5    Zn3   1.993797 S    
Zn5   O29   1.994687 S    
C8    C52   1.427180 S    
Zn11  O47   1.995368 S    
C32   Br4   1.915671 S    
O37   Zn9   1.996422 S    
C51   C55   1.405090 A    
O34   C97   1.277941 A    
C98   C112  1.396925 S    
C46   H6    1.085521 S    
O36   C98   1.277941 A    
C45   H5    1.085525 S    
C59   F19   1.357691 S    
O4    C4    1.267661 A    
O14   C6    1.269681 A    
C3    C83   1.396191 S    
C87   C101  1.396381 S    
C20   C24   1.401687 A    
C11   F7    1.357320 S    
C2    C82   1.396191 S    
O46   C103  1.278033 A    
O26   C92   1.268839 A    
C74   Br10  1.925538 S    
C60   F20   1.357799 S    
C95   C109  1.396817 S    
O11   C7    1.266755 A    
O12   C8    1.266752 A    
O44   C102  1.277912 A    
C18   C54   1.480286 S    
O1    Zn1   1.994333 S    
C39   C93   1.436211 S    
C17   C53   1.480325 S    
C68   F4    1.356830 S    
C71   Br7   1.918252 S    
O30   C95   1.268245 A    
O24   Zn8   2.018169 S    
C70   Br6   1.918342 S    
C21   C25   1.395884 A    
O23   C93   1.271834 A    
C69   Br5   1.918254 S    
C62   H10   1.082588 S    
O32   C96   1.268245 A    
O12   Zn2   2.019509 S    
C10   F6    1.357200 S    
C39   C43   1.410848 A    
C69   C73   1.410255 A    
C9    F5    1.357334 S    
C10   C14   1.403227 A    
O13   Zn3   2.019079 S    
C60   C64   1.394779 A    
C16   C20   1.409953 A    
O1    C1    1.267662 A    
C6    C50   1.427166 S    
C67   C71   1.400868 A    
C58   C62   1.394775 A    
O39   C101  1.278095 A    
C38   C42   1.410872 A    
O15   C7    1.269690 A    
O40   Zn12  1.996422 S    
O11   Zn2   2.019463 S    
C103  C107  1.396612 S    
O16   Zn4   2.019038 S    
C27   C31   1.399254 A    
O37   C99   1.278095 A    
C66   C70   1.400923 A    
C90   C106  1.396028 S    
O45   C103  1.278063 A    
C61   H9    1.082537 S    
C85   C99   1.396379 S    
O7    Zn4   1.993797 S    
C76   C80   1.412029 A    
C61   C65   1.394722 A    
C44   C48   1.382507 A    
C76   Br12  1.925568 S    
C15   C19   1.409902 A    
O5    C1    1.268405 A    
C27   F11   1.354618 S    
C12   F8    1.357321 S    
O36   Zn12  1.995588 S    
C50   C54   1.405056 A    
O25   C91   1.268836 A    
O7    C3    1.268405 A    
O6    Zn3   1.993794 S    
C37   C41   1.410844 A    
C49   C53   1.405104 A    
O8    C4    1.268406 A    
C105  C108  1.182977 T    
O34   Zn10  1.995588 S    
O19   Zn7   1.994538 S    
C72   Br8   1.918355 S    
O9    C5    1.266755 A    
C48   H8    1.085529 S    
C21   H1    1.083551 S    
C42   C78   1.481500 S    
O15   Zn4   2.019079 S    
C41   C77   1.481485 S    
C82   C86   1.183004 T    
C66   F2    1.356820 S    
C22   C26   1.395850 A    
C81   C85   1.183004 T    
O43   Zn12  1.994345 S    
C34   F14   1.360945 S    
C43   C79   1.481481 S    
C33   F13   1.360955 S    
O29   C95   1.268242 A    
C83   C87   1.183002 T    
O43   C101  1.277910 A    
O8    Zn4   1.993794 S    
O41   C99   1.277910 A    
C89   C105  1.396028 S    
C25   F9    1.354640 S    
O24   C94   1.271828 A    
C40   C44   1.410861 A    
C72   C76   1.410284 A    
O31   C96   1.268242 A    
C64   C68   1.394810 A    
O20   C90   1.268008 A    
C74   C78   1.412016 A    
Zn10  O46   1.995412 S    
C15   Br15  1.921069 S    
C73   C77   1.411942 A    
C57   C61   1.394787 A    
C109  C112  1.183377 T    
C14   C18   1.409847 A    
C75   Br11  1.925483 S    
C75   C79   1.411944 A    
C65   C69   1.400869 A    
O3    Zn2   1.994333 S    
O14   Zn3   2.019038 S    
Zn6   O30   1.994686 S    
C35   C55   1.384941 A    
O20   Zn8   1.994540 S    
O28   C94   1.268850 A    
O4    Zn2   1.994336 S    
C31   Br3   1.915621 S    
C33   C37   1.402145 A    
Zn12  O48   1.995412 S    
Zn7   O31   1.994687 S    
C35   C39   1.402139 A    
O35   Zn11  1.995633 S    
Zn9   O45   1.995368 S    
C36   C40   1.402176 A    
C1    C81   1.396191 S    
O10   C6    1.266748 A    
O18   C89   1.268011 A    
O22   C92   1.271845 A    
O38   C100  1.278096 A    
C36   F16   1.360954 S    
C19   C55   1.480310 S    
C48   C52   1.392609 A    
C24   H4    1.083571 S    
C97   C111  1.396925 S    
C12   C32   1.401445 A    
O28   Zn7   2.021120 S    
C47   H7    1.085521 S    
C36   C56   1.384954 A    
C24   C28   1.395955 A    
C42   C46   1.382515 A    
O44   Zn11  1.994345 S    
C9    C29   1.401383 A    
C23   C27   1.395869 A    
C41   C45   1.382518 A    
C11   C15   1.403247 A    
C65   F1    1.356820 S    
O47   C104  1.278061 A    
O48   C104  1.278034 A    
C62   C66   1.394795 A    
C13   C17   1.409917 A    
C70   C74   1.410271 A    
O2    Zn1   1.994336 S    
C43   C47   1.382521 A    
O10   Zn1   2.019509 S    
C17   C21   1.401611 A    
C86   C100  1.396377 S    
C33   C53   1.384946 A    
O13   C5    1.269693 A    
O3    C3    1.267662 A    
O6    C2    1.268406 A    
O18   Zn6   1.994540 S    
C60   C80   1.405028 A    
O40   C102  1.278093 A    
C84   C88   1.183002 T    
C104  C108  1.396612 S    
O23   Zn7   2.018171 S    
C26   F10   1.354561 S    
C63   H11   1.082537 S    
C96   C110  1.396817 S    
C30   Br2   1.915580 S    
C19   C23   1.401590 A    
C5    C49   1.427206 S    
C28   F12   1.354713 S    
C29   Br1   1.915622 S    
O19   C90   1.268027 A    
C71   C75   1.410254 A    
C7    C51   1.427200 S    
C63   C67   1.394724 A    
C23   H3    1.083541 S    
O16   C8    1.269686 A    
C37   C91   1.436208 S    
C44   C80   1.481501 S    
C28   C32   1.399281 A    
O22   Zn6   2.018169 S    
C4    C84   1.396191 S    
O2    C2    1.267661 A    
