data_mof_unit_68329.cif
_audit_creation_date              2012-12-10T17:35:37-0500
_audit_creation_method            fapswitch 2.2
_symmetry_space_group_name_H-M    P1
_symmetry_Int_Tables_number       1
_space_group_crystal_system       triclinic
_cell_length_a                    10.864525
_cell_length_b                    12.341022
_cell_length_c                    13.58772
_cell_angle_alpha                 117.42755
_cell_angle_beta                  75.768151
_cell_angle_gamma                 102.814932
_cell_volume                      1554.89077414

loop_
_atom_site_label
_atom_site_type_symbol
_atom_type_description
_atom_site_fract_x
_atom_site_fract_y
_atom_site_fract_z
_atom_type_partial_charge
C1    C     C_R   0.514543 0.854355 0.286526 0.782704
C2    C     C_3   0.121110 0.995584 0.498643 -0.193632
C3    C     C_3   0.075157 0.121648 0.593560 0.015724
C4    C     C_3   0.032833 0.881778 0.517900 0.286299
C5    C     C_R   0.374397 0.262448 0.024448 0.479692
C6    C     C_R   0.466254 0.227358 0.831747 -0.100448
C7    C     C_R   0.616459 0.813796 0.084894 0.270537
C8    C     C_R   0.674837 0.725872 0.983860 -0.169754
C9    C     C_R   0.637786 0.601704 0.952776 -0.249784
C10   C     C_R   0.535281 0.559879 0.018235 0.113276
C11   C     C_R   0.483393 0.645510 0.125280 0.016684
C12   C     C_R   0.739955 0.000826 0.500060 0.828078
C13   C     C_R   0.485944 0.434060 0.980902 -0.026974
C14   C     C_R   0.402705 0.390777 0.057323 0.019556
C15   C     C_R   0.346447 0.477085 0.161410 0.241210
C16   C     C_R   0.380993 0.602681 0.190362 -0.261637
C17   C     C_R   0.512076 0.351360 0.867539 -0.263823
C18   C     C_R   0.400780 0.182543 0.909816 -0.327261
C19   C     C_R   0.532956 0.772105 0.163575 -0.189553
C20   C     C_R   0.687153 0.337902 0.315498 -0.320481
C21   C     C_R   0.340228 0.767289 0.656711 0.004328
C22   C     C_R   0.309073 0.674331 0.694726 0.226047
C23   C     C_R   0.483125 0.145441 0.712122 0.818284
C24   C     C_R   0.370345 0.568356 0.633870 -0.280735
C25   C     C_R   0.464345 0.555065 0.538667 -0.040705
C26   C     C_R   0.492769 0.652921 0.504511 0.246383
C27   C     C_R   0.532105 0.448873 0.476917 -0.016024
C28   C     C_R   0.624878 0.442623 0.381511 0.180045
C29   C     C_R   0.654742 0.540542 0.352006 -0.306325
C30   C     C_R   0.591559 0.643959 0.413126 -0.186176
C31   C     C_R   0.511488 0.347128 0.504283 -0.009571
C32   C     C_R   0.658729 0.239775 0.344401 0.050022
C33   C     C_R   0.259874 0.998003 0.499147 0.881663
C34   C     C_3   0.958407 0.983916 0.381656 0.139629
C35   C     C_3   0.104537 0.973094 0.375991 0.511056
C36   C     C_3   0.934122 0.128483 0.590499 0.099314
C37   C     C_3   0.891266 0.891944 0.525788 0.047702
C38   C     C_3   0.877948 0.002019 0.501727 -0.185071
Cu1   Cu    Cu3+1 0.529690 0.098270 0.475420 0.924420
Cu2   Cu    Cu3+1 0.470310 0.901730 0.524580 0.920572
H1    H     H_    0.368687 0.085266 0.881021 0.166561
H2    H     H_    0.561109 0.383155 0.804496 0.164118
H3    H     H_    0.690877 0.539946 0.876195 0.142082
H4    H     H_    0.749280 0.751916 0.926606 0.147138
H5    H     H_    0.912544 0.898191 0.319439 0.061959
H6    H     H_    0.325961 0.666013 0.264569 0.188611
H7    H     H_    0.702256 0.157472 0.291009 0.151800
H8    H     H_    0.728358 0.537474 0.280801 0.153089
H9    H     H_    0.756055 0.331361 0.240877 0.145316
H10   H     H_    0.443602 0.344448 0.575899 0.120152
H11   H     H_    0.298580 0.852258 0.704961 0.148721
H12   H     H_    0.345288 0.499048 0.665129 0.127583
H13   H     H_    0.624802 0.715747 0.386593 0.205576
H14   H     H_    0.938436 0.198054 0.558723 0.174539
H15   H     H_    0.133725 0.196342 0.573990 0.143129
H16   H     H_    0.858479 0.808720 0.452193 0.042498
H17   H     H_    0.051934 0.797097 0.439899 0.123496
N1    N     N_R   0.574690 0.246280 0.438200 -0.182584
N2    N     N_R   0.426100 0.754320 0.561190 -0.238081
O1    O     O_R   0.537340 0.972510 0.318130 -0.601347
O2    O     O_R   0.487200 0.806530 0.359650 -0.599180
O3    O     O_R   0.707380 0.082980 0.479220 -0.545374
O4    O     O_R   0.657240 0.917000 0.520740 -0.602402
O5    O     O_R   0.512800 0.193470 0.640350 -0.602234
O6    O     O_R   0.462660 0.027490 0.681870 -0.592124
O7    O     O_R   0.342760 0.083000 0.479260 -0.601557
O8    O     O_R   0.292620 0.917020 0.520780 -0.567741
O9    O     O_3   0.949131 0.086772 0.363885 -0.609859
C39   C     C_3   0.935350 0.058554 0.253631 0.108135
H18   H     H_    0.833865 0.025659 0.243495 0.165470
H19   H     H_    0.991434 0.986351 0.188639 0.109493
C40   C     C_3   0.982755 0.175396 0.234720 -0.328356
H20   H     H_    0.929602 0.252019 0.299900 0.214437
H21   H     H_    0.084651 0.203616 0.243211 0.270408
C41   C     C_3   0.972555 0.157554 0.118397 -0.908093
H22   H     H_    0.871949 0.155991 0.114749 0.254845
H23   H     H_    0.009693 0.071387 0.052150 0.254147
H24   H     H_    0.029299 0.236328 0.102507 0.270800
O10   O     O_3   0.053053 0.863116 0.608318 -0.603909
C42   C     C_3   0.064118 0.737085 0.574796 0.072804
H25   H     H_    0.101866 0.733256 0.640133 0.170125
H26   H     H_    0.136269 0.700280 0.497392 0.144387
C43   C     C_3   0.935403 0.652718 0.562542 -0.382638
H27   H     H_    0.870718 0.682321 0.644838 0.222277
H28   H     H_    0.888994 0.656290 0.500246 0.217485
C44   C     C_3   0.952561 0.518661 0.522623 -0.936285
H29   H     H_    0.010376 0.510006 0.575090 0.254635
H30   H     H_    0.999765 0.480914 0.433458 0.256645
H31   H     H_    0.857360 0.463608 0.528173 0.270694
N3    N     N_2   0.854013 0.171486 0.701748 -0.378783
H32   H     H_    0.764720 0.122286 0.706841 0.268384
C45   C     C_3   0.845268 0.302438 0.759805 -0.701495
H33   H     H_    0.801132 0.327180 0.849105 0.236242
H34   H     H_    0.784866 0.327027 0.719786 0.214322
H35   H     H_    0.940972 0.356601 0.757002 0.234033
N4    N     N_2   0.095177 0.146953 0.705452 -0.376998
H36   H     H_    0.118837 0.075261 0.712983 0.291438
C46   C     C_3   0.173291 0.261059 0.763750 -0.710227
H37   H     H_    0.171816 0.274220 0.850574 0.236496
H38   H     H_    0.137037 0.340893 0.768884 0.223438
H39   H     H_    0.273458 0.258158 0.718771 0.222590
N5    N     N_2   0.245135 0.438891 0.231951 -0.393060
H40   H     H_    0.160998 0.472397 0.244183 0.229170
C47   C     C_3   0.278735 0.461546 0.336740 -0.651942
H41   H     H_    0.199890 0.420145 0.382819 0.211109
H42   H     H_    0.294350 0.561850 0.390073 0.216125
H43   H     H_    0.366363 0.419608 0.320526 0.254788
O11   O     O_3   0.318586 0.217727 0.104361 -0.597979
C48   C     C_3   0.377483 0.117557 0.088088 0.047234
H44   H     H_    0.402679 0.136016 0.169135 0.156498
H45   H     H_    0.470296 0.104765 0.028747 0.135349
C49   C     C_3   0.283074 0.000019 0.050819 -0.359085
H46   H     H_    0.202379 0.008345 0.120365 0.229700
H47   H     H_    0.242944 0.987518 0.978267 0.224525
C50   C     C_3   0.345772 0.887295 0.018939 -0.894838
H48   H     H_    0.423395 0.874101 0.945635 0.274894
H49   H     H_    0.273938 0.805079 0.995839 0.266186
H50   H     H_    0.382477 0.895619 0.091375 0.243282
N6    N     N_2   0.640351 0.941548 0.106519 -0.430671
H51   H     H_    0.565578 0.990997 0.155545 0.269176
C51   C     C_3   0.694586 0.972862 0.012764 -0.794961
H52   H     H_    0.689070 0.071420 0.038855 0.221499
H53   H     H_    0.640409 0.917513 0.942156 0.236696
H54   H     H_    0.796522 0.957071 0.983998 0.245010
N7    N     N_2   0.229626 0.691107 0.800503 -0.433049
H55   H     H_    0.223286 0.621546 0.824327 0.248568
C52   C     C_3   0.109817 0.740873 0.831706 -0.777321
H56   H     H_    0.069734 0.759723 0.920640 0.231672
H57   H     H_    0.039375 0.672632 0.779290 0.233367
H58   H     H_    0.123517 0.829637 0.826062 0.230612
O12   O     O_3   0.137521 0.850469 0.305912 -0.694887
C53   C     C_3   0.113164 0.789638 0.194756 0.012177
H59   H     H_    0.203928 0.756904 0.140438 0.179311
H60   H     H_    0.084706 0.848118 0.165829 0.145393
C54   C     C_3   0.015876 0.674534 0.180314 -0.367276
H61   H     H_    0.058198 0.609054 0.193547 0.213432
H62   H     H_    0.927866 0.698117 0.243745 0.197161
C55   C     C_3   0.979154 0.611133 0.063246 -0.917449
H63   H     H_    0.930468 0.672887 0.050608 0.255005
H64   H     H_    0.912331 0.525974 0.054296 0.257560
H65   H     H_    0.065577 0.585910 0.997727 0.254769
N8    N     N_2   0.195750 0.054397 0.331184 -0.393937
H66   H     H_    0.281236 0.020524 0.287034 0.270747
C56   C     C_3   0.210694 0.188336 0.383691 -0.712710
H67   H     H_    0.280948 0.227702 0.441376 0.231861
H68   H     H_    0.120666 0.228079 0.428823 0.250559
H69   H     H_    0.251182 0.220919 0.317998 0.241615
N9    N     N_2   0.803595 0.883071 0.624408 -0.376435
H70   H     H_    0.736249 0.806081 0.608323 0.255886
C57   C     C_3   0.825393 0.946365 0.739890 -0.553925
H71   H     H_    0.738018 0.987246 0.794826 0.192575
H72   H     H_    0.905956 0.019754 0.752281 0.287310
H73   H     H_    0.844570 0.880623 0.767066 0.202610

loop_
_geom_bond_atom_site_label_1
_geom_bond_atom_site_label_2
_ccdc_geom_bond_type
C2    C35   S    
C24   H12   S    
C54   C55   S    
C32   N1    A    
C49   H47   S    
C7    C8    A    
Cu1   O5    S    
C11   C19   A    
C29   C30   A    
Cu2   O4    S    
C31   N1    A    
C28   C29   A    
C37   C38   S    
N9    C57   S    
C21   N2    A    
C42   C43   S    
C42   H25   S    
C44   H30   S    
Cu1   O1    S    
C50   H48   S    
O11   C48   S    
C34   C35   S    
C39   H19   S    
C17   H2    S    
C49   H46   S    
C51   H54   S    
O9    C39   S    
C37   H16   S    
C3    H15   S    
C8    C9    A    
C50   H49   S    
Cu2   O8    S    
N4    C46   S    
C4    H17   S    
C3    N4    S    
C26   N2    A    
Cu1   O3    S    
C22   C24   A    
C37   N9    S    
Cu2   N2    S    
C34   C38   S    
C21   C22   A    
C56   H69   S    
N5    H40   S    
C40   C41   S    
C9    C10   A    
C47   H42   S    
C47   H41   S    
C33   O7    A    
N6    C51   S    
C6    C18   A    
C30   H13   S    
C1    C19   S    
C9    H3    S    
C15   C16   A    
C29   H8    S    
C27   C31   A    
C7    N6    S    
C54   H61   S    
N9    H70   S    
C4    O10   S    
C56   H68   S    
C10   C11   A    
C48   C49   S    
C16   H6    S    
Cu1   Cu2   S    
C12   O4    A    
C44   H29   S    
C56   H67   S    
C22   N7    S    
C5    C18   A    
C20   C28   A    
C25   C26   A    
Cu1   N1    S    
C44   H31   S    
C45   H35   S    
Cu2   O2    S    
C39   C40   S    
C2    C4    S    
C41   H22   S    
C52   H57   S    
C20   H9    S    
C12   O3    A    
C11   C16   A    
N3    C45   S    
C43   H27   S    
C50   H50   S    
N4    H36   S    
C45   H34   S    
C5    C14   A    
C34   H5    S    
C24   C25   A    
N5    C47   S    
C57   H73   S    
C51   H52   S    
C55   H64   S    
C2    C33   S    
C40   H21   S    
C23   O5    A    
C43   H28   S    
C26   C30   A    
C46   H38   S    
Cu2   O6    S    
N7    H55   S    
Cu1   O7    S    
C57   H72   S    
C18   H1    S    
C31   H10   S    
C34   O9    S    
O12   C53   S    
C55   H65   S    
C35   O12   S    
C21   H11   S    
C33   O8    A    
C20   C32   A    
C36   N3    S    
C54   H62   S    
C6    C17   A    
C14   C15   A    
C8    H4    S    
C40   H20   S    
C10   C13   A    
C1    O2    A    
N6    H51   S    
C25   C27   A    
C46   H39   S    
C7    C19   A    
C57   H71   S    
C13   C17   A    
C23   O6    A    
C48   H45   S    
C2    C3    S    
C52   H58   S    
C48   H44   S    
N3    H32   S    
C3    C36   S    
C53   C54   S    
C6    C23   S    
C36   C38   S    
C45   H33   S    
C32   H7    S    
C42   H26   S    
C53   H59   S    
N8    C56   S    
C49   C50   S    
C15   N5    S    
C12   C38   S    
C39   H18   S    
C1    O1    A    
C41   H24   S    
C51   H53   S    
C36   H14   S    
C55   H63   S    
C35   N8    S    
O10   C42   S    
C43   C44   S    
C4    C37   S    
C53   H60   S    
C46   H37   S    
C41   H23   S    
C27   C28   A    
N7    C52   S    
N8    H66   S    
C13   C14   A    
C47   H43   S    
C52   H56   S    
C5    O11   S    
