data_mof_unit_64956.cif
_audit_creation_date              2012-10-26T17:56:51-0400
_audit_creation_method            fapswitch 2.2
_symmetry_space_group_name_H-M    P1
_symmetry_Int_Tables_number       1
_space_group_crystal_system       triclinic
_cell_length_a                    18.592721
_cell_length_b                    18.58644
_cell_length_c                    18.668588
_cell_angle_alpha                 109.324614
_cell_angle_beta                  109.686416
_cell_angle_gamma                 109.049752
_cell_volume                      4987.64637342

loop_
_atom_site_label
_atom_site_type_symbol
_atom_type_description
_atom_site_fract_x
_atom_site_fract_y
_atom_site_fract_z
_atom_type_partial_charge
C1    C     C_R   0.618375 0.619902 0.498345 0.604467
C2    C     C_3   0.811180 0.810517 0.499575 0.027016
C3    C     C_3   0.746735 0.841071 0.515046 -0.256960
C4    C     C_R   0.379549 0.499799 0.380070 0.580401
C5    C     C_3   0.852923 0.792898 0.575425 -0.246798
C6    C     C_3   0.702887 0.418542 0.650656 0.159093
C7    C     C_3   0.772670 0.419672 0.725922 -0.242928
C8    C     C_3   0.776922 0.584603 0.733963 -0.211393
C9    C     C_3   0.664120 0.495844 0.759698 -0.251862
C10   C     C_3   0.689426 0.498906 0.688967 0.028383
C11   C     C_3   0.811887 0.502385 0.813952 0.045918
C12   C     C_3   0.170606 0.437494 0.226588 -0.146409
C13   C     C_3   0.850083 0.584597 0.804263 -0.217412
C14   C     C_3   0.737133 0.499912 0.834884 0.146390
C15   C     C_3   0.263780 0.220068 0.414800 -0.235915
C16   C     C_R   0.378850 0.379925 0.498812 0.577305
C17   C     C_3   0.194775 0.148963 0.417646 -0.252717
C18   C     C_3   0.349984 0.306530 0.584792 0.151646
C19   C     C_3   0.236251 0.333585 0.497630 -0.283488
C20   C     C_3   0.310072 0.310909 0.498856 0.055594
C21   C     C_3   0.189233 0.189985 0.501128 0.018832
C22   C     C_3   0.280650 0.230729 0.582578 -0.196320
C23   C     C_3   0.237406 0.516294 0.320259 -0.162146
C24   C     C_3   0.166886 0.263911 0.501925 -0.253187
C25   C     C_R   0.000192 0.619986 0.120312 0.562090
C26   C     C_R   0.121206 0.499991 0.121260 0.554108
C27   C     C_R   0.002105 0.380037 0.881904 0.547125
C28   C     C_R   0.619801 0.499069 0.620071 0.588594
C29   C     C_R   0.881075 0.502176 0.882894 0.583459
C30   C     C_R   0.002415 0.881808 0.380408 0.554062
C31   C     C_R   0.880091 0.879919 0.500079 0.582487
C32   C     C_R   0.998735 0.119385 0.619644 0.563362
C33   C     C_R   0.120112 0.121098 0.501042 0.553369
C34   C     C_3   0.310587 0.499428 0.311950 0.067405
C35   C     C_3   0.925302 0.649580 0.207845 -0.231524
C36   C     C_3   0.925629 0.722495 0.278290 -0.233673
C37   C     C_3   0.089149 0.738954 0.275337 -0.240035
C38   C     C_3   0.987751 0.755439 0.160411 -0.237696
C39   C     C_3   0.000250 0.689172 0.189313 0.050830
C40   C     C_3   0.327399 0.560576 0.274407 0.306329
C41   C     C_3   0.002612 0.812721 0.311621 0.047441
C42   C     C_3   0.089958 0.810406 0.347860 -0.229341
C43   C     C_3   0.990988 0.829118 0.233054 -0.240036
C44   C     C_3   0.999999 0.236815 0.833532 -0.237359
C45   C     C_3   0.684391 0.651554 0.408106 -0.251940
C46   C     C_3   0.996855 0.164164 0.760140 -0.218116
C47   C     C_3   0.919033 0.271713 0.723350 -0.261261
C48   C     C_3   0.084417 0.349578 0.804371 -0.186932
C49   C     C_3   0.001501 0.311084 0.812324 0.022069
C50   C     C_3   0.999477 0.189030 0.688980 0.074095
C51   C     C_3   0.918164 0.200608 0.650462 -0.277773
C52   C     C_3   0.254975 0.579105 0.282778 -0.110976
C53   C     C_3   0.084127 0.277966 0.731921 0.169235
C54   C     C_3   0.189352 0.499944 0.189807 0.005680
C55   C     C_3   0.262403 0.482635 0.180974 -0.112934
C56   C     C_3   0.761177 0.722276 0.411129 0.153120
C57   C     C_3   0.244753 0.420621 0.219217 -0.161905
C58   C     C_3   0.659246 0.723895 0.291988 -0.104485
C59   C     C_3   0.786176 0.803268 0.703541 0.025262
C60   C     C_3   0.857610 0.847826 0.798966 -0.267331
C61   C     C_3   0.857272 0.927922 0.856823 -0.493737
C62   C     C_3   0.690294 0.339397 0.514580 0.026995
C63   C     C_3   0.731435 0.283468 0.532751 -0.289148
C64   C     C_3   0.694683 0.199172 0.449003 -0.490004
C65   C     C_3   0.410272 0.669918 0.257974 -0.138993
C66   C     C_3   0.725826 0.557699 0.959287 -0.146795
C67   C     C_3   0.671351 0.767668 0.509042 -0.253970
C68   C     C_3   0.437094 0.241097 0.558631 0.011082
C69   C     C_3   0.497640 0.219298 0.615638 -0.268780
C70   C     C_3   0.516550 0.153953 0.561390 -0.498165
C71   C     C_3   0.233260 0.335726 0.777416 -0.133675
C72   C     C_3   0.780396 0.717348 0.570852 0.137314
C73   C     C_3   0.687298 0.688437 0.498095 0.016442
Cu1   Cu    Cu3+1 0.500160 0.437540 0.437660 0.901985
Cu2   Cu    Cu3+1 0.499840 0.562460 0.562340 0.907360
Cu3   Cu    Cu3+1 0.938720 0.437560 0.001120 0.886770
Cu4   Cu    Cu3+1 0.063680 0.562470 0.001100 0.880888
Cu5   Cu    Cu3+1 0.062620 0.000040 0.562660 0.912069
Cu6   Cu    Cu3+1 0.937380 0.999960 0.437350 0.899623
H1    H     H_    0.258103 0.643844 0.307254 0.094887
H2    H     H_    0.742062 0.359667 0.729818 0.063900
H3    H     H_    0.826400 0.418173 0.712680 0.142847
H4    H     H_    0.795533 0.591619 0.684911 0.185976
H5    H     H_    0.900719 0.584892 0.785092 0.131698
H6    H     H_    0.652619 0.551391 0.786822 0.172064
H7    H     H_    0.601505 0.434770 0.729539 0.117755
H8    H     H_    0.708295 0.438271 0.837365 0.110417
H9    H     H_    0.769473 0.642066 0.765083 0.137692
H10   H     H_    0.271502 0.469202 0.123052 0.099881
H11   H     H_    0.882640 0.645652 0.867815 0.157414
H12   H     H_    0.608159 0.745759 0.451996 0.142175
H13   H     H_    0.310776 0.199730 0.404293 0.115902
H14   H     H_    0.230225 0.224972 0.356131 0.114774
H15   H     H_    0.129743 0.117246 0.358167 0.126682
H16   H     H_    0.212414 0.096970 0.416324 0.095029
H17   H     H_    0.299152 0.179635 0.582280 0.139660
H18   H     H_    0.263602 0.399188 0.554023 0.120986
H19   H     H_    0.204361 0.336472 0.437130 0.113814
H20   H     H_    0.101202 0.236140 0.445008 0.143122
H21   H     H_    0.241323 0.355745 0.194757 0.118681
H22   H     H_    0.164050 0.295416 0.562198 0.098527
H23   H     H_    0.719736 0.861936 0.467955 0.137807
H24   H     H_    0.362638 0.367282 0.637903 0.134250
H25   H     H_    0.277219 0.256373 0.643464 0.096152
H26   H     H_    0.933712 0.603118 0.230695 0.129442
H27   H     H_    0.860563 0.612168 0.146741 0.119008
H28   H     H_    0.862075 0.721808 0.250182 0.151964
H29   H     H_    0.931688 0.709680 0.333654 0.115877
H30   H     H_    0.100325 0.692393 0.296635 0.104614
H31   H     H_    0.099337 0.796517 0.402947 0.133015
H32   H     H_    0.040096 0.784959 0.146263 0.130568
H33   H     H_    0.104527 0.386436 0.205629 0.128021
H34   H     H_    0.790910 0.660396 0.546545 0.131638
H35   H     H_    0.923687 0.721124 0.099065 0.142555
H36   H     H_    0.929174 0.831497 0.205281 0.136436
H37   H     H_    0.046296 0.893495 0.255500 0.103949
H38   H     H_    0.144034 0.769860 0.264737 0.123096
H39   H     H_    0.146536 0.875323 0.373729 0.109667
H40   H     H_    0.941652 0.207766 0.840263 0.132294
H41   H     H_    0.059413 0.263806 0.897024 0.116375
H42   H     H_    0.053255 0.154225 0.789224 0.172396
H43   H     H_    0.935838 0.101246 0.730044 0.081349
H44   H     H_    0.858533 0.242563 0.726892 0.128604
H45   H     H_    0.902121 0.773559 0.568936 0.096840
H46   H     H_    0.228135 0.529320 0.378059 0.114860
H47   H     H_    0.856573 0.137537 0.618083 0.123280
H48   H     H_    0.087170 0.402648 0.788276 0.091806
H49   H     H_    0.143926 0.379435 0.868784 0.142739
H50   H     H_    0.081031 0.295065 0.679275 0.080957
H51   H     H_    0.918440 0.324134 0.707197 0.105079
H52   H     H_    0.918083 0.219636 0.599829 0.122272
H53   H     H_    0.618318 0.628267 0.355012 0.144238
H54   H     H_    0.692273 0.592375 0.394009 0.100628
H55   H     H_    0.808979 0.697995 0.414235 0.112878
H56   H     H_    0.890517 0.853884 0.639723 0.138642
H57   H     H_    0.634922 0.748143 0.335936 0.106367
H58   H     H_    0.611127 0.654349 0.241197 0.116347
H59   H     H_    0.663544 0.762573 0.257835 0.131140
H60   H     H_    0.721305 0.780898 0.699981 0.165449
H61   H     H_    0.795930 0.852857 0.682310 0.115563
H62   H     H_    0.847105 0.800724 0.823687 0.164272
H63   H     H_    0.922802 0.868627 0.803107 0.164417
H64   H     H_    0.870016 0.977079 0.834743 0.139281
H65   H     H_    0.909548 0.958384 0.925606 0.146149
H66   H     H_    0.792955 0.908514 0.854438 0.143552
H67   H     H_    0.663628 0.793930 0.566941 0.125029
H68   H     H_    0.699946 0.351090 0.463054 0.152160
H69   H     H_    0.617922 0.303448 0.487088 0.119198
H70   H     H_    0.803752 0.321569 0.561975 0.165608
H71   H     H_    0.717523 0.265554 0.579616 0.143883
H72   H     H_    0.622502 0.159445 0.419239 0.139224
H73   H     H_    0.725336 0.160134 0.464566 0.146113
H74   H     H_    0.709410 0.214446 0.401194 0.143708
H75   H     H_    0.371719 0.703627 0.266699 0.119069
H76   H     H_    0.383348 0.625733 0.187270 0.115325
H77   H     H_    0.478119 0.721088 0.284047 0.113590
H78   H     H_    0.782731 0.900326 0.580761 0.086909
H79   H     H_    0.738641 0.512597 0.981998 0.124729
H80   H     H_    0.654073 0.529746 0.917177 0.109679
H81   H     H_    0.749677 0.619825 0.017927 0.130372
H82   H     H_    0.464162 0.260991 0.519341 0.155680
H83   H     H_    0.372838 0.180302 0.513469 0.116645
H84   H     H_    0.560626 0.279768 0.667828 0.153518
H85   H     H_    0.466013 0.190961 0.647990 0.159098
H86   H     H_    0.454546 0.091773 0.510361 0.142546
H87   H     H_    0.560654 0.139691 0.604671 0.144324
H88   H     H_    0.549358 0.181536 0.529460 0.135998
H89   H     H_    0.639169 0.358290 0.620408 0.096083
H90   H     H_    0.251819 0.401999 0.826201 0.099312
H91   H     H_    0.221437 0.333048 0.713972 0.090719
H92   H     H_    0.289830 0.324854 0.801603 0.142028
O1    O     O_R   0.591300 0.538410 0.447360 -0.520077
O2    O     O_R   0.947410 0.908840 0.356190 -0.507344
O3    O     O_R   0.961720 0.908880 0.552900 -0.537259
O4    O     O_R   0.591030 0.643900 0.552660 -0.505186
O5    O     O_R   0.855960 0.908820 0.447080 -0.471925
O6    O     O_R   0.052590 0.091170 0.643810 -0.472514
O7    O     O_R   0.946830 0.091100 0.537990 -0.539840
O8    O     O_R   0.144040 0.091190 0.552920 -0.512854
O9    O     O_R   0.038280 0.091120 0.447100 -0.521696
O10   O     O_R   0.408770 0.447260 0.356000 -0.517607
O11   O     O_R   0.408500 0.552750 0.461290 -0.514056
O12   O     O_R   0.053760 0.643910 0.092060 -0.517477
O13   O     O_R   0.408970 0.356100 0.447340 -0.533099
O14   O     O_R   0.408700 0.461590 0.552640 -0.522770
O15   O     O_R   0.591500 0.447250 0.538710 -0.485618
O16   O     O_R   0.591230 0.552740 0.644000 -0.519968
O17   O     O_R   0.948230 0.538430 0.092080 -0.515620
O18   O     O_3   0.742711 0.732740 0.335599 -0.558284
O19   O     O_3   0.789091 0.729188 0.653432 -0.582033
O20   O     O_3   0.731851 0.422599 0.589799 -0.560245
O21   O     O_3   0.413512 0.624064 0.304726 -0.579629
O22   O     O_3   0.771935 0.576019 0.915389 -0.576832
O23   O     O_R   0.039800 0.447260 0.092470 -0.511354
O24   O     O_3   0.434119 0.312403 0.613685 -0.596321
O25   O     O_3   0.159767 0.269897 0.767830 -0.553656
O26   O     O_R   0.145330 0.552750 0.092450 -0.520334
O27   O     O_R   0.948640 0.356110 0.910160 -0.517421
O28   O     O_R   0.054170 0.461590 0.910140 -0.521250
O29   O     O_R   0.857070 0.447280 0.909760 -0.518030
O30   O     O_R   0.962600 0.552760 0.909740 -0.519309
O31   O     O_R   0.053170 0.908900 0.462020 -0.522228

loop_
_geom_bond_atom_site_label_1
_geom_bond_atom_site_label_2
_ccdc_geom_bond_type
C44   C49   S    
C8    C13   S    
C13   H11   S    
C33   O8    A    
C8    H4    S    
C41   C42   S    
Cu6   O2    S    
C35   C36   S    
C69   H85   S    
C12   H33   S    
C66   H81   S    
C19   H18   S    
C47   C49   S    
Cu1   O10   S    
C68   H82   S    
C7    C11   S    
C5    H45   S    
C65   H75   S    
C64   H73   S    
C34   C40   S    
C14   H8    S    
C65   H77   S    
C16   O14   A    
C70   H87   S    
C38   C39   S    
C9    H7    S    
C11   C14   S    
C21   C33   S    
C44   H41   S    
C24   H20   S    
C22   H25   S    
C45   C73   S    
C24   H22   S    
C37   C42   S    
C26   O26   A    
C61   H66   S    
C63   H70   S    
C60   H63   S    
C15   H13   S    
C56   O18   S    
C61   H64   S    
C19   C20   S    
C45   C56   S    
C44   C46   S    
C68   C69   S    
C40   O21   S    
C6    O20   S    
C34   C57   S    
C36   H28   S    
C71   H90   S    
C30   C41   S    
C67   C73   S    
C4    O10   A    
C9    C10   S    
C30   O2    A    
Cu1   O1    S    
Cu3   O17   S    
C47   H51   S    
C23   H46   S    
C9    H6    S    
C58   H59   S    
C59   C60   S    
C62   H69   S    
C21   C22   S    
C33   O9    A    
C41   C43   S    
C32   O7    A    
C36   C41   S    
Cu2   O14   S    
C27   O27   A    
C22   H17   S    
C67   H67   S    
C26   C54   S    
C72   O19   S    
C66   H80   S    
C19   H19   S    
C52   C54   S    
C6    H89   S    
C31   O5    A    
C15   C20   S    
C30   O31   A    
C4    C34   S    
Cu6   O7    S    
C50   C53   S    
C29   O30   A    
Cu1   Cu2   S    
C13   H5    S    
Cu2   O4    S    
Cu5   O8    S    
C69   H84   S    
C27   O28   A    
Cu3   Cu4   S    
Cu3   O29   S    
C70   H86   S    
C51   H52   S    
Cu5   Cu6   S    
C42   H39   S    
C47   C51   S    
C64   H72   S    
C44   H40   S    
C58   H57   S    
C40   C52   S    
C57   H21   S    
C72   H34   S    
C17   C21   S    
C43   H36   S    
C2    C31   S    
C8    H9    S    
C35   C39   S    
C9    C14   S    
C63   H71   S    
C6    C10   S    
C62   C63   S    
C35   H26   S    
C25   O17   A    
C28   O15   A    
C60   H62   S    
C48   H49   S    
Cu1   O13   S    
C61   H65   S    
C47   H44   S    
C12   C23   S    
C65   O21   S    
C59   H60   S    
C16   C20   S    
C40   C55   S    
C58   O18   S    
C67   H12   S    
C50   C51   S    
C71   H91   S    
C71   O25   S    
C46   H42   S    
Cu4   O28   S    
C32   C50   S    
C6    C7    S    
Cu3   O23   S    
C17   H16   S    
C12   C57   S    
Cu5   O6    S    
C8    C10   S    
C48   C49   S    
C7    H2    S    
C14   O22   S    
C62   H68   S    
C55   C57   S    
C71   H92   S    
C32   O6    A    
C28   O16   A    
C2    C5    S    
C53   H50   S    
C26   O23   A    
C66   H79   S    
C66   O22   S    
C58   H58   S    
Cu5   O3    S    
C10   C28   S    
C5    H56   S    
C54   C55   S    
C1    O4    A    
C23   C34   S    
C18   O24   S    
C18   C22   S    
C51   H47   S    
C37   H30   S    
Cu6   O5    S    
Cu2   O16   S    
Cu5   O31   S    
C29   O29   A    
C72   C73   S    
Cu4   O30   S    
C15   H14   S    
C56   H55   S    
C16   O13   A    
C43   H37   S    
C15   C17   S    
C62   O20   S    
C68   H83   S    
C48   C53   S    
C5    C72   S    
C46   C50   S    
C1    O1    A    
C45   H54   S    
C1    C73   S    
C2    C3    S    
C42   H31   S    
C38   C43   S    
C65   H76   S    
C35   H27   S    
Cu3   O27   S    
C70   H88   S    
C25   C39   S    
C48   H48   S    
C11   C13   S    
C23   C52   S    
C3    C67   S    
C59   H61   S    
C38   H35   S    
C64   H74   S    
Cu4   O12   S    
C19   C24   S    
C68   O24   S    
C18   C20   S    
C18   H24   S    
C69   C70   S    
C3    H23   S    
C46   H43   S    
C63   C64   S    
C27   C49   S    
C37   C39   S    
C7    H3    S    
C37   H38   S    
C36   H29   S    
C11   C29   S    
C45   H53   S    
C55   H10   S    
C21   C24   S    
C3    H78   S    
C53   O25   S    
Cu6   O9    S    
C60   C61   S    
C59   O19   S    
C2    C56   S    
C17   H15   S    
C4    O11   A    
C38   H32   S    
C52   H1    S    
Cu2   O11   S    
Cu4   O26   S    
C12   C54   S    
C25   O12   A    
Cu1   O15   S    
C31   O3    A    
