data_mof_unit_21232.cif
_audit_creation_date              2012-12-10T17:52:40-0500
_audit_creation_method            fapswitch 2.2
_symmetry_space_group_name_H-M    P1
_symmetry_Int_Tables_number       1
_space_group_crystal_system       triclinic
_cell_length_a                    14.804861
_cell_length_b                    14.628013
_cell_length_c                    23.435997
_cell_angle_alpha                 75.372267
_cell_angle_beta                  102.38319
_cell_angle_gamma                 115.600989
_cell_volume                      4396.41202641

loop_
_atom_site_label
_atom_site_type_symbol
_atom_type_description
_atom_site_fract_x
_atom_site_fract_y
_atom_site_fract_z
_atom_type_partial_charge
C1    C     C_R   0.880498 0.311078 0.508326 0.895644
C2    C     C_R   0.119501 0.688922 0.491675 0.895655
C3    C     C_R   0.057598 0.590627 0.754033 0.096219
C4    C     C_R   0.942448 0.409386 0.245965 0.096280
C5    C     C_R   0.057891 0.590076 0.694177 0.278915
C6    C     C_R   0.942147 0.409928 0.305822 0.278917
C7    C     C_R   0.998761 0.499965 0.670626 -0.243715
C8    C     C_R   0.001247 0.500045 0.329373 -0.243724
C9    C     C_R   0.938741 0.409910 0.706194 0.307291
C10   C     C_R   0.061250 0.590117 0.293807 0.307295
C11   C     C_R   0.937491 0.409356 0.766098 0.074181
C12   C     C_R   0.062513 0.590686 0.233902 0.074233
C13   C     C_R   0.997348 0.499921 0.789989 0.253913
C14   C     C_R   0.002682 0.500113 0.210010 0.253874
C15   C     C_R   0.813325 0.200341 0.509136 -0.082292
C16   C     C_R   0.186670 0.799665 0.490853 -0.082255
C17   C     C_R   0.773728 0.023124 0.500174 0.208522
C18   C     C_R   0.226249 0.976924 0.499723 0.208449
C19   C     C_R   0.846929 0.123364 0.507290 0.179187
C20   C     C_R   0.153057 0.876643 0.492684 0.179138
C21   C     C_R   0.710765 0.171886 0.510743 -0.120799
C22   C     C_R   0.289226 0.828128 0.489228 -0.120737
C23   C     C_R   0.999616 0.499897 0.608507 0.963889
C24   C     C_R   0.000384 0.500102 0.391492 0.963916
C25   C     C_R   0.639506 0.072137 0.506496 0.027286
C26   C     C_R   0.360478 0.927893 0.493447 0.027287
C27   C     C_R   0.669825 0.005629 0.488633 0.043725
C28   C     C_R   0.330156 0.994440 0.511270 0.043768
C29   C     C_R   0.536935 0.041622 0.513182 -0.083964
C30   C     C_R   0.463046 0.958406 0.486756 -0.083995
C31   C     C_R   0.493669 0.912501 0.451722 0.374020
C32   C     C_R   0.506306 0.087548 0.548196 0.373979
C33   C     C_R   0.596617 0.931566 0.455059 0.057266
C34   C     C_R   0.403369 0.068568 0.544805 0.057366
C35   C     C_R   0.700337 0.637394 0.386019 -0.235224
C36   C     C_R   0.299664 0.362608 0.613981 -0.235168
C37   C     C_R   0.789846 0.625107 0.409232 -0.001013
C38   C     C_R   0.210155 0.374895 0.590769 -0.001017
C39   C     C_R   0.717628 0.515543 0.496129 0.506664
C40   C     C_R   0.282371 0.484455 0.503870 0.506684
C41   C     C_R   0.628877 0.536187 0.477836 -0.114562
C42   C     C_R   0.371122 0.463813 0.522163 -0.114590
C43   C     C_R   0.617229 0.588013 0.418598 -0.002361
C44   C     C_R   0.382771 0.411988 0.581401 -0.002377
C45   C     C_R   0.933155 0.527103 0.107013 0.546458
C46   C     C_R   0.066890 0.472950 0.892986 0.546460
C47   C     C_R   0.548103 0.500632 0.513561 0.001262
C48   C     C_R   0.451896 0.499368 0.486438 0.001273
C49   C     C_R   0.438935 0.529726 0.424300 -0.138770
C50   C     C_R   0.561065 0.470274 0.575699 -0.138786
C51   C     C_R   0.520903 0.582183 0.391826 0.388204
C52   C     C_R   0.479098 0.417819 0.608174 0.388213
C53   C     C_R   0.070655 0.473915 0.133265 0.550365
C54   C     C_R   0.929384 0.526130 0.866734 0.550358
C55   C     C_R   0.071208 0.473172 0.073619 -0.033676
C56   C     C_R   0.928836 0.526880 0.926380 -0.033671
C57   C     C_R   0.000518 0.500178 0.030146 -0.013873
C58   C     C_R   0.999528 0.499876 0.969853 -0.013870
C59   C     C_R   0.930802 0.527470 0.046822 -0.030282
C60   C     C_R   0.069245 0.472585 0.953176 -0.030280
C61   C     C_R   0.140361 0.446098 0.056489 -0.140101
C62   C     C_R   0.859684 0.553954 0.943509 -0.140100
C63   C     C_R   0.139387 0.445804 0.996875 -0.144438
C64   C     C_R   0.860660 0.554252 0.003123 -0.144438
Cu1   Cu    Cu3+1 0.081740 0.475680 0.515360 1.038382
Cu2   Cu    Cu3+1 0.918260 0.524320 0.484640 1.038369
H1    H     H_    0.195417 0.425047 0.089057 0.198870
H2    H     H_    0.804627 0.575004 0.910942 0.198874
H3    H     H_    0.147298 0.339068 0.616692 0.162217
H4    H     H_    0.852704 0.660934 0.383308 0.162230
H5    H     H_    0.695884 0.682437 0.341936 0.210512
H6    H     H_    0.304118 0.317566 0.658064 0.210515
H7    H     H_    0.364871 0.511825 0.399634 0.220214
H8    H     H_    0.635130 0.488174 0.600364 0.220225
H9    H     H_    0.193741 0.424559 0.985173 0.196327
H10   H     H_    0.806307 0.575498 0.014825 0.196328
H11   H     H_    0.315102 0.769849 0.488527 0.229517
H12   H     H_    0.684896 0.230164 0.511454 0.229515
N1    N     N_R   0.002276 0.500522 0.148638 -0.456362
N2    N     N_R   0.997763 0.499524 0.851362 -0.456371
N3    N     N_R   0.795430 0.560810 0.461550 -0.212180
N4    N     N_R   0.204570 0.439190 0.538450 -0.212182
O1    O     O_R   0.977900 0.338110 0.520250 -0.602274
O2    O     O_R   0.022100 0.661890 0.479750 -0.602266
O3    O     O_R   0.839850 0.379180 0.494310 -0.529732
O4    O     O_R   0.160150 0.620820 0.505690 -0.529715
O5    O     O_R   0.069020 0.479430 0.595090 -0.579122
O6    O     O_R   0.930980 0.520570 0.404910 -0.579132
O7    O     O_R   0.930970 0.520500 0.569150 -0.526434
O8    O     O_R   0.069030 0.479500 0.430850 -0.526420
O9    O     O_2   0.867049 0.552930 0.123972 -0.512655
O10   O     O_2   0.132999 0.447128 0.876026 -0.512649
O11   O     O_2   0.137625 0.448268 0.175632 -0.498527
O12   O     O_2   0.862408 0.551767 0.824369 -0.498528
C65   C     C_3   0.804814 0.932996 0.513772 -0.862529
H13   H     H_    0.853395 0.933481 0.557078 0.250281
H14   H     H_    0.738938 0.857784 0.518453 0.247108
H15   H     H_    0.846942 0.937457 0.478567 0.228213
C66   C     C_3   0.195149 0.067056 0.485992 -0.862462
H16   H     H_    0.146490 0.066381 0.442710 0.250331
H17   H     H_    0.153085 0.062768 0.521179 0.228125
H18   H     H_    0.261013 0.142271 0.481205 0.247125
Cl1   Cl    Cl    0.407461 0.848310 0.394612 -0.493037
Cl2   Cl    Cl    0.592476 0.151664 0.605343 -0.492991
Cl3   Cl    Cl    0.496668 0.630667 0.315812 -0.539426
Cl4   Cl    Cl    0.503333 0.369335 0.684187 -0.539391
Cl5   Cl    Cl    0.280408 0.586278 0.444869 -0.527992
Cl6   Cl    Cl    0.719586 0.413716 0.555128 -0.528001
C67   C     C_3   0.121882 0.688242 0.778731 -0.649797
H19   H     H_    0.202372 0.710880 0.774485 0.257420
H20   H     H_    0.098356 0.751198 0.753506 0.250552
H21   H     H_    0.116083 0.680353 0.826222 0.206768
C68   C     C_3   0.878190 0.311761 0.221267 -0.649837
H22   H     H_    0.797693 0.289073 0.225519 0.257389
H23   H     H_    0.883983 0.319664 0.173773 0.206767
H24   H     H_    0.901747 0.248822 0.246483 0.250538
Cl7   Cl    Cl    0.132602 0.702800 0.648205 -0.651809
Cl8   Cl    Cl    0.867464 0.297181 0.351793 -0.651872
Cl9   Cl    Cl    0.865656 0.297000 0.675426 -0.521387
Cl10  Cl    Cl    0.134299 0.703033 0.324577 -0.521435
C69   C     C_3   0.872320 0.311799 0.803766 -0.621250
H25   H     H_    0.896236 0.248843 0.805432 0.246046
H26   H     H_    0.876663 0.319844 0.850137 0.204437
H27   H     H_    0.792186 0.289113 0.784066 0.273284
C70   C     C_3   0.127671 0.688264 0.196238 -0.621231
H28   H     H_    0.123347 0.680228 0.149867 0.204434
H29   H     H_    0.103726 0.751202 0.194567 0.246034
H30   H     H_    0.207806 0.710985 0.215940 0.273270
C71   C     C_3   0.626829 0.885913 0.414504 -0.689705
H31   H     H_    0.589291 0.897446 0.368551 0.284541
H32   H     H_    0.707978 0.924252 0.409177 0.223695
H33   H     H_    0.605589 0.802110 0.431332 0.238368
C72   C     C_3   0.373193 0.114470 0.585238 -0.689829
H34   H     H_    0.410643 0.102996 0.631219 0.284610
H35   H     H_    0.394565 0.198271 0.568328 0.238293
H36   H     H_    0.292026 0.076304 0.590517 0.223620
C73   C     C_3   0.041546 0.851487 0.489690 -0.775495
H37   H     H_    0.009024 0.787842 0.526629 0.262589
H38   H     H_    0.025257 0.915983 0.494481 0.217678
H39   H     H_    0.001652 0.829407 0.446261 0.234797
C74   C     C_3   0.958448 0.148485 0.510356 -0.775523
H40   H     H_    0.991032 0.212118 0.473425 0.262579
H41   H     H_    0.998269 0.170576 0.553793 0.234812
H42   H     H_    0.974752 0.083970 0.505614 0.217666

loop_
_geom_bond_atom_site_label_1
_geom_bond_atom_site_label_2
_ccdc_geom_bond_type
C2    O2    A    
C65   H13   S    
Cu1   O8    S    
Cu2   O3    S    
C57   C58   A    
C65   H15   S    
Cu1   O4    S    
C39   C41   A    
C27   C33   A    
C15   C19   A    
C73   H38   S    
C59   C64   A    
C60   C63   A    
C53   N1    A    
C71   H31   S    
C29   C32   A    
C74   H41   S    
Cu2   O6    S    
C30   C31   A    
Cu1   O1    S    
C46   O10   S    
C58   C60   A    
C61   C63   A    
C69   H27   S    
C62   C64   A    
C17   C19   A    
C66   H16   S    
C49   C51   A    
C21   H12   S    
C72   H36   S    
C50   C52   A    
C23   O7    A    
C1    C15   S    
C47   C50   A    
C2    C16   S    
C18   C20   A    
C3    C13   A    
C16   C20   A    
C68   H24   S    
C46   C60   A    
C44   C52   A    
C40   C42   A    
C32   Cl2   S    
C13   N2    S    
C52   Cl4   S    
C19   C74   S    
C23   O5    A    
C37   H4    S    
C38   N4    A    
C25   C29   A    
C41   C43   A    
C37   N3    A    
C11   C69   S    
C42   C44   A    
C41   C47   A    
Cu1   O5    S    
Cu2   O7    S    
C54   N2    A    
C53   C55   A    
C1    O3    A    
C39   Cl6   S    
C73   H39   S    
C54   C56   A    
C69   H26   S    
C53   O11   S    
C17   C27   A    
C40   N4    A    
C4    C68   S    
C18   C28   A    
C39   N3    A    
C4    C6    A    
C67   H21   S    
C5    C7    A    
C38   H3    S    
C6    C8    A    
C12   C70   S    
C34   C72   S    
C5    Cl7   S    
C31   Cl1   S    
C20   C73   S    
C29   C30   A    
C70   H30   S    
C9    C11   A    
C61   H1    S    
C47   C48   A    
C51   Cl3   S    
C31   C33   A    
C64   H10   S    
C45   N1    A    
C42   C48   A    
C14   N1    S    
C24   O6    A    
C50   H8    S    
C69   H25   S    
C10   C12   A    
C40   Cl5   S    
C17   C65   S    
C48   C49   A    
C66   H17   S    
C12   C14   A    
C26   C30   A    
C55   C57   A    
C72   H34   S    
C9    Cl9   S    
C49   H7    S    
C36   C44   A    
C1    O1    A    
C18   C66   S    
C35   C43   A    
C70   H29   S    
C68   H22   S    
C33   C71   S    
C7    C9    A    
C21   C25   A    
C45   C59   A    
C16   C22   A    
C35   C37   A    
C22   H11   S    
C3    C5    A    
C24   O8    A    
C65   H14   S    
C74   H42   S    
C25   C27   A    
C73   H37   S    
C26   C28   A    
C62   H2    S    
C71   H33   S    
C67   H20   S    
C35   H5    S    
C67   H19   S    
Cu2   N3    S    
C46   N2    A    
C11   C13   A    
C43   C51   A    
Cu1   N4    S    
C70   H28   S    
C63   H9    S    
C3    C67   S    
C7    C23   S    
C55   C61   A    
C36   C38   A    
C8    C24   S    
C56   C58   A    
C2    O4    A    
C56   C62   A    
C28   C34   A    
C4    C14   A    
C45   O9    S    
C54   O12   S    
C57   C59   A    
Cu2   O2    S    
C15   C21   A    
C66   H18   S    
C8    C10   A    
Cu1   Cu2   S    
C22   C26   A    
C72   H35   S    
C68   H23   S    
C74   H40   S    
C6    Cl8   S    
C10   Cl10  S    
C36   H6    S    
C32   C34   A    
C71   H32   S    
