data_mof_unit_17256.cif
_audit_creation_date              2012-10-26T17:13:05-0400
_audit_creation_method            fapswitch 2.2
_symmetry_space_group_name_H-M    P1
_symmetry_Int_Tables_number       1
_space_group_crystal_system       triclinic
_cell_length_a                    16.751349
_cell_length_b                    16.751348
_cell_length_c                    16.75135
_cell_angle_alpha                 67.69971
_cell_angle_beta                  67.699717
_cell_angle_gamma                 67.699723
_cell_volume                      3868.49333294

loop_
_atom_site_label
_atom_site_type_symbol
_atom_type_description
_atom_site_fract_x
_atom_site_fract_y
_atom_site_fract_z
_atom_type_partial_charge
C1    C     C_R   0.322894 0.953831 0.452585 -0.028123
C2    C     C_R   0.311217 0.427310 0.008427 -0.031346
C3    C     C_R   0.547571 0.426549 0.962569 -0.002793
C4    C     C_R   0.037431 0.452429 0.573451 -0.002792
C5    C     C_R   0.962568 0.547571 0.426549 -0.002793
C6    C     C_R   0.991572 0.688783 0.572690 -0.031346
C7    C     C_R   0.008428 0.311217 0.427310 -0.031346
C8    C     C_R   0.449205 0.993673 0.453021 0.014915
C9    C     C_R   0.550795 0.006327 0.546979 0.014915
C10   C     C_R   0.993673 0.453021 0.449205 0.014915
C11   C     C_R   0.006327 0.546979 0.550795 0.014915
C12   C     C_R   0.453021 0.449205 0.993673 0.014915
C13   C     C_R   0.546979 0.550795 0.006327 0.014915
C14   C     C_R   0.017835 0.830141 0.568826 0.553592
C15   C     C_R   0.677105 0.046169 0.547415 -0.028123
C16   C     C_R   0.982165 0.169859 0.431174 0.553592
C17   C     C_R   0.830141 0.568826 0.017835 0.553592
C18   C     C_R   0.169859 0.431174 0.982165 0.553592
C19   C     C_R   0.568826 0.017835 0.830141 0.553593
C20   C     C_R   0.431174 0.982165 0.169859 0.553592
C21   C     C_R   0.436607 0.172086 0.968613 0.541773
C22   C     C_R   0.563393 0.827913 0.031387 0.541773
C23   C     C_R   0.968613 0.436607 0.172087 0.541773
C24   C     C_R   0.031387 0.563393 0.827913 0.541773
C25   C     C_R   0.172087 0.968613 0.436607 0.541773
C26   C     C_R   0.953831 0.452585 0.322894 -0.028123
C27   C     C_R   0.827913 0.031387 0.563393 0.541773
C28   C     C_R   0.400065 0.984909 0.405712 0.017906
C29   C     C_R   0.599935 0.015091 0.594288 0.017906
C30   C     C_R   0.984909 0.405712 0.400065 0.017907
C31   C     C_R   0.015090 0.594288 0.599935 0.017906
C32   C     C_R   0.405712 0.400065 0.984909 0.017906
C33   C     C_R   0.594288 0.599935 0.015091 0.017907
C34   C     C_R   0.271602 0.951513 0.402968 -0.023547
C35   C     C_R   0.728397 0.048487 0.597032 -0.023547
C36   C     C_R   0.951512 0.402968 0.271603 -0.023547
C37   C     C_R   0.046169 0.547415 0.677106 -0.028123
C38   C     C_R   0.048487 0.597032 0.728397 -0.023547
C39   C     C_R   0.402968 0.271603 0.951513 -0.023547
C40   C     C_R   0.597032 0.728397 0.048487 -0.023547
C41   C     C_R   0.609406 0.020356 0.734054 0.002631
C42   C     C_R   0.390593 0.979644 0.265946 0.002631
C43   C     C_R   0.734054 0.609406 0.020356 0.002631
C44   C     C_R   0.265946 0.390594 0.979644 0.002631
C45   C     C_R   0.020356 0.734054 0.609406 0.002631
C46   C     C_R   0.979644 0.265946 0.390594 0.002631
C47   C     C_R   0.508157 0.942695 0.734151 -0.120458
C48   C     C_R   0.452585 0.322894 0.953831 -0.028123
C49   C     C_R   0.491843 0.057305 0.265849 -0.120458
C50   C     C_R   0.942694 0.734151 0.508157 -0.120458
C51   C     C_R   0.057305 0.265849 0.491843 -0.120458
C52   C     C_R   0.734151 0.508157 0.942695 -0.120458
C53   C     C_R   0.265849 0.491843 0.057305 -0.120458
C54   C     C_R   0.301651 0.922198 0.546815 -0.128403
C55   C     C_R   0.698349 0.077802 0.453185 -0.128403
C56   C     C_R   0.546815 0.301651 0.922198 -0.128402
C57   C     C_R   0.453185 0.698349 0.077802 -0.128402
C58   C     C_R   0.922198 0.546815 0.301651 -0.128403
C59   C     C_R   0.547415 0.677106 0.046169 -0.028123
C60   C     C_R   0.077802 0.453185 0.698349 -0.128402
C61   C     C_R   0.315292 0.945297 0.314749 0.071086
C62   C     C_R   0.684708 0.054702 0.685251 0.071086
C63   C     C_R   0.945297 0.314749 0.315292 0.071086
C64   C     C_R   0.054702 0.685251 0.684708 0.071086
C65   C     C_R   0.314749 0.315292 0.945297 0.071086
C66   C     C_R   0.685251 0.684708 0.054703 0.071086
C67   C     C_R   0.646508 0.075365 0.405083 -0.014193
C68   C     C_R   0.353492 0.924635 0.594917 -0.014192
C69   C     C_R   0.075365 0.405083 0.646507 -0.014192
C70   C     C_R   0.572690 0.991573 0.688783 -0.031346
C71   C     C_R   0.924635 0.594917 0.353492 -0.014193
C72   C     C_R   0.405083 0.646508 0.075365 -0.014193
C73   C     C_R   0.594917 0.353492 0.924635 -0.014193
C74   C     C_R   0.542078 0.066269 0.311263 -0.012405
C75   C     C_R   0.457922 0.933731 0.688737 -0.012405
C76   C     C_R   0.311263 0.542078 0.066269 -0.012405
C77   C     C_R   0.688737 0.457922 0.933731 -0.012405
C78   C     C_R   0.066269 0.311263 0.542077 -0.012405
C79   C     C_R   0.933731 0.688737 0.457922 -0.012405
C80   C     C_R   0.665545 0.110897 0.310590 0.149296
C81   C     C_R   0.427310 0.008427 0.311217 -0.031346
C82   C     C_R   0.334455 0.889103 0.689410 0.149296
C83   C     C_R   0.110898 0.310590 0.665545 0.149296
C84   C     C_R   0.889102 0.689410 0.334455 0.149296
C85   C     C_R   0.310590 0.665545 0.110897 0.149296
C86   C     C_R   0.689410 0.334455 0.889103 0.149296
C87   C     C_R   0.613149 0.107344 0.264185 0.148924
C88   C     C_R   0.386851 0.892656 0.735815 0.148924
C89   C     C_R   0.264185 0.613149 0.107344 0.148924
C90   C     C_R   0.735815 0.386851 0.892656 0.148924
C91   C     C_R   0.107345 0.264185 0.613148 0.148924
C92   C     C_R   0.688783 0.572690 0.991572 -0.031346
C93   C     C_R   0.892656 0.735815 0.386852 0.148924
C94   C     C_R   0.522111 0.031810 0.405508 -0.000430
C95   C     C_R   0.477889 0.968189 0.594492 -0.000430
C96   C     C_R   0.031811 0.405508 0.522111 -0.000430
C97   C     C_R   0.968189 0.594492 0.477889 -0.000430
C98   C     C_R   0.405508 0.522111 0.031810 -0.000430
C99   C     C_R   0.594492 0.477889 0.968189 -0.000430
C100  C     C_R   0.573451 0.037431 0.452429 -0.002792
C101  C     C_R   0.426549 0.962569 0.547571 -0.002792
C102  C     C_R   0.452429 0.573451 0.037431 -0.002793
Cu1   Cu    Cu3+1 0.995180 0.995180 0.424630 0.949251
Cu2   Cu    Cu3+1 0.004820 0.004820 0.575370 0.949250
Cu3   Cu    Cu3+1 0.995180 0.424630 0.995180 0.949251
Cu4   Cu    Cu3+1 0.004820 0.575370 0.004820 0.949250
Cu5   Cu    Cu3+1 0.424630 0.995180 0.995180 0.949250
Cu6   Cu    Cu3+1 0.575370 0.004820 0.004820 0.949250
H1    H     H_    0.497755 0.909983 0.804910 0.147330
H2    H     H_    0.417802 0.752049 0.109660 0.132343
H3    H     H_    0.890339 0.582198 0.247951 0.132343
H4    H     H_    0.109660 0.417802 0.752049 0.132343
H5    H     H_    0.342483 0.850082 0.254710 0.207263
H6    H     H_    0.243256 0.863681 0.326238 0.231730
H7    H     H_    0.657517 0.149918 0.745290 0.207263
H8    H     H_    0.756743 0.136319 0.673762 0.231730
H9    H     H_    0.850082 0.254710 0.342483 0.207263
H10   H     H_    0.863681 0.326238 0.243256 0.231730
H11   H     H_    0.149918 0.745290 0.657517 0.207263
H12   H     H_    0.502245 0.090017 0.195090 0.147330
H13   H     H_    0.136319 0.673762 0.756743 0.231730
H14   H     H_    0.326238 0.243257 0.863681 0.231730
H15   H     H_    0.254710 0.342483 0.850082 0.207263
H16   H     H_    0.745290 0.657517 0.149918 0.207263
H17   H     H_    0.673762 0.756743 0.136319 0.231730
H18   H     H_    0.420793 0.804468 0.848511 0.224554
H19   H     H_    0.349000 0.905793 0.861749 0.233602
H20   H     H_    0.579207 0.195532 0.151489 0.224554
H21   H     H_    0.650999 0.094207 0.138251 0.233602
H22   H     H_    0.804468 0.848510 0.420794 0.224554
H23   H     H_    0.909983 0.804910 0.497756 0.147330
H24   H     H_    0.905792 0.861749 0.349001 0.233602
H25   H     H_    0.195533 0.151490 0.579205 0.224554
H26   H     H_    0.094209 0.138251 0.650999 0.233602
H27   H     H_    0.848510 0.420794 0.804468 0.224554
H28   H     H_    0.861749 0.349001 0.905793 0.233602
H29   H     H_    0.151489 0.579207 0.195532 0.224554
H30   H     H_    0.138251 0.650999 0.094207 0.233602
H31   H     H_    0.201849 0.896245 0.730147 0.236641
H32   H     H_    0.272571 0.794216 0.718049 0.217414
H33   H     H_    0.798151 0.103754 0.269853 0.236641
H34   H     H_    0.090017 0.195090 0.502244 0.147330
H35   H     H_    0.727429 0.205784 0.281951 0.217414
H36   H     H_    0.730147 0.201849 0.896245 0.236641
H37   H     H_    0.718049 0.272572 0.794216 0.217413
H38   H     H_    0.269853 0.798151 0.103754 0.236641
H39   H     H_    0.281951 0.727429 0.205784 0.217414
H40   H     H_    0.896245 0.730147 0.201849 0.236641
H41   H     H_    0.794215 0.718049 0.272572 0.217413
H42   H     H_    0.103757 0.269853 0.798150 0.236641
H43   H     H_    0.205785 0.281952 0.727427 0.217414
H44   H     H_    0.804910 0.497755 0.909983 0.147330
H45   H     H_    0.195090 0.502244 0.090017 0.147330
H46   H     H_    0.247951 0.890340 0.582198 0.132343
H47   H     H_    0.752049 0.109660 0.417802 0.132343
H48   H     H_    0.582198 0.247951 0.890339 0.132343
N1    N     N_3   0.286564 0.900389 0.276381 -0.562880
N2    N     N_3   0.144695 0.168465 0.634996 -0.576502
N3    N     N_3   0.831535 0.365002 0.855306 -0.576501
N4    N     N_3   0.168465 0.634998 0.144693 -0.576501
N5    N     N_3   0.261859 0.848791 0.740430 -0.573860
N6    N     N_3   0.738141 0.151209 0.259570 -0.573860
N7    N     N_3   0.740430 0.261860 0.848790 -0.573860
N8    N     N_3   0.259570 0.738141 0.151209 -0.573860
N9    N     N_3   0.848790 0.740430 0.261860 -0.573859
N10   N     N_3   0.151211 0.259570 0.738139 -0.573860
N11   N     N_3   0.713436 0.099612 0.723619 -0.562881
N12   N     N_3   0.900388 0.276381 0.286564 -0.562881
N13   N     N_3   0.099611 0.723619 0.713436 -0.562881
N14   N     N_3   0.276381 0.286564 0.900389 -0.562880
N15   N     N_3   0.723619 0.713436 0.099612 -0.562881
N16   N     N_3   0.365002 0.855307 0.831535 -0.576501
N17   N     N_3   0.634998 0.144693 0.168465 -0.576502
N18   N     N_3   0.855306 0.831535 0.365003 -0.576501
O1    O     O_R   0.124540 0.978640 0.385460 -0.473721
O2    O     O_R   0.124540 0.385460 0.978640 -0.467074
O3    O     O_R   0.021360 0.875460 0.614540 -0.467074
O4    O     O_R   0.978640 0.124540 0.385460 -0.467074
O5    O     O_R   0.013780 0.867370 0.487190 -0.532128
O6    O     O_R   0.986220 0.132630 0.512810 -0.532127
O7    O     O_R   0.867370 0.487190 0.013780 -0.532128
O8    O     O_R   0.132630 0.512810 0.986220 -0.532128
O9    O     O_R   0.487190 0.013780 0.867370 -0.532128
O10   O     O_R   0.512810 0.986220 0.132630 -0.532127
O11   O     O_R   0.512810 0.132630 0.986220 -0.532390
O12   O     O_R   0.875460 0.021360 0.614540 -0.473722
O13   O     O_R   0.487190 0.867370 0.013780 -0.532389
O14   O     O_R   0.986220 0.512810 0.132630 -0.532389
O15   O     O_R   0.013780 0.487190 0.867370 -0.532390
O16   O     O_R   0.132630 0.986220 0.512810 -0.532390
O17   O     O_R   0.867370 0.013780 0.487190 -0.532390
O18   O     O_R   0.978640 0.385460 0.124540 -0.473721
O19   O     O_R   0.021360 0.614540 0.875460 -0.473722
O20   O     O_R   0.385460 0.124540 0.978640 -0.473721
O21   O     O_R   0.614540 0.875460 0.021360 -0.473721
O22   O     O_R   0.614540 0.021360 0.875460 -0.467074
O23   O     O_R   0.385460 0.978640 0.124540 -0.467074
O24   O     O_R   0.875460 0.614540 0.021360 -0.467074

loop_
_geom_bond_atom_site_label_1
_geom_bond_atom_site_label_2
_ccdc_geom_bond_type
H13   N13   S    
C53   H45   S    
C16   O6    A    
C88   N16   S    
C6    C45   A    
C32   C48   A    
C74   C94   A    
C17   O7    A    
C56   H48   S    
C50   C79   A    
Cu4   O14   S    
C72   C85   A    
C75   C95   A    
H6    N1    S    
H22   N18   S    
C55   H47   S    
H20   N17   S    
C69   C83   A    
C60   C69   A    
C79   C93   A    
C80   C87   A    
C18   C44   S    
C25   O16   A    
C23   O14   A    
C58   C71   A    
C57   C59   A    
C49   H12   S    
C54   C68   A    
C18   O8    A    
H9    N12   S    
C76   C98   A    
H42   N10   S    
Cu5   O13   S    
C93   N18   S    
C64   N13   S    
C2    C32   A    
H25   N2    S    
C49   C81   A    
C22   O13   A    
C10   C30   A    
Cu4   O8    S    
C91   N2    S    
C84   N9    S    
C4    C96   A    
H28   N3    S    
Cu2   O3    S    
C78   C96   A    
Cu6   O11   S    
H14   N14   S    
Cu3   O2    S    
C1    C28   A    
C24   C38   S    
Cu5   Cu6   S    
H8    N11   S    
C77   C99   A    
C24   O15   A    
C3    C12   A    
C94   C100  A    
C21   O20   A    
Cu6   O22   S    
C36   C63   A    
C8    C101  A    
C9    C95   A    
H35   N6    S    
C12   C98   A    
C14   O5    A    
C9    C29   A    
C25   C34   S    
C20   O10   A    
C62   N11   S    
C11   C31   A    
C19   O22   A    
C33   C59   A    
C7    C30   A    
C40   C66   A    
C12   C32   A    
H40   N9    S    
C39   C65   A    
Cu3   O18   S    
H21   N17   S    
C44   C65   A    
C42   C81   A    
C27   O17   A    
C41   C62   A    
H17   N15   S    
C15   C35   A    
C4    C69   A    
C16   O4    A    
C1    C34   A    
C15   C29   A    
Cu4   O19   S    
C38   C64   A    
C87   N17   S    
C83   N10   S    
C77   C90   A    
H27   N3    S    
Cu6   O10   S    
C58   H3    S    
C14   O3    A    
C7    C46   A    
Cu3   O15   S    
C66   N15   S    
H31   N5    S    
C8    C94   A    
C68   C101  A    
C86   C90   A    
C33   C92   A    
C19   O9    A    
Cu5   O23   S    
C85   C89   A    
H37   N7    S    
C27   C35   S    
H32   N5    S    
C47   H1    S    
H38   N8    S    
C34   C61   A    
C31   C37   A    
Cu5   O9    S    
C4    C11   A    
C27   O12   A    
C15   C55   A    
C13   C99   A    
C29   C70   A    
C1    C54   A    
C17   C43   S    
C47   C70   A    
C13   C33   A    
C37   C38   A    
C60   H4    S    
C61   N1    S    
C25   O1    A    
C55   C67   A    
C57   H2    S    
C21   C39   S    
C10   C96   A    
C52   H44   S    
C22   C40   S    
Cu1   O1    S    
H41   N9    S    
C17   O24   A    
H24   N18   S    
C6    C50   A    
Cu6   O21   S    
C26   C58   A    
C42   C61   A    
C80   N6    S    
C67   C100  A    
H11   N13   S    
C26   C36   A    
C63   N12   S    
H26   N2    S    
C5    C97   A    
C26   C30   A    
C9    C100  A    
H36   N7    S    
C74   C87   A    
C22   O21   A    
C52   C92   A    
C53   C76   A    
Cu1   O17   S    
C90   N3    S    
C16   C46   S    
C52   C77   A    
Cu2   O12   S    
C2    C44   A    
C89   N4    S    
C71   C84   A    
C51   H34   S    
C23   O18   A    
C48   C56   A    
Cu2   O16   S    
C56   C73   A    
H29   N4    S    
C28   C81   A    
C79   C97   A    
C67   C80   A    
C2    C53   A    
C54   H46   S    
H30   N4    S    
C20   C42   S    
C21   O11   A    
C14   C45   S    
C82   N5    S    
C78   C91   A    
H43   N10   S    
C83   C91   A    
Cu3   Cu4   S    
C46   C63   A    
C45   C64   A    
C95   C101  A    
C43   C92   A    
Cu4   O24   S    
C65   N14   S    
C11   C97   A    
Cu1   O4    S    
C68   C82   A    
H5    N1    S    
C20   O23   A    
H19   N16   S    
C51   C78   A    
C47   C75   A    
C5    C10   A    
C5    C71   A    
C98   C102  A    
Cu2   O6    S    
H16   N15   S    
C72   C102  A    
C24   O19   A    
C43   C66   A    
C82   C88   A    
H10   N12   S    
H39   N8    S    
C6    C31   A    
C35   C62   A    
Cu1   O5    S    
C84   C93   A    
C57   C72   A    
C3    C73   A    
H15   N14   S    
C73   C86   A    
C37   C60   A    
H18   N16   S    
C50   H23   S    
C7    C51   A    
C3    C99   A    
C75   C88   A    
H33   N6    S    
C8    C28   A    
C23   C36   S    
Cu1   Cu2   S    
C40   C59   A    
C85   N8    S    
C49   C74   A    
C41   C70   A    
C76   C89   A    
C86   N7    S    
Cu3   O7    S    
C13   C102  A    
H7    N11   S    
Cu5   O20   S    
C19   C41   S    
C39   C48   A    
C18   O2    A    
