data_mof_unit_17847.cif
_audit_creation_date              2012-10-26T20:55:47-0400
_audit_creation_method            fapswitch 2.2
_symmetry_space_group_name_H-M    P1
_symmetry_Int_Tables_number       1
_space_group_crystal_system       triclinic
_cell_length_a                    10.805487
_cell_length_b                    16.030639
_cell_length_c                    17.177091
_cell_angle_alpha                 96.028872
_cell_angle_beta                  90.195355
_cell_angle_gamma                 92.571759
_cell_volume                      2955.86049892

loop_
_atom_site_label
_atom_site_type_symbol
_atom_type_description
_atom_site_fract_x
_atom_site_fract_y
_atom_site_fract_z
_atom_type_partial_charge
C1    C     C_R   0.503178 0.489711 0.349445 0.538470
C2    C     C_R   0.437411 0.441196 0.767999 -0.140257
C3    C     C_R   0.577733 0.557286 0.151728 -0.135516
C4    C     C_R   0.422272 0.442714 0.848273 -0.135516
C5    C     C_R   0.547938 0.483756 0.103158 0.045610
C6    C     C_R   0.452065 0.516244 0.896842 0.045610
C7    C     C_R   0.506204 0.410767 0.135015 -0.136145
C8    C     C_R   0.493797 0.589234 0.864985 -0.136145
C9    C     C_R   0.491750 0.411979 0.215731 -0.149406
C10   C     C_R   0.508249 0.588021 0.784268 -0.149407
C11   C     C_2   0.550133 0.485961 0.018006 -0.011188
C12   C     C_R   0.496822 0.510289 0.650555 0.538470
C13   C     C_2   0.449870 0.514039 0.981994 -0.011187
C14   C     C_R   0.430433 0.750100 0.470171 0.049680
C15   C     C_R   0.569567 0.249899 0.529829 0.049680
C16   C     C_R   0.262563 0.500484 0.502140 0.544087
C17   C     C_R   0.737437 0.499516 0.497860 0.544087
C18   C     C_R   0.430322 0.837214 0.475700 -0.148305
C19   C     C_R   0.569677 0.162786 0.524300 -0.148305
C20   C     C_R   0.520289 0.885727 0.521857 0.036003
C21   C     C_R   0.479710 0.114273 0.478143 0.036003
C22   C     C_R   0.609605 0.844338 0.562624 -0.014753
C23   C     C_R   0.871431 0.498868 0.496179 -0.003084
C24   C     C_R   0.390394 0.155662 0.437376 -0.014753
C25   C     C_R   0.603969 0.756176 0.555645 0.052911
C26   C     C_R   0.396031 0.243824 0.444355 0.052911
C27   C     C_2   0.516887 0.978661 0.529711 -0.149267
C28   C     C_2   0.483112 0.021339 0.470289 -0.149267
C29   C     C_R   0.263967 0.710406 0.686071 -0.095757
C30   C     C_R   0.736032 0.289594 0.313929 -0.095757
C31   C     C_R   0.202969 0.639307 0.646832 -0.051427
C32   C     C_R   0.797030 0.360692 0.353168 -0.051427
C33   C     C_R   0.129684 0.646616 0.580310 0.049941
C34   C     C_R   0.128568 0.501131 0.503820 -0.003084
C35   C     C_R   0.870315 0.353384 0.419690 0.049941
C36   C     C_R   0.116067 0.726298 0.554938 -0.105190
C37   C     C_R   0.883934 0.273702 0.445061 -0.105190
C38   C     C_R   0.176998 0.797211 0.594487 -0.120676
C39   C     C_R   0.823002 0.202789 0.405514 -0.120676
C40   C     C_R   0.251418 0.789207 0.659737 -0.101823
C41   C     C_R   0.748581 0.210793 0.340263 -0.101823
C42   C     C_R   0.937630 0.569414 0.532647 -0.154618
C43   C     C_R   0.062370 0.430586 0.467353 -0.154618
C44   C     C_3   0.712074 0.891168 0.612075 -0.269954
C45   C     C_R   0.934154 0.428614 0.462380 -0.033476
C46   C     C_3   0.811954 0.928360 0.560754 -0.293007
C47   C     C_3   0.916980 0.973122 0.610688 -0.464175
C48   C     C_3   0.287925 0.108832 0.387926 -0.269954
C49   C     C_3   0.188045 0.071641 0.439247 -0.293007
C50   C     C_3   0.083019 0.026879 0.389314 -0.464173
C51   C     C_3   0.335152 0.541377 0.028003 -0.247492
C52   C     C_3   0.227169 0.564975 0.977295 -0.300790
C53   C     C_3   0.116239 0.590640 0.027627 -0.465468
C54   C     C_3   0.664851 0.458624 0.971997 -0.247494
C55   C     C_3   0.772834 0.435025 0.022705 -0.300792
C56   C     C_R   0.065845 0.571386 0.537619 -0.033476
C57   C     C_3   0.883764 0.409360 0.972373 -0.465470
C58   C     C_R   0.518207 0.486473 0.264583 0.011177
C59   C     C_R   0.481795 0.513526 0.735417 0.011177
C60   C     C_R   0.562593 0.558803 0.232002 -0.140257
Cu1   Cu    Cu3+1 0.493640 0.415410 0.495980 0.928660
Cu2   Cu    Cu3+1 0.506360 0.584590 0.504020 0.928660
H1    H     H_    0.299143 0.844093 0.689978 0.100396
H2    H     H_    0.669995 0.722629 0.586518 0.113047
H3    H     H_    0.457149 0.987132 0.414420 0.118751
H4    H     H_    0.542850 0.012868 0.585581 0.118751
H5    H     H_    0.641941 0.133859 0.554381 0.084814
H6    H     H_    0.358059 0.866141 0.445619 0.084814
H7    H     H_    0.320879 0.704458 0.736952 0.100403
H8    H     H_    0.679119 0.295542 0.263049 0.100404
H9    H     H_    0.213420 0.578605 0.667854 0.095942
H10   H     H_    0.786580 0.421395 0.332146 0.095942
H11   H     H_    0.059491 0.733291 0.504056 0.096603
H12   H     H_    0.700856 0.155907 0.310023 0.100397
H13   H     H_    0.940509 0.266709 0.495943 0.096603
H14   H     H_    0.167196 0.858292 0.574211 0.101859
H15   H     H_    0.832804 0.141708 0.425789 0.101859
H16   H     H_    0.889009 0.622513 0.559871 0.124108
H17   H     H_    0.110991 0.377487 0.440129 0.124108
H18   H     H_    0.585475 0.616767 0.268476 0.128235
H19   H     H_    0.414531 0.383232 0.731525 0.128235
H20   H     H_    0.541987 0.644542 0.760304 0.116141
H21   H     H_    0.458010 0.355458 0.239696 0.116140
H22   H     H_    0.880960 0.025682 0.650237 0.146803
H23   H     H_    0.482335 0.353861 0.097234 0.101079
H24   H     H_    0.961335 0.928500 0.646211 0.153971
H25   H     H_    0.988195 0.999026 0.572287 0.134354
H26   H     H_    0.850809 0.877198 0.520683 0.157487
H27   H     H_    0.771434 0.974007 0.524656 0.166230
H28   H     H_    0.673163 0.941018 0.653383 0.130928
H29   H     H_    0.756693 0.847790 0.648966 0.125292
H30   H     H_    0.038666 0.071500 0.353788 0.153971
H31   H     H_    0.119038 0.974316 0.349767 0.146803
H32   H     H_    0.011801 0.000978 0.427715 0.134354
H33   H     H_    0.228564 0.025995 0.475346 0.166230
H34   H     H_    0.517664 0.646139 0.902766 0.101080
H35   H     H_    0.149190 0.122803 0.479317 0.157486
H36   H     H_    0.243306 0.152209 0.351034 0.125291
H37   H     H_    0.326835 0.058981 0.346618 0.130928
H38   H     H_    0.083133 0.538166 0.060735 0.152458
H39   H     H_    0.141995 0.646353 0.069503 0.149289
H40   H     H_    0.039571 0.606871 0.989557 0.139504
H41   H     H_    0.256922 0.618349 0.944281 0.165311
H42   H     H_    0.197850 0.510404 0.934875 0.165504
H43   H     H_    0.301637 0.489116 0.061372 0.149763
H44   H     H_    0.361977 0.596417 0.070488 0.145403
H45   H     H_    0.390408 0.386117 0.872889 0.101512
H46   H     H_    0.858008 0.353649 0.930496 0.149290
H47   H     H_    0.916872 0.461835 0.939267 0.152458
H48   H     H_    0.960431 0.393127 0.010443 0.139504
H49   H     H_    0.802153 0.489595 0.065126 0.165505
H50   H     H_    0.743079 0.381650 0.055718 0.165312
H51   H     H_    0.638027 0.403585 0.929512 0.145404
H52   H     H_    0.698367 0.510885 0.938630 0.149764
H53   H     H_    0.609599 0.613882 0.127112 0.101512
H54   H     H_    0.360589 0.712901 0.435068 0.127275
H55   H     H_    0.639411 0.287099 0.564932 0.127275
H56   H     H_    0.330004 0.277371 0.413482 0.113047
N1    N     N_R   0.515930 0.711660 0.510070 -0.230758
N2    N     N_R   0.484070 0.288340 0.489930 -0.230758
O1    O     O_R   0.494030 0.420280 0.382610 -0.505614
O2    O     O_R   0.505970 0.579720 0.617390 -0.505614
O3    O     O_R   0.504770 0.563150 0.389400 -0.509907
O4    O     O_R   0.495230 0.436850 0.610600 -0.509907
O5    O     O_R   0.314270 0.428570 0.496610 -0.517200
O6    O     O_R   0.685730 0.571430 0.503390 -0.517201
O7    O     O_R   0.325020 0.571440 0.503400 -0.493746
O8    O     O_R   0.674980 0.428560 0.496600 -0.493747

loop_
_geom_bond_atom_site_label_1
_geom_bond_atom_site_label_2
_ccdc_geom_bond_type
C38   C40   A    
C52   H41   S    
C34   C56   A    
C23   C45   A    
C55   H50   S    
C14   C18   A    
C8    H34   S    
C32   H10   S    
C46   H27   S    
C38   H14   S    
C15   C19   A    
C17   C23   S    
C23   C42   A    
Cu1   O4    S    
C39   H15   S    
C35   C37   A    
C26   N2    A    
C5    C11   S    
C40   H1    S    
Cu2   O7    S    
C17   O6    A    
C18   H6    S    
C54   H51   S    
C33   C36   A    
C15   N2    A    
Cu1   O1    S    
C9    C58   A    
C46   C47   S    
C49   C50   S    
C16   C34   S    
C41   H12   S    
C13   C51   S    
C12   C59   S    
C57   H47   S    
C53   H39   S    
C22   C25   A    
C31   C33   A    
C30   C41   A    
C19   H5    S    
C16   O5    A    
C46   H26   S    
C42   C56   A    
C3    C60   A    
C33   C56   S    
C31   H9    S    
C37   H13   S    
Cu1   N2    S    
C25   N1    A    
Cu2   O3    S    
C30   H8    S    
C44   C46   S    
C58   C60   A    
C29   H7    S    
C53   H38   S    
C4    H45   S    
C22   C44   S    
C51   C52   S    
C24   C48   S    
C32   C35   A    
C39   C41   A    
C5    C7    A    
C2    C59   A    
C50   H32   S    
C6    C8    A    
C10   H20   S    
C15   H55   S    
C25   H2    S    
C47   H25   S    
C2    C4    A    
C1    O3    A    
C57   H48   S    
C12   O4    A    
C53   H40   S    
C51   H43   S    
C17   O8    A    
C47   H22   S    
C49   H33   S    
C43   C45   A    
Cu2   N1    S    
C11   C54   S    
C9    H21   S    
C4    C6    A    
C48   C49   S    
C21   C28   S    
C20   C22   A    
C42   H16   S    
C55   C57   S    
C35   C45   S    
Cu2   O2    S    
C44   H28   S    
C52   C53   S    
Cu2   O6    S    
C50   H30   S    
C7    C9    A    
C48   H37   S    
C54   C55   S    
C60   H18   S    
C1    O1    A    
C55   H49   S    
C8    C10   A    
C34   C43   A    
C26   H56   S    
C24   C26   A    
C3    C5    A    
C50   H31   S    
C20   C27   S    
C48   H36   S    
C36   C38   A    
C28   H3    S    
C29   C31   A    
C27   H4    S    
C3    H53   S    
C1    C58   S    
C6    C13   S    
C30   C32   A    
C11   C13   D    
C7    H23   S    
C51   H44   S    
C14   H54   S    
C54   H52   S    
C29   C40   A    
C52   H42   S    
C10   C59   A    
Cu1   O8    S    
C18   C20   A    
Cu1   Cu2   S    
C16   O7    A    
C44   H29   S    
C36   H11   S    
C49   H35   S    
C57   H46   S    
C12   O2    A    
C37   C39   A    
C14   N1    A    
C21   C24   A    
C27   C28   D    
C47   H24   S    
C2    H19   S    
Cu1   O5    S    
C43   H17   S    
C19   C21   A    
