data_mof_unit_61422.cif
_audit_creation_date              2012-12-10T20:04:53-0500
_audit_creation_method            fapswitch 2.2
_symmetry_space_group_name_H-M    P1
_symmetry_Int_Tables_number       1
_space_group_crystal_system       monoclinic
_cell_length_a                    38.427337
_cell_length_b                    32.151824
_cell_length_c                    21.382491
_cell_angle_alpha                 90.0
_cell_angle_beta                  123.267389
_cell_angle_gamma                 90.0
_cell_volume                      22088.827599

loop_
_atom_site_label
_atom_site_type_symbol
_atom_type_description
_atom_site_fract_x
_atom_site_fract_y
_atom_site_fract_z
_atom_type_partial_charge
C1    C     C_R   0.919354 0.000000 0.419019 0.911388
C2    C     C_R   0.271936 0.989399 0.830952 -0.022620
C3    C     C_R   0.005863 0.228251 0.949204 -0.051687
C4    C     C_R   0.493711 0.728251 0.050274 -0.051696
C5    C     C_R   0.506289 0.728251 0.949726 -0.051696
C6    C     C_R   0.000000 0.206602 0.000000 0.029082
C7    C     C_R   0.500000 0.706602 0.000000 0.029078
C8    C     C_1   0.500000 0.838269 0.000000 -0.020235
C9    C     C_1   0.000000 0.338269 0.000000 -0.020231
C10   C     C_3   0.987746 0.962911 0.758405 0.058163
C11   C     C_3   0.012254 0.962911 0.241594 0.058163
C12   C     C_3   0.487749 0.462910 0.758408 0.058167
C13   C     C_R   0.228064 0.489403 0.169046 -0.022614
C14   C     C_3   0.512251 0.462910 0.241592 0.058167
C15   C     C_1   0.000000 0.161956 0.000000 -0.020667
C16   C     C_1   0.500000 0.661956 0.000000 -0.020678
C17   C     C_1   0.000000 0.124756 0.000000 -0.172415
C18   C     C_1   0.500000 0.624756 0.000000 -0.172418
C19   C     C_1   0.500000 0.875484 0.000000 -0.156826
C20   C     C_1   0.000000 0.375484 0.000000 -0.156819
C21   C     C_3   0.001014 0.000124 0.812018 -0.101155
C22   C     C_3   0.998986 0.000124 0.187982 -0.101155
C23   C     C_3   0.501014 0.500124 0.812018 -0.101135
C24   C     C_R   0.771936 0.489403 0.830954 -0.022614
C25   C     C_3   0.498986 0.500124 0.187982 -0.101135
C26   C     C_3   0.974754 0.030323 0.746434 -0.258391
C27   C     C_3   0.025246 0.030323 0.253566 -0.258392
C28   C     C_3   0.474752 0.530321 0.746432 -0.258446
C29   C     C_3   0.525248 0.530321 0.253568 -0.258445
C30   C     C_3   0.013425 0.037368 0.743042 -0.000092
C31   C     C_3   0.986576 0.037368 0.256959 -0.000092
C32   C     C_3   0.513422 0.537369 0.743039 -0.000082
C33   C     C_3   0.486578 0.537369 0.256961 -0.000081
C34   C     C_3   0.039755 0.007641 0.809222 0.039649
C35   C     C_R   0.706393 0.000489 0.202180 0.047453
C36   C     C_3   0.960245 0.007641 0.190778 0.039648
C37   C     C_3   0.539754 0.507644 0.809222 0.039660
C38   C     C_3   0.460246 0.507644 0.190778 0.039660
C39   C     C_3   0.026383 0.970460 0.755281 -0.013522
C40   C     C_3   0.973616 0.970460 0.244719 -0.013522
C41   C     C_3   0.526386 0.470462 0.755283 -0.013532
C42   C     C_3   0.473614 0.470462 0.244717 -0.013532
C43   C     C_3   0.972851 0.921603 0.771386 -0.425571
C44   C     C_3   0.962515 0.889467 0.710537 -0.320093
C45   C     C_3   0.945774 0.849380 0.722765 -0.871584
C46   C     C_R   0.293607 0.000489 0.797820 0.047453
C47   C     C_3   0.027148 0.921603 0.228614 -0.425572
C48   C     C_3   0.037485 0.889466 0.289462 -0.320092
C49   C     C_3   0.054225 0.849380 0.277234 -0.871584
C50   C     C_3   0.472857 0.421601 0.771392 -0.425579
C51   C     C_3   0.462521 0.389464 0.710543 -0.320090
C52   C     C_3   0.445786 0.349376 0.722776 -0.871582
C53   C     C_3   0.527143 0.421601 0.228608 -0.425579
C54   C     C_3   0.537478 0.389464 0.289457 -0.320089
C55   C     C_3   0.554214 0.349376 0.277224 -0.871581
C56   C     C_3   0.795228 0.024251 0.404560 -0.387119
C57   C     C_R   0.206393 0.500489 0.202180 0.047452
C58   C     C_3   0.768830 0.037646 0.435028 -0.376350
C59   C     C_3   0.796298 0.049445 0.517594 -0.835409
C60   C     C_3   0.204772 0.024251 0.595440 -0.387118
C61   C     C_3   0.231169 0.037646 0.564972 -0.376348
C62   C     C_3   0.203702 0.049446 0.482406 -0.835409
C63   C     C_3   0.295227 0.524243 0.404564 -0.387121
C64   C     C_3   0.268830 0.537634 0.435033 -0.376333
C65   C     C_3   0.296298 0.549430 0.517601 -0.835441
C66   C     C_3   0.704772 0.524243 0.595436 -0.387122
C67   C     C_3   0.731170 0.537634 0.564967 -0.376333
C68   C     C_R   0.793607 0.500489 0.797820 0.047452
C69   C     C_3   0.703702 0.549430 0.482399 -0.835440
C70   C     C_3   0.954139 0.791346 0.058689 -0.400263
C71   C     C_3   0.948774 0.838557 0.059116 -0.364475
C72   C     C_3   0.923622 0.850132 0.092413 -0.870390
C73   C     C_3   0.045861 0.791346 0.941311 -0.400263
C74   C     C_3   0.051226 0.838557 0.940884 -0.364475
C75   C     C_3   0.076377 0.850132 0.907586 -0.870390
C76   C     C_3   0.454134 0.291346 0.058679 -0.400266
C77   C     C_3   0.448768 0.338557 0.059105 -0.364469
C78   C     C_3   0.423614 0.350132 0.092397 -0.870401
C79   C     C_R   0.727607 0.011954 0.277221 -0.209748
C80   C     C_3   0.545866 0.291346 0.941321 -0.400266
C81   C     C_3   0.551231 0.338557 0.940895 -0.364470
C82   C     C_3   0.576385 0.350132 0.907602 -0.870399
C83   C     C_1   0.458962 0.203974 0.056465 0.155663
C84   C     C_1   0.541038 0.203974 0.943535 0.155663
C85   C     C_1   0.958967 0.703974 0.056474 0.155664
C86   C     C_1   0.041033 0.703974 0.943526 0.155665
C87   C     C_1   0.011871 0.205582 0.897086 0.186276
C88   C     C_1   0.988129 0.205582 0.102914 0.186276
C89   C     C_1   0.512731 0.705582 0.898142 0.186274
C90   C     C_R   0.272393 0.011954 0.722779 -0.209748
C91   C     C_1   0.487269 0.705582 0.101858 0.186274
C92   C     C_1   0.512760 0.794574 0.898173 0.195025
C93   C     C_1   0.487240 0.794574 0.101826 0.195025
C94   C     C_1   0.011892 0.294574 0.897107 0.195048
C95   C     C_1   0.988107 0.294574 0.102892 0.195049
C96   C     C_1   0.919910 0.985763 0.627204 0.144899
C97   C     C_1   0.080090 0.985762 0.372796 0.144898
C98   C     C_1   0.419911 0.485757 0.627204 0.144882
C99   C     C_1   0.580089 0.485757 0.372795 0.144882
C100  C     C_1   0.026009 0.078734 0.733307 0.193602
C101  C     C_R   0.227607 0.511950 0.277222 -0.209743
C102  C     C_1   0.973992 0.078734 0.266693 0.193602
C103  C     C_1   0.526004 0.578736 0.733303 0.193551
C104  C     C_1   0.473996 0.578736 0.266697 0.193552
C105  C     C_3   0.083918 0.015664 0.877169 -0.378191
C106  C     C_3   0.114706 0.025376 0.854699 -0.370345
C107  C     C_3   0.158909 0.029525 0.923555 -0.869312
C108  C     C_3   0.916082 0.015665 0.122831 -0.378190
C109  C     C_3   0.885294 0.025376 0.145301 -0.370345
C110  C     C_3   0.841091 0.029526 0.076445 -0.869311
C111  C     C_3   0.583917 0.515670 0.877168 -0.378178
C112  C     C_R   0.080646 0.000000 0.580980 0.911387
C113  C     C_R   0.772393 0.511950 0.722777 -0.209742
C114  C     C_3   0.614704 0.525384 0.854698 -0.370334
C115  C     C_3   0.658907 0.529537 0.923554 -0.869268
C116  C     C_3   0.416083 0.515670 0.122832 -0.378178
C117  C     C_3   0.385296 0.525385 0.145302 -0.370334
C118  C     C_3   0.341093 0.529537 0.076446 -0.869266
C119  C     C_1   0.053857 0.937738 0.758004 0.135289
C120  C     C_1   0.946142 0.937738 0.241995 0.135289
C121  C     C_1   0.553862 0.437742 0.758009 0.135288
C122  C     C_1   0.446138 0.437742 0.241991 0.135288
C123  C     C_3   0.795648 0.978588 0.176247 -0.418818
C124  C     C_R   0.771227 0.012315 0.321896 0.081751
C125  C     C_3   0.801387 0.931370 0.176799 -0.321844
C126  C     C_3   0.816646 0.918999 0.126876 -0.844620
C127  C     C_3   0.204352 0.978588 0.823753 -0.418818
C128  C     C_3   0.198613 0.931369 0.823200 -0.321843
C129  C     C_3   0.183354 0.918998 0.873123 -0.844622
C130  C     C_3   0.295648 0.478596 0.176243 -0.418808
C131  C     C_3   0.301385 0.431377 0.176786 -0.321845
C132  C     C_3   0.316642 0.419010 0.126858 -0.844640
C133  C     C_3   0.704352 0.478596 0.823756 -0.418808
C134  C     C_3   0.698615 0.431377 0.823214 -0.321844
C135  C     C_R   0.228773 0.012315 0.678104 0.081750
C136  C     C_3   0.683358 0.419010 0.873142 -0.844640
C137  C     C_1   0.705064 0.977257 0.090889 0.164632
C138  C     C_1   0.294936 0.977256 0.909110 0.164633
C139  C     C_1   0.205064 0.477265 0.090886 0.164621
C140  C     C_1   0.794936 0.477264 0.909114 0.164621
C141  C     C_R   0.271227 0.512311 0.321898 0.081749
C142  C     C_R   0.728773 0.512311 0.678102 0.081749
C143  C     C_R   0.793255 0.000965 0.288861 0.072159
C144  C     C_R   0.206745 0.000965 0.711139 0.072158
C145  C     C_R   0.293255 0.500965 0.288861 0.072158
C146  C     C_R   0.706745 0.500965 0.711139 0.072158
C147  C     C_R   0.771978 0.989966 0.212202 0.044113
C148  C     C_R   0.419354 0.500000 0.419019 0.911393
C149  C     C_R   0.228022 0.989966 0.787798 0.044114
C150  C     C_R   0.271978 0.489970 0.212200 0.044114
C151  C     C_R   0.728022 0.489970 0.787799 0.044114
C152  C     C_1   0.661859 0.000354 0.159683 -0.029446
C153  C     C_1   0.338141 0.000354 0.840317 -0.029446
C154  C     C_1   0.161859 0.500355 0.159683 -0.029444
C155  C     C_1   0.838141 0.500355 0.840317 -0.029444
C156  C     C_1   0.837939 0.000288 0.334525 -0.073733
C157  C     C_1   0.162061 0.000288 0.665475 -0.073733
C158  C     C_1   0.337939 0.500288 0.334525 -0.073732
C159  C     C_R   0.580646 0.500000 0.580981 0.911391
C160  C     C_1   0.662061 0.500288 0.665475 -0.073732
C161  C     C_1   0.875186 0.000018 0.373208 -0.179150
C162  C     C_1   0.124814 0.000018 0.626792 -0.179150
C163  C     C_1   0.375186 0.500018 0.373208 -0.179152
C164  C     C_1   0.624814 0.500018 0.626792 -0.179153
C165  C     C_R   0.000114 0.000068 0.621749 0.888847
C166  C     C_R   0.999886 0.000068 0.378251 0.888845
C167  C     C_R   0.500114 0.500068 0.621750 0.888850
C168  C     C_R   0.499886 0.500068 0.378250 0.888848
C169  C     C_1   0.624621 0.000196 0.123582 -0.163435
C170  C     C_3   0.000451 0.000325 0.689265 -0.156235
C171  C     C_1   0.375379 0.000196 0.876418 -0.163434
C172  C     C_1   0.124621 0.500196 0.123582 -0.163434
C173  C     C_1   0.875379 0.500196 0.876418 -0.163434
C174  C     C_R   0.000000 0.919469 0.000000 0.907743
C175  C     C_R   0.500000 0.419469 0.000000 0.907742
C176  C     C_R   0.000268 0.000208 0.878511 0.890544
C177  C     C_R   0.999732 0.000208 0.121489 0.890544
C178  C     C_R   0.500268 0.500208 0.878511 0.890536
C179  C     C_R   0.499732 0.500208 0.121489 0.890535
C180  C     C_R   0.000000 0.080666 0.000000 0.912164
C181  C     C_3   0.999549 0.000325 0.310735 -0.156235
C182  C     C_R   0.500000 0.580666 0.000000 0.912154
C183  C     C_R   0.500000 0.919604 0.000000 0.897362
C184  C     C_R   0.000000 0.419604 0.000000 0.897348
C185  C     C_R   0.580466 0.000028 0.080147 0.897338
C186  C     C_R   0.419534 0.000028 0.919852 0.897340
C187  C     C_R   0.080466 0.500028 0.080147 0.897331
C188  C     C_R   0.919534 0.500028 0.919852 0.897332
C189  C     C_R   0.500000 0.080482 0.000000 0.896599
C190  C     C_R   0.000000 0.580482 0.000000 0.896597
C191  C     C_R   0.479470 0.227865 0.027701 -0.052950
C192  C     C_3   0.500451 0.500325 0.689265 -0.156234
C193  C     C_R   0.520530 0.227865 0.972299 -0.052950
C194  C     C_R   0.979472 0.727865 0.027705 -0.052951
C195  C     C_R   0.020528 0.727865 0.972295 -0.052951
C196  C     C_R   0.500000 0.206477 0.000000 0.016737
C197  C     C_R   0.000000 0.706477 0.000000 0.016738
C198  C     C_R   0.021442 0.771822 0.972341 0.025110
C199  C     C_R   0.978557 0.771822 0.027659 0.025110
C200  C     C_R   0.521445 0.271822 0.972345 0.025111
C201  C     C_R   0.478555 0.271822 0.027655 0.025111
C202  C     C_3   0.962098 0.992995 0.692651 0.024559
C203  C     C_3   0.499549 0.500325 0.310734 -0.156234
C204  C     C_3   0.037902 0.992995 0.307349 0.024559
C205  C     C_3   0.462099 0.492992 0.692651 0.024580
C206  C     C_3   0.537901 0.492992 0.307348 0.024579
C207  C     C_R   0.000000 0.793772 1.000000 0.114774
C208  C     C_R   0.500000 0.293772 1.000000 0.114774
C209  C     C_1   0.500000 0.161742 0.000000 -0.007165
C210  C     C_1   0.000000 0.661742 0.000000 -0.007165
C211  C     C_1   0.000000 0.838134 0.000000 -0.034799
C212  C     C_1   0.500000 0.338134 0.000000 -0.034799
C213  C     C_1   0.000000 0.875435 0.000000 -0.262279
C214  C     C_R   0.728064 0.989399 0.169048 -0.022620
C215  C     C_1   0.500000 0.375435 0.000000 -0.262279
C216  C     C_1   0.500000 0.124552 0.000000 -0.158907
C217  C     C_1   0.000000 0.624552 0.000000 -0.158905
C218  C     C_R   0.506295 0.771937 0.949736 -0.054122
C219  C     C_R   0.493705 0.771937 0.050264 -0.054122
C220  C     C_R   0.005867 0.271937 0.949211 -0.054123
C221  C     C_R   0.994133 0.271937 0.050789 -0.054123
C222  C     C_R   0.500000 0.793602 0.000000 0.026253
C223  C     C_R   0.000000 0.293602 0.000000 0.026248
C224  C     C_R   0.994137 0.228251 0.050796 -0.051687
H1    H     H_    0.953692 0.054702 0.744433 0.160949
H2    H     H_    0.917253 0.855807 0.722374 0.266031
H3    H     H_    0.839821 0.053678 0.038093 0.269169
H4    H     H_    0.830309 0.999364 0.046340 0.262851
H5    H     H_    0.819823 0.038919 0.093838 0.249058
H6    H     H_    0.885974 0.000398 0.181753 0.222441
H7    H     H_    0.893886 0.055051 0.176845 0.236158
H8    H     H_    0.917011 0.042364 0.090779 0.216653
H9    H     H_    0.905517 0.987580 0.086594 0.214528
H10   H     H_    0.660175 0.553690 0.961903 0.269191
H11   H     H_    0.669691 0.499376 0.953663 0.262839
H12   H     H_    0.680175 0.538931 0.906160 0.249059
H13   H     H_    0.937853 0.827048 0.677180 0.253721
H14   H     H_    0.614026 0.500405 0.818248 0.222432
H15   H     H_    0.606110 0.555059 0.823152 0.236184
H16   H     H_    0.582985 0.542370 0.909219 0.216687
H17   H     H_    0.594484 0.487586 0.913407 0.214520
H18   H     H_    0.339825 0.553690 0.038097 0.269191
H19   H     H_    0.330309 0.499376 0.046337 0.262838
H20   H     H_    0.319825 0.538931 0.093840 0.249058
H21   H     H_    0.385974 0.500405 0.181752 0.222432
H22   H     H_    0.393890 0.555059 0.176847 0.236184
H23   H     H_    0.417014 0.542370 0.090781 0.216687
H24   H     H_    0.938702 0.902132 0.654635 0.234857
H25   H     H_    0.405516 0.487586 0.086593 0.214520
H26   H     H_    0.792636 0.926484 0.067560 0.259141
H27   H     H_    0.845727 0.935808 0.143807 0.272905
H28   H     H_    0.822847 0.885038 0.131690 0.256734
H29   H     H_    0.824358 0.920900 0.234998 0.232003
H30   H     H_    0.771421 0.915178 0.156362 0.229260
H31   H     H_    0.778676 0.990514 0.117950 0.210213
H32   H     H_    0.826555 0.993995 0.205105 0.205102
H33   H     H_    0.207364 0.926483 0.932439 0.259141
H34   H     H_    0.154273 0.935808 0.856192 0.272905
H35   H     H_    0.990818 0.881929 0.710957 0.234770
H36   H     H_    0.177153 0.885037 0.868308 0.256735
H37   H     H_    0.175642 0.920899 0.765001 0.232003
H38   H     H_    0.228579 0.915177 0.843638 0.229259
H39   H     H_    0.221324 0.990514 0.882050 0.210213
H40   H     H_    0.173445 0.993995 0.794895 0.205102
H41   H     H_    0.292632 0.426499 0.067545 0.259139
H42   H     H_    0.345724 0.435819 0.143791 0.272908
H43   H     H_    0.322842 0.385049 0.131666 0.256731
H44   H     H_    0.324356 0.420904 0.234982 0.232004
H45   H     H_    0.271418 0.415185 0.156347 0.229251
H46   H     H_    0.997757 0.909432 0.826733 0.194255
H47   H     H_    0.278676 0.490526 0.117949 0.210215
H48   H     H_    0.326555 0.494001 0.205105 0.205101
H49   H     H_    0.707368 0.426498 0.932455 0.259139
H50   H     H_    0.654276 0.435819 0.856209 0.272908
H51   H     H_    0.677158 0.385049 0.868334 0.256731
H52   H     H_    0.675644 0.420904 0.765017 0.232004
H53   H     H_    0.728582 0.415185 0.843653 0.229251
H54   H     H_    0.721324 0.490526 0.882051 0.210214
H55   H     H_    0.673445 0.494001 0.794895 0.205101
H56   H     H_    0.944803 0.927659 0.772747 0.217538
H57   H     H_    0.030432 0.834902 0.223108 0.263081
H58   H     H_    0.082746 0.855806 0.277626 0.266031
H59   H     H_    0.062146 0.827048 0.322819 0.253721
H60   H     H_    0.061297 0.902132 0.345365 0.234857
H61   H     H_    0.046308 0.054702 0.255567 0.160949
H62   H     H_    0.009182 0.881928 0.289042 0.234770
H63   H     H_    0.002242 0.909432 0.173266 0.194255
H64   H     H_    0.055197 0.927659 0.227252 0.217538
H65   H     H_    0.469581 0.334900 0.776901 0.263081
H66   H     H_    0.417265 0.355800 0.722389 0.266033
H67   H     H_    0.437864 0.327044 0.677190 0.253720
H68   H     H_    0.438707 0.402129 0.654641 0.234858
H69   H     H_    0.490824 0.381929 0.710960 0.234770
H70   H     H_    0.497765 0.409431 0.826739 0.194258
H71   H     H_    0.444809 0.427655 0.772755 0.217536
H72   H     H_    0.453688 0.554698 0.744429 0.160893
H73   H     H_    0.530419 0.334900 0.223099 0.263080
H74   H     H_    0.582735 0.355800 0.277611 0.266033
H75   H     H_    0.562136 0.327044 0.322810 0.253720
H76   H     H_    0.561293 0.402129 0.345359 0.234858
H77   H     H_    0.509176 0.381929 0.289039 0.234769
H78   H     H_    0.502235 0.409431 0.173261 0.194257
H79   H     H_    0.555191 0.427655 0.227245 0.217536
H80   H     H_    0.815014 0.022271 0.551413 0.273908
H81   H     H_    0.817512 0.075362 0.525687 0.262945
H82   H     H_    0.776441 0.059647 0.537655 0.248029
H83   H     H_    0.546312 0.554698 0.255571 0.160892
H84   H     H_    0.749519 0.065062 0.403259 0.227738
H85   H     H_    0.748169 0.011662 0.429243 0.227640
H86   H     H_    0.814497 0.997133 0.437684 0.225770
H87   H     H_    0.816586 0.050300 0.413705 0.212558
H88   H     H_    0.184985 0.022272 0.448587 0.273908
H89   H     H_    0.182488 0.075363 0.474313 0.262945
H90   H     H_    0.223559 0.059647 0.462345 0.248029
H91   H     H_    0.250481 0.065062 0.596741 0.227738
H92   H     H_    0.251831 0.011662 0.570757 0.227640
H93   H     H_    0.185503 0.997133 0.562316 0.225770
H94   H     H_    0.709446 0.020302 0.300007 0.148675
H95   H     H_    0.183414 0.050300 0.586296 0.212558
H96   H     H_    0.315014 0.522255 0.551417 0.273913
H97   H     H_    0.317512 0.575348 0.525699 0.262929
H98   H     H_    0.276441 0.559630 0.537664 0.248032
H99   H     H_    0.249519 0.565052 0.403269 0.227735
H100  H     H_    0.248168 0.511650 0.429245 0.227646
H101  H     H_    0.314497 0.497124 0.437683 0.225770
H102  H     H_    0.316586 0.550293 0.413712 0.212552
H103  H     H_    0.684986 0.522255 0.448583 0.273913
H104  H     H_    0.682487 0.575348 0.474301 0.262929
H105  H     H_    0.290554 0.020303 0.699993 0.148675
H106  H     H_    0.723559 0.559630 0.462336 0.248031
H107  H     H_    0.750481 0.565052 0.596731 0.227734
H108  H     H_    0.751831 0.511650 0.570755 0.227646
H109  H     H_    0.685503 0.497124 0.562317 0.225771
H110  H     H_    0.683414 0.550293 0.586288 0.212552
H111  H     H_    0.892066 0.836099 0.059148 0.266279
H112  H     H_    0.939745 0.839229 0.151255 0.271544
H113  H     H_    0.920330 0.884482 0.091805 0.254549
H114  H     H_    0.979718 0.853262 0.094545 0.229808
H115  H     H_    0.931991 0.850750 0.001008 0.245805
H116  H     H_    0.209446 0.520296 0.300010 0.148678
H117  H     H_    0.922167 0.778053 0.026104 0.214187
H118  H     H_    0.969168 0.780543 0.117493 0.208928
H119  H     H_    0.107934 0.836099 0.940851 0.266279
H120  H     H_    0.060254 0.839229 0.848745 0.271544
H121  H     H_    0.079669 0.884482 0.908194 0.254549
H122  H     H_    0.020282 0.853262 0.905455 0.229807
H123  H     H_    0.068009 0.850750 0.998992 0.245804
H124  H     H_    0.077833 0.778053 0.973897 0.214187
H125  H     H_    0.030832 0.780543 0.882507 0.208928
H126  H     H_    0.392058 0.336099 0.059129 0.266277
H127  H     H_    0.790554 0.520296 0.699990 0.148678
H128  H     H_    0.439736 0.339229 0.151239 0.271543
H129  H     H_    0.420322 0.384482 0.091789 0.254550
H130  H     H_    0.479712 0.353262 0.094536 0.229808
H131  H     H_    0.431987 0.350750 0.000997 0.245805
H132  H     H_    0.422163 0.278053 0.026091 0.214186
H133  H     H_    0.469162 0.280543 0.117483 0.208927
H134  H     H_    0.607942 0.336099 0.940870 0.266276
H135  H     H_    0.560264 0.339229 0.848761 0.271543
H136  H     H_    0.579677 0.384482 0.908211 0.254550
H137  H     H_    0.520288 0.353262 0.905464 0.229808
H138  H     H_    0.969567 0.834903 0.776892 0.263081
H139  H     H_    0.568013 0.350750 0.999003 0.245805
H140  H     H_    0.577837 0.278053 0.973909 0.214186
H141  H     H_    0.530838 0.280543 0.882517 0.208927
H142  H     H_    0.160179 0.053678 0.961907 0.269170
H143  H     H_    0.169691 0.999363 0.953660 0.262851
H144  H     H_    0.180177 0.038919 0.906162 0.249058
H145  H     H_    0.114026 0.000397 0.818247 0.222441
H146  H     H_    0.106114 0.055051 0.823156 0.236158
H147  H     H_    0.082989 0.042364 0.909222 0.216653
H148  H     H_    0.094483 0.987579 0.913406 0.214528
N1    N     N_1   0.442675 0.184965 0.079319 -0.196753
N2    N     N_1   0.482086 0.812635 0.142919 -0.183562
N3    N     N_1   0.016694 0.312635 0.855583 -0.183579
N4    N     N_1   0.983305 0.312635 0.144417 -0.183579
N5    N     N_1   0.886704 0.979935 0.575525 -0.238698
N6    N     N_1   0.113296 0.979935 0.424475 -0.238698
N7    N     N_1   0.386706 0.479928 0.575526 -0.238698
N8    N     N_1   0.613294 0.479928 0.424474 -0.238697
N9    N     N_1   0.035895 0.111340 0.725630 -0.190116
N10   N     N_1   0.964105 0.111340 0.274370 -0.190116
N11   N     N_1   0.535889 0.611342 0.725625 -0.190097
N12   N     N_1   0.557325 0.184965 0.920681 -0.196753
N13   N     N_1   0.464111 0.611342 0.274375 -0.190097
N14   N     N_1   0.075230 0.911812 0.759701 -0.220953
N15   N     N_1   0.924769 0.911812 0.240299 -0.220953
N16   N     N_1   0.575237 0.411817 0.759707 -0.220952
N17   N     N_1   0.424763 0.411817 0.240293 -0.220952
N18   N     N_1   0.686719 0.967556 0.028569 -0.193186
N19   N     N_1   0.313281 0.967555 0.971431 -0.193186
N20   N     N_1   0.186719 0.467567 0.028563 -0.193222
N21   N     N_1   0.813281 0.467567 0.971437 -0.193222
N22   N     N_1   0.942681 0.684965 0.079331 -0.196746
N23   N     N_1   0.057319 0.684965 0.920669 -0.196746
N24   N     N_1   0.016656 0.187480 0.855571 -0.188982
N25   N     N_1   0.983344 0.187480 0.144429 -0.188982
N26   N     N_1   0.517862 0.687480 0.857052 -0.188933
N27   N     N_1   0.482138 0.687480 0.142948 -0.188933
N28   N     N_1   0.517914 0.812635 0.857081 -0.183563
O1    O     O_R   0.939010 0.034440 0.439030 -0.616350
O2    O     O_R   0.439000 0.999980 0.991570 -0.607248
O3    O     O_R   0.061000 0.499980 0.008430 -0.607262
O4    O     O_R   0.939000 0.499980 0.991570 -0.607262
O5    O     O_R   0.500000 0.061040 0.052440 -0.612296
O6    O     O_R   0.500000 0.061040 0.947560 -0.612296
O7    O     O_R   0.000000 0.561040 0.052440 -0.612295
O8    O     O_R   0.000000 0.561040 0.947560 -0.612295
O9    O     O_R   0.939030 0.965580 0.439000 -0.613720
O10   O     O_R   0.060970 0.965580 0.561000 -0.613720
O11   O     O_R   0.439030 0.465580 0.439000 -0.613717
O12   O     O_R   0.060990 0.034440 0.560970 -0.616350
O13   O     O_R   0.560970 0.465580 0.561000 -0.613717
O14   O     O_R   0.000010 0.034440 0.593030 -0.618773
O15   O     O_R   0.999990 0.034440 0.406970 -0.618773
O16   O     O_R   0.500010 0.534440 0.593030 -0.618781
O17   O     O_R   0.499990 0.534440 0.406970 -0.618781
O18   O     O_R   0.000020 0.965580 0.593000 -0.621228
O19   O     O_R   0.999980 0.965580 0.407000 -0.621228
O20   O     O_R   0.500020 0.465580 0.593000 -0.621227
O21   O     O_R   0.499980 0.465580 0.407000 -0.621226
O22   O     O_R   0.034440 0.939060 0.034360 -0.618968
O23   O     O_R   0.439010 0.534440 0.439030 -0.616356
O24   O     O_R   0.965560 0.939060 0.965640 -0.618967
O25   O     O_R   0.534440 0.439060 0.034360 -0.618968
O26   O     O_R   0.465560 0.439060 0.965640 -0.618967
O27   O     O_R   0.034440 0.000050 0.941370 -0.640163
O28   O     O_R   0.965560 0.000050 0.058630 -0.640163
O29   O     O_R   0.534440 0.500050 0.941370 -0.640158
O30   O     O_R   0.465560 0.500050 0.058630 -0.640157
O31   O     O_R   0.965570 0.000070 0.872530 -0.622059
O32   O     O_R   0.034430 0.000070 0.127470 -0.622059
O33   O     O_R   0.465570 0.500070 0.872530 -0.622065
O34   O     O_R   0.560990 0.534440 0.560970 -0.616355
O35   O     O_R   0.534430 0.500070 0.127470 -0.622065
O36   O     O_R   0.034450 0.061050 0.034440 -0.616211
O37   O     O_R   0.965550 0.061050 0.965560 -0.616211
O38   O     O_R   0.534450 0.561050 0.034440 -0.616205
O39   O     O_R   0.465550 0.561050 0.965560 -0.616205
O40   O     O_R   0.500030 0.939050 0.052570 -0.610425
O41   O     O_R   0.499970 0.939050 0.947430 -0.610425
O42   O     O_R   0.000030 0.439050 0.052570 -0.610415
O43   O     O_R   0.999970 0.439050 0.947430 -0.610415
O44   O     O_R   0.561000 0.000050 0.113470 -0.618038
O45   O     O_R   0.439000 0.000050 0.886530 -0.618038
O46   O     O_R   0.061000 0.500050 0.113470 -0.618021
O47   O     O_R   0.939000 0.500050 0.886530 -0.618021
O48   O     O_R   0.561000 0.999980 0.008430 -0.607247
Zn1   Zn    Zn3+2 0.000000 0.045990 0.500000 0.994423
Zn2   Zn    Zn3+2 0.499980 0.000060 0.929880 0.994068
Zn3   Zn    Zn3+2 0.000020 0.500060 0.070120 0.994087
Zn4   Zn    Zn3+2 0.999980 0.500060 0.929880 0.994087
Zn5   Zn    Zn3+2 0.500000 0.545990 0.500000 0.994385
Zn6   Zn    Zn3+2 0.000000 0.954030 0.500000 0.979773
Zn7   Zn    Zn3+2 0.500000 0.454030 0.500000 0.979772
Zn8   Zn    Zn3+2 0.045990 0.000050 0.045940 0.947299
Zn9   Zn    Zn3+2 0.954010 0.000050 0.954060 0.947299
Zn10  Zn    Zn3+2 0.545990 0.500050 0.045940 0.947304
Zn11  Zn    Zn3+2 0.454010 0.500050 0.954060 0.947305
Zn12  Zn    Zn3+2 0.500020 0.000060 0.070120 0.994068

loop_
_geom_bond_atom_site_label_1
_geom_bond_atom_site_label_2
_ccdc_geom_bond_type
C21   C26   S    
C182  O38   A    
C173  C188  S    
C142  C146  A    
C41   C121  S    
C133  C151  S    
C147  C214  A    
C114  C115  S    
C48   H60   S    
C159  O13   A    
C24   C140  S    
C1    O9    A    
C12   C23   S    
C13   C139  S    
C175  O25   A    
C53   H78   S    
C65   H97   S    
C4    C7    A    
C194  C197  A    
C106  C107  S    
C121  N16   T    
C29   C33   S    
C88   N25   T    
C178  O33   A    
O24   Zn9   S    
C15   C17   T    
C29   H83   S    
C191  C196  A    
C107  H143  S    
C105  H147  S    
C73   H124  S    
C184  O42   A    
C165  O14   A    
C77   H131  S    
C95   N4    T    
C176  O27   A    
C80   H140  S    
C184  O43   A    
C141  C145  A    
C20   C184  S    
C195  C198  A    
C129  H36   S    
C72   H112  S    
C31   C181  S    
C168  O21   A    
C189  C216  S    
C115  H12   S    
C6    C224  A    
C10   C21   S    
C25   C29   S    
C136  H50   S    
C27   C31   S    
C51   C52   S    
C2    C138  S    
O42   Zn3   S    
C28   C32   S    
O31   Zn9   S    
C127  H40   S    
C112  O12   A    
C113  H127  S    
C110  H3    S    
C23   C37   S    
C33   C203  S    
C99   N8    T    
C50   H70   S    
C177  O28   A    
C43   C44   S    
C81   H139  S    
C24   C151  A    
C109  H6    S    
C55   H74   S    
O29   Zn10  S    
C116  H23   S    
C62   H90   S    
C4    C219  A    
C128  H37   S    
C10   C202  S    
O5    Zn12  S    
C123  H32   S    
C60   H95   S    
C46   C90   A    
C22   C27   S    
C14   C206  S    
C35   C152  S    
C97   C204  S    
C89   N26   T    
C190  C217  S    
C54   H76   S    
C40   C181  S    
C69   H103  S    
C46   C153  S    
C140  N21   T    
C187  O46   A    
O38   Zn10  S    
C134  H53   S    
C72   H113  S    
C80   H141  S    
C96   C202  S    
C22   C36   S    
C57   C154  S    
C33   C38   S    
C133  H55   S    
C174  C213  S    
C12   C205  S    
C130  C131  S    
C110  H4    S    
C190  O8    A    
C201  C208  A    
C166  O15   A    
C11   C204  S    
C66   H110  S    
C35   C214  A    
C45   H13   S    
C37   C111  S    
C100  N9    T    
C31   C36   S    
C191  C201  A    
C157  C162  T    
C115  H10   S    
C5    C89   S    
C74   H123  S    
O40   Zn12  S    
C36   C108  S    
C33   C104  S    
C192  C205  S    
C49   H58   S    
C136  H49   S    
C52   H65   S    
C90   H105  S    
C137  N18   T    
C83   N1    T    
C77   H130  S    
C117  H22   S    
C113  C142  A    
C129  H33   S    
C47   H64   S    
O21   Zn7   S    
C146  C160  S    
C116  H25   S    
C26   H1    S    
C62   H88   S    
C70   H118  S    
C30   C100  S    
C130  H48   S    
C45   H138  S    
C76   H133  S    
O6    Zn2   S    
C132  H41   S    
C61   H92   S    
C47   C48   S    
C3    C220  A    
C130  C150  S    
C88   C224  S    
C87   N24   T    
C145  C150  A    
C65   H96   S    
C114  H14   S    
C4    C91   S    
C186  O45   A    
C66   C67   S    
C111  H17   S    
C207  C211  S    
O35   Zn10  S    
C22   C177  S    
C199  C207  A    
C118  H20   S    
C92   N28   T    
C8    C19   T    
C170  C202  S    
C30   C34   S    
C34   C39   S    
C75   H120  S    
C44   H24   S    
C76   C201  S    
C67   H108  S    
C23   C28   S    
O13   Zn7   S    
C186  O2    A    
C25   C38   S    
C180  O37   A    
C131  H44   S    
C212  C215  T    
C193  C196  A    
C73   C198  S    
C168  O17   A    
C32   C37   S    
C56   H86   S    
C158  C163  T    
C106  H146  S    
C188  O47   A    
O46   Zn3   S    
C55   H75   S    
C156  C161  T    
C26   C30   S    
C136  H51   S    
C28   H72   S    
C52   H67   S    
C59   H81   S    
C119  N14   T    
C8    C222  S    
C108  H8    S    
C54   C55   S    
C198  C207  A    
C177  O32   A    
C78   H128  S    
C165  O18   A    
C12   C50   S    
C82   H135  S    
O16   Zn5   S    
C57   C101  A    
C79   C124  A    
O18   Zn6   S    
C98   N7    T    
C93   C219  S    
O39   Zn11  S    
O12   Zn1   S    
C71   C72   S    
C117  C118  S    
C127  C149  S    
C219  C222  A    
C130  H47   S    
C39   C119  S    
C35   C79   A    
O30   Zn11  S    
C56   C58   S    
C37   C41   S    
C11   C40   S    
O22   Zn8   S    
C63   C64   S    
C64   H99   S    
C14   C53   S    
C200  C208  A    
C159  C164  S    
C185  O44   A    
C144  C157  S    
C220  C223  A    
C118  H18   S    
C195  C197  A    
C183  O40   A    
C122  N17   T    
C97   N6    T    
C137  C214  S    
C73   C74   S    
C11   C47   S    
C63   H102  S    
C68   C155  S    
C115  H11   S    
C69   H106  S    
C77   C78   S    
C95   C221  S    
C210  C217  T    
C160  C164  T    
C83   C191  S    
C13   C150  A    
C221  C224  A    
O10   Zn6   S    
C85   C194  S    
C123  C125  S    
C172  C187  S    
C32   C192  S    
C126  H28   S    
C189  O6    A    
C50   H71   S    
O47   Zn4   S    
C30   C170  S    
O2    Zn12  S    
C197  C210  S    
O25   Zn10  S    
C182  O39   A    
C48   H62   S    
O45   Zn2   S    
C55   H73   S    
O19   Zn6   S    
C66   C142  S    
C124  C143  A    
C70   C71   S    
C128  H38   S    
C76   H132  S    
C123  H31   S    
C68   C113  A    
C152  C169  T    
C3    C6    A    
C10   C43   S    
C1    C161  S    
C128  C129  S    
C28   C205  S    
C78   H126  S    
C54   H77   S    
C166  O19   A    
C203  C206  S    
O14   Zn1   S    
O8    Zn4   S    
C31   C102  S    
C175  O26   A    
C53   H79   S    
C65   H98   S    
C5    C7    A    
C148  O23   A    
O9    Zn6   S    
C58   C59   S    
C53   C54   S    
C85   N22   T    
C49   H59   S    
C133  H54   S    
C60   C61   S    
C79   H94   S    
O48   Zn2   S    
C84   N12   T    
C12   C41   S    
C110  H5    S    
C27   H61   S    
C107  H144  S    
C9    C20   T    
C1    O1    A    
C5    C218  A    
C73   H125  S    
C94   C220  S    
C50   C51   S    
C63   C141  S    
C32   C103  S    
C139  N20   T    
C92   C218  S    
C196  C209  S    
C7    C16   S    
C40   C120  S    
O34   Zn5   S    
C72   H111  S    
C101  H116  S    
C125  C126  S    
C131  C132  S    
C126  H27   S    
C44   C45   S    
C165  C170  S    
O15   Zn1   S    
C188  O4    A    
C171  C186  S    
C34   C105  S    
C189  O5    A    
O37   Zn9   S    
C111  H16   S    
C52   H66   S    
C187  O3    A    
C25   C179  S    
C21   C34   S    
C148  O11   A    
C117  H21   S    
C193  C200  A    
C103  N11   T    
C105  C106  S    
C126  H26   S    
C71   H114  S    
C64   C65   S    
C51   H68   S    
C47   H63   S    
C109  C110  S    
C145  C158  S    
C109  H7    S    
C174  O24   A    
C62   H89   S    
C127  H39   S    
C116  C117  S    
C111  C114  S    
C45   H2    S    
C14   C25   S    
C24   C68   A    
C132  H42   S    
C61   H91   S    
C13   C57   A    
C93   N2    T    
C10   C39   S    
C175  C215  S    
C114  H15   S    
C132  H43   S    
C69   H104  S    
C70   C199  S    
C90   C135  A    
O43   Zn4   S    
C134  H52   S    
C125  H30   S    
O41   Zn2   S    
C176  O31   A    
C78   H129  S    
C81   C82   S    
C2    C46   A    
C143  C147  A    
C167  C192  S    
O27   Zn8   S    
C86   N23   T    
C179  O35   A    
C75   H119  S    
C26   C202  S    
C38   C42   S    
C39   C170  S    
C104  N13   T    
C107  H142  S    
C67   H107  S    
C190  O7    A    
C18   C182  S    
O7    Zn3   S    
C80   C200  S    
C138  N19   T    
C185  O48   A    
C49   H57   S    
C66   H109  S    
C23   C178  S    
C58   H84   S    
C105  H148  S    
C6    C15   S    
C101  C141  A    
C43   H56   S    
C43   H46   S    
C179  O30   A    
O33   Zn11  S    
C98   C205  S    
C108  C109  S    
O1    Zn1   S    
C56   C124  S    
O20   Zn7   S    
C208  C212  S    
C14   C42   S    
C155  C173  T    
C2    C149  A    
C42   C203  S    
C61   C62   S    
C166  C181  S    
O32   Zn8   S    
C58   H85   S    
C218  C222  A    
C209  C216  T    
C74   C75   S    
C75   H121  S    
C99   C206  S    
C3    C87   S    
C27   C204  S    
C36   C40   S    
C76   C77   S    
C129  H34   S    
C19   C183  S    
C82   H136  S    
C134  C136  S    
C174  O22   A    
C102  N10   T    
C70   H117  S    
O44   Zn12  S    
C29   C206  S    
C146  C151  A    
C159  O34   A    
C67   C69   S    
C144  C149  A    
O36   Zn8   S    
C86   C195  S    
C120  N15   T    
C38   C116  S    
C9    C223  S    
O4    Zn3   S    
C194  C199  A    
C131  H45   S    
C84   C193  S    
C21   C176  S    
C153  C171  T    
C180  O36   A    
O23   Zn5   S    
C154  C172  T    
O3    Zn4   S    
C125  H29   S    
C60   C135  S    
O26   Zn11  S    
C96   N5    T    
C94   N3    T    
C64   H100  S    
C17   C180  S    
C135  C144  A    
C211  C213  T    
C123  C147  S    
C181  C204  S    
O11   Zn7   S    
C118  H19   S    
C42   C122  S    
C91   N27   T    
C59   H80   S    
C108  H9    S    
C48   C49   S    
C41   C192  S    
C167  O20   A    
C148  C163  S    
C63   H101  S    
C56   H87   S    
C80   C81   S    
C167  O16   A    
C112  C162  S    
C11   C22   S    
C168  C203  S    
O17   Zn5   S    
C183  O41   A    
C169  C185  S    
C221  C223  A    
C112  O10   A    
C44   H35   S    
C74   H122  S    
C143  C156  S    
C133  C134  S    
C178  O29   A    
C71   H115  S    
C81   H137  S    
C51   H69   S    
C106  H145  S    
C16   C18   T    
C82   H134  S    
O28   Zn9   S    
C59   H82   S    
C127  C128  S    
C60   H93   S    
