data_mof_unit_57944.cif
_audit_creation_date              2013-03-05T15:48:19-0500
_audit_creation_method            fapswitch 2.2
_symmetry_space_group_name_H-M    P1
_symmetry_Int_Tables_number       1
_space_group_crystal_system       triclinic
_cell_length_a                    21.04786
_cell_length_b                    7.233712
_cell_length_c                    18.3208
_cell_angle_alpha                 90.211268
_cell_angle_beta                  93.511083
_cell_angle_gamma                 90.118291
_cell_volume                      2784.15589146

loop_
_atom_site_label
_atom_site_type_symbol
_atom_site_description
_atom_site_fract_x
_atom_site_fract_y
_atom_site_fract_z
_atom_type_partial_charge
O1    O     O_R   0.448880 0.506250 0.415280 -0.575561
O2    O     O_R   0.551120 0.006250 0.584720 -0.576368
O3    O     O_R   0.434830 0.174000 0.557310 -0.566823
O4    O     O_R   0.565170 0.674000 0.442690 -0.567569
C1    C     C_R   0.417366 0.344619 0.580171 0.924101
C2    C     C_R   0.582785 0.844473 0.420022 0.924187
O5    O     O_R   0.441680 0.176440 0.414130 -0.579377
O6    O     O_R   0.558320 0.676440 0.585870 -0.579662
O7    O     O_R   0.558020 0.007570 0.440520 -0.558955
O8    O     O_R   0.441980 0.507570 0.559480 -0.559569
C3    C     C_R   0.427517 0.344750 0.388569 0.906879
C4    C     C_R   0.572350 0.845674 0.611514 0.906010
O9    O     O_3   0.538160 0.339670 0.508820 -0.274286
O10   O     O_3   0.461840 0.839670 0.491180 -0.273713
V1    V     V_3+5 0.492920 0.064260 0.498360 1.157686
V2    V     V_3+5 0.507080 0.564260 0.501640 1.156621
C5    C     C_R   0.883102 0.841033 0.689174 -0.245156
C6    C     C_R   0.117252 0.390222 0.313021 -0.244348
H1    H     H_    0.907995 0.811304 0.640644 0.118885
H2    H     H_    0.092563 0.386328 0.363020 0.121124
C7    C     C_R   0.890536 0.930647 0.817034 -0.173290
C8    C     C_R   0.110338 0.437498 0.182124 -0.171676
C9    C     C_R   0.582218 0.881536 0.745090 -0.216559
C10   C     C_R   0.417573 0.355804 0.254419 -0.216422
C11   C     C_R   0.616245 0.879478 0.812411 -0.160738
C12   C     C_R   0.383254 0.340523 0.187514 -0.160287
C13   C     C_R   0.682588 0.860357 0.817369 0.334484
C14   C     C_R   0.316695 0.327937 0.183366 0.332964
C15   C     C_R   0.716872 0.863109 0.752367 -0.068184
C16   C     C_R   0.282753 0.352515 0.247949 -0.066153
C17   C     C_R   0.680887 0.846512 0.683755 0.048768
C18   C     C_R   0.318758 0.348921 0.316826 0.049194
C19   C     C_R   0.785058 0.878359 0.752705 0.098928
C20   C     C_R   0.214927 0.378713 0.247130 0.098881
C21   C     C_R   0.815871 0.839511 0.687273 0.083668
C22   C     C_R   0.183956 0.366201 0.313941 0.083178
C23   C     C_R   0.779415 0.800909 0.620981 0.125521
C24   C     C_R   0.219844 0.332617 0.380786 0.126155
C25   C     C_R   0.712792 0.815727 0.619879 -0.214451
C26   C     C_R   0.286640 0.336607 0.381462 -0.213234
C27   C     C_R   0.823671 0.936705 0.815330 -0.159557
C28   C     C_R   0.177006 0.424413 0.182600 -0.151090
C29   C     C_R   0.920398 0.880036 0.753234 0.160716
C30   C     C_R   0.080265 0.422553 0.248303 0.152750
C31   C     C_R   0.613101 0.856959 0.680569 -0.142800
C32   C     C_R   0.386649 0.351692 0.319558 -0.142521
H3    H     H_    0.802887 0.987521 0.863842 0.155059
H4    H     H_    0.198138 0.453993 0.131815 0.152935
H5    H     H_    0.530794 0.892255 0.743576 0.139835
H6    H     H_    0.469110 0.359305 0.255499 0.139411
H7    H     H_    0.590096 0.881818 0.861508 0.174928
H8    H     H_    0.409211 0.326391 0.138562 0.174815
H9    H     H_    0.684832 0.798761 0.568965 0.096421
H10   H     H_    0.314375 0.326431 0.432798 0.093959
C33   C     C_1   0.864211 0.938784 0.131676 -0.269575
C34   C     C_1   0.136113 0.439522 0.868724 -0.271925
C35   C     C_1   0.821113 0.924420 0.175101 0.082961
C36   C     C_1   0.179495 0.426401 0.825608 0.077646
C37   C     C_1   0.770347 0.905435 0.226951 0.006602
C38   C     C_1   0.230498 0.407769 0.774035 0.006004
C39   C     C_1   0.727633 0.889066 0.270764 0.009306
C40   C     C_1   0.273283 0.391106 0.730322 0.009280
C41   C     C_1   0.677043 0.870024 0.322840 0.068187
C42   C     C_1   0.323757 0.371329 0.678129 0.068695
C43   C     C_1   0.634460 0.855796 0.366944 -0.318220
C44   C     C_1   0.366083 0.356443 0.633723 -0.319532
O11   O     O_R   0.058070 0.289240 0.940580 -0.561989
O12   O     O_R   0.941930 0.789240 0.059420 -0.564030
O13   O     O_R   0.058330 0.616740 0.085880 -0.586090
O14   O     O_R   0.941670 0.116740 0.914120 -0.588240
C45   C     C_R   0.072046 0.448680 0.111742 0.922792
C46   C     C_R   0.928529 0.947666 0.887717 0.931067
O15   O     O_R   0.065180 0.619040 0.942700 -0.571088
O16   O     O_R   0.934820 0.119040 0.057300 -0.565707
O17   O     O_R   0.948870 0.787780 0.915270 -0.576165
O18   O     O_R   0.051130 0.287780 0.084730 -0.569443
C47   C     C_R   0.083327 0.450368 0.920356 0.933725
C48   C     C_R   0.916738 0.950352 0.079718 0.937719
O19   O     O_3   0.961870 0.453310 0.991210 -0.266744
O20   O     O_3   0.038130 0.953310 0.008790 -0.265184
V3    V     V_3+5 0.007070 0.728770 0.001630 1.182823
V4    V     V_3+5 0.992930 0.228770 0.998370 1.184331
C49   C     C_3   0.992222 0.870798 0.750950 -0.458245
C50   C     C_3   0.020295 0.063555 0.740031 -0.255708
C51   C     C_3   0.092236 0.054282 0.734601 -0.898931
H11   H     H_    0.115587 0.004832 0.786945 0.272952
H12   H     H_    0.104333 0.959751 0.689609 0.261107
H13   H     H_    0.110636 0.194080 0.722769 0.248600
H14   H     H_    0.998555 0.124777 0.688820 0.198119
H15   H     H_    0.009659 0.155271 0.786517 0.203166
H16   H     H_    0.014001 0.807242 0.801528 0.197594
H17   H     H_    0.005318 0.779532 0.705237 0.187201
C52   C     C_3   0.009025 0.447002 0.252753 -0.441924
C53   C     C_3   0.976418 0.262495 0.267858 -0.238341
C54   C     C_3   0.905208 0.288843 0.275478 -0.908567
H18   H     H_    0.896914 0.389508 0.319807 0.262196
H19   H     H_    0.881944 0.339480 0.223282 0.272496
H20   H     H_    0.883347 0.154839 0.289483 0.246900
H21   H     H_    0.983521 0.164304 0.222248 0.199994
H22   H     H_    0.997582 0.201186 0.319292 0.191055
H23   H     H_    0.000466 0.547076 0.297325 0.186628
H24   H     H_    0.986626 0.507425 0.201866 0.184579
C55   C     C_3   0.812632 0.746505 0.552031 -0.440406
C56   C     C_3   0.769408 0.691120 0.484858 -0.233308
C57   C     C_3   0.808509 0.625297 0.422245 -0.924878
H25   H     H_    0.839951 0.738160 0.404650 0.258996
H26   H     H_    0.838036 0.504199 0.439523 0.257656
H27   H     H_    0.776107 0.583260 0.374978 0.259875
H28   H     H_    0.736950 0.577246 0.499279 0.205614
H29   H     H_    0.740952 0.812588 0.465824 0.195594
H30   H     H_    0.842935 0.864146 0.536249 0.187253
H31   H     H_    0.843834 0.626148 0.565886 0.193442
C58   C     C_3   0.185857 0.294345 0.450635 -0.440525
C59   C     C_3   0.227619 0.224338 0.516386 -0.233806
C60   C     C_3   0.187088 0.166161 0.578747 -0.926432
H32   H     H_    0.159999 0.286286 0.598352 0.261396
H33   H     H_    0.153269 0.054925 0.560358 0.258514
H34   H     H_    0.218273 0.112414 0.624878 0.260250
H35   H     H_    0.256022 0.103273 0.500009 0.205423
H36   H     H_    0.260099 0.336831 0.536454 0.195662
H37   H     H_    0.161389 0.422630 0.467112 0.186005
H38   H     H_    0.149289 0.185931 0.437653 0.193762
N1    N     N_R   0.712054 0.810082 0.887242 0.219356
O21   O     O_R   0.749439 0.666998 0.892504 -0.393830
O22   O     O_R   0.693435 0.886233 0.946735 -0.393264
N2    N     N_R   0.286336 0.261660 0.115920 0.219292
O23   O     O_R   0.246762 0.123216 0.116525 -0.395275
O24   O     O_R   0.305883 0.317582 0.053668 -0.394152

loop_
_geom_bond_atom_site_label_1
_geom_bond_atom_site_label_2
_geom_bond_distance
_ccdc_geom_bond_type
C24   C26   1.405459 A    
C41   C43   1.247303 T    
C52   C53   1.533343 S    
C9    C31   1.394452 A    
C13   C15   1.429927 A    
C29   C49   1.516481 S    
C54   H18   1.110779 S    
O11   C47   1.342812 A    
O2    C4    1.330170 A    
C2    O7    1.352001 A    
C5    C29   1.398942 A    
C59   C60   1.526959 S    
C54   H20   1.109789 S    
N1    O21   1.301748 A    
C25   H9    1.078465 S    
C51   H11   1.111157 S    
O5    C3    1.333831 A    
C49   H17   1.112752 S    
C57   H26   1.110853 S    
N2    O23   1.301776 A    
O12   V3    1.835475 S    
C55   H30   1.112098 S    
C21   C23   1.422787 A    
C10   C12   1.388054 A    
C6    C30   1.398693 A    
C56   H28   1.111960 S    
C9    H5    1.083946 S    
C36   C38   1.478930 S    
C60   H32   1.110864 S    
C15   C19   1.438807 A    
C38   C40   1.246969 T    
O13   C45   1.332188 A    
C40   C42   1.479014 S    
C30   C52   1.517329 S    
C19   C21   1.424802 A    
C7    C29   1.408231 A    
C2    C43   1.505009 S    
C8    C30   1.406079 A    
C58   H38   1.112521 S    
C17   C25   1.401782 A    
C20   C28   1.425632 A    
C60   H33   1.110814 S    
O1    C3    1.331582 A    
C16   C18   1.431970 A    
C20   C22   1.424663 A    
C59   H35   1.112000 S    
O5    V1    2.002995 S    
O6    V2    1.996572 S    
O12   C48   1.342089 A    
C50   H15   1.111485 S    
O16   V4    1.858946 S    
C46   O17   1.325011 A    
O15   V3    1.857702 S    
C56   C57   1.527458 S    
C14   N2    1.436203 S    
C51   H12   1.110929 S    
C10   H6    1.083947 S    
C57   H27   1.110114 S    
C37   C39   1.247101 T    
C16   C20   1.439679 A    
C7    C46   1.484306 S    
O13   V3    2.003027 S    
C50   C51   1.525133 S    
O4    C2    1.360640 A    
C52   H23   1.112435 S    
C23   C55   1.531343 S    
C33   C48   1.504841 S    
C13   N1    1.436235 S    
O17   V3    1.988934 S    
C34   C47   1.504630 S    
C55   H31   1.112342 S    
C42   C44   1.247249 T    
O4    V2    1.858916 S    
C11   H7    1.082979 S    
C12   H8    1.082973 S    
C49   C50   1.531832 S    
C53   H22   1.111565 S    
O6    C4    1.335604 A    
C60   H34   1.109871 S    
C39   C41   1.479131 S    
C27   H3    1.078099 S    
O1    V2    1.983828 S    
C28   H4    1.077526 S    
O2    V1    1.987366 S    
C7    C27   1.406565 A    
C26   H10   1.078965 S    
C33   C35   1.247085 T    
C17   C31   1.426551 A    
C35   C37   1.479071 S    
C50   H14   1.112249 S    
O18   V4    1.985338 S    
C8    C45   1.480710 S    
O3    V1    1.857668 S    
C58   C59   1.535187 S    
C51   H13   1.109008 S    
C24   C58   1.529668 S    
N2    O24   1.301492 A    
C18   C32   1.426871 A    
O20   V3    1.751098 S    
O3    C1    1.360418 A    
C52   H24   1.110178 S    
O19   V4    1.754497 S    
C54   H19   1.111021 S    
C4    C31   1.486263 S    
C11   C13   1.400919 A    
C49   H16   1.110013 S    
C57   H25   1.110972 S    
C12   C14   1.401082 A    
C19   C27   1.426835 A    
C22   C24   1.420927 A    
O7    V1    1.829078 S    
C10   C32   1.394298 A    
C1    O8    1.351427 A    
C23   C25   1.405490 A    
O8    V2    1.829560 S    
C1    C44   1.504819 S    
C56   H29   1.109618 S    
C8    C28   1.406111 A    
C53   H21   1.111961 S    
C14   C16   1.429848 A    
C5    H1    1.080455 S    
C34   C36   1.246945 T    
C6    H2    1.080904 S    
C18   C26   1.402074 A    
C53   C54   1.526051 S    
O14   V4    1.996614 S    
N1    O22   1.301480 A    
C45   O18   1.326783 A    
C9    C11   1.387942 A    
C58   H37   1.111959 S    
O11   V4    1.835986 S    
C15   C17   1.431824 A    
O16   C48   1.350352 A    
O9    V2    1.755008 S    
C55   C56   1.536367 S    
O15   C47   1.348910 A    
O10   V1    1.751606 S    
C3    C32   1.486067 S    
O14   C46   1.335717 A    
C5    C21   1.413391 A    
C6    C22   1.414121 A    
C59   H36   1.108793 S    
