data_mof_unit_65208.cif
_audit_creation_date              2012-12-10T18:02:28-0500
_audit_creation_method            fapswitch 2.2
_symmetry_space_group_name_H-M    P1
_symmetry_Int_Tables_number       1
_space_group_crystal_system       triclinic
_cell_length_a                    21.6287
_cell_length_b                    21.628296
_cell_length_c                    38.783812
_cell_angle_alpha                 90.0
_cell_angle_beta                  89.999976
_cell_angle_gamma                 90.019069
_cell_volume                      18142.7530965

loop_
_atom_site_label
_atom_site_type_symbol
_atom_type_description
_atom_site_fract_x
_atom_site_fract_y
_atom_site_fract_z
_atom_type_partial_charge
C1    C     C_R   0.499991 0.879904 0.000002 0.891742
C2    C     C_R   0.879904 0.499991 0.999997 0.891861
C3    C     C_R   0.500009 0.120095 0.000002 0.891742
C4    C     C_R   0.120096 0.500009 0.999997 0.891861
C5    C     C_R   0.999995 0.379911 0.500013 0.891784
C6    C     C_R   0.379900 0.999992 0.499997 0.891742
C7    C     C_R   0.000005 0.620089 0.500013 0.891783
C8    C     C_R   0.620100 0.000008 0.499997 0.891741
C9    C     C_R   0.499990 0.686591 0.000001 -0.050876
C10   C     C_R   0.686592 0.499990 0.999999 -0.050881
C11   C     C_R   0.500009 0.313409 0.000001 -0.050876
C12   C     C_R   0.313408 0.500009 0.999999 -0.050881
C13   C     C_R   0.000030 0.186610 0.500009 -0.050472
C14   C     C_R   0.186581 0.999993 0.500000 -0.050684
C15   C     C_R   0.999970 0.813390 0.500009 -0.050472
C16   C     C_R   0.813419 0.000007 0.500000 -0.050684
C17   C     C_R   0.499976 0.813890 0.000008 -0.059179
C18   C     C_R   0.813890 0.499975 0.999990 -0.059144
C19   C     C_R   0.500024 0.186110 0.000008 -0.059178
C20   C     C_R   0.186110 0.500025 0.999990 -0.059143
C21   C     C_R   0.999989 0.313909 0.500029 -0.059227
C22   C     C_R   0.313879 0.999978 0.499992 -0.059452
C23   C     C_R   0.000011 0.686091 0.500029 -0.059227
C24   C     C_R   0.686121 0.000022 0.499992 -0.059452
C25   C     C_R   0.379680 0.500003 1.000000 0.879298
C26   C     C_R   0.499997 0.620319 1.000000 0.879313
C27   C     C_R   0.620320 0.499997 1.000000 0.879298
C28   C     C_R   0.500003 0.379681 1.000000 0.879313
C29   C     C_R   0.879684 0.000002 0.500000 0.879333
C30   C     C_R   0.000032 0.120326 0.500002 0.879034
C31   C     C_R   0.120316 0.999998 0.500000 0.879333
C32   C     C_R   0.999968 0.879674 0.500002 0.879034
C33   C     C_R   0.500000 0.000000 0.932628 0.941917
C34   C     C_R   0.000000 0.500000 0.932634 0.942273
C35   C     C_R   0.500000 0.000000 0.067372 0.941684
C36   C     C_R   0.000000 0.500000 0.067373 0.941887
C37   C     C_R   1.000000 0.500000 0.432628 0.941433
C38   C     C_R   0.500000 0.000000 0.432627 0.941918
C39   C     C_R   1.000000 0.500000 0.567364 0.943940
C40   C     C_R   0.500000 0.000000 0.567372 0.941803
C41   C     C_R   0.540125 0.960212 0.876913 0.007118
C42   C     C_R   0.959791 0.460278 0.876942 0.007023
C43   C     C_R   0.459875 0.039788 0.876913 0.007118
C44   C     C_R   0.040210 0.539722 0.876943 0.007023
C45   C     C_R   0.459840 0.960221 0.123084 0.007213
C46   C     C_R   0.039784 0.459871 0.123087 0.007089
C47   C     C_R   0.540159 0.039779 0.123084 0.007214
C48   C     C_R   0.960216 0.540129 0.123087 0.007090
C49   C     C_R   0.040140 0.460228 0.376916 0.007216
C50   C     C_R   0.460218 0.959842 0.376912 0.007094
C51   C     C_R   0.959860 0.539772 0.376916 0.007216
C52   C     C_R   0.539782 0.040157 0.376912 0.007094
C53   C     C_R   0.040039 0.460127 0.623052 0.011623
C54   C     C_R   0.539760 0.959848 0.623085 0.007547
C55   C     C_R   0.959961 0.539874 0.623051 0.011622
C56   C     C_R   0.460240 0.040152 0.623085 0.007547
C57   C     C_R   0.540269 0.960339 0.840631 0.040164
C58   C     C_R   0.959703 0.460331 0.840659 0.040618
C59   C     C_R   0.459731 0.039661 0.840631 0.040163
C60   C     C_R   0.040297 0.539670 0.840659 0.040618
C61   C     C_R   0.459874 0.960163 0.159368 0.040193
C62   C     C_R   0.039657 0.459727 0.159370 0.040073
C63   C     C_R   0.540126 0.039836 0.159368 0.040194
C64   C     C_R   0.960343 0.540273 0.159370 0.040073
C65   C     C_R   0.040107 0.460171 0.340632 0.040193
C66   C     C_R   0.460344 0.959699 0.340630 0.040071
C67   C     C_R   0.959893 0.539829 0.340632 0.040193
C68   C     C_R   0.539655 0.040301 0.340630 0.040071
C69   C     C_R   0.040231 0.460288 0.659333 0.041945
C70   C     C_R   0.539817 0.959881 0.659369 0.040530
C71   C     C_R   0.959770 0.539714 0.659333 0.041945
C72   C     C_R   0.460183 0.040119 0.659369 0.040530
C73   C     C_R   0.500000 1.000000 0.822622 0.033243
C74   C     C_R   0.000000 0.500001 0.822636 0.033475
C75   C     C_R   0.500000 0.000000 0.177383 0.032893
C76   C     C_R   0.000000 0.500000 0.177378 0.033161
C77   C     C_R   1.000000 0.500000 0.322617 0.032885
C78   C     C_R   0.500000 0.000000 0.322622 0.033176
C79   C     C_R   0.000000 0.500001 0.677357 0.032457
C80   C     C_R   0.500000 1.000000 0.677384 0.033002
C81   C     C_R   0.500000 0.000000 0.894886 -0.081688
C82   C     C_R   0.000000 0.500000 0.894903 -0.081344
C83   C     C_R   0.500000 1.000000 0.105114 -0.081767
C84   C     C_R   0.000000 0.500000 0.105115 -0.081700
C85   C     C_R   1.000000 0.500000 0.394886 -0.081668
C86   C     C_R   0.500000 0.000000 0.394885 -0.081699
C87   C     C_R   1.000000 0.500000 0.605092 -0.079508
C88   C     C_R   0.500000 0.000000 0.605115 -0.081726
C89   C     C_R   0.500000 1.000000 0.715192 0.350363
C90   C     C_R   0.000000 0.500001 0.715173 0.350452
C91   C     C_R   0.500000 0.000000 0.284825 0.350578
C92   C     C_R   0.000000 0.500000 0.284809 0.350273
C93   C     C_R   0.000000 0.500000 0.215175 0.350569
C94   C     C_R   0.500000 1.000000 0.215191 0.350266
C95   C     C_R   0.000000 0.500001 0.784819 0.349764
C96   C     C_R   0.500000 0.000000 0.784825 0.350570
C97   C     C_R   0.542670 0.782509 0.020424 -0.225181
C98   C     C_R   0.782481 0.457292 0.020413 -0.224948
C99   C     C_R   0.457329 0.217491 0.020424 -0.225181
C100  C     C_R   0.217519 0.542708 0.020413 -0.224949
C101  C     C_R   0.457286 0.782480 0.979591 -0.224924
C102  C     C_R   0.217491 0.457338 0.979570 -0.225174
C103  C     C_R   0.542714 0.217520 0.979591 -0.224924
C104  C     C_R   0.782509 0.542662 0.979570 -0.225174
C105  C     C_R   0.042458 0.282545 0.520596 -0.225049
C106  C     C_R   0.282464 0.957136 0.520312 -0.224916
C107  C     C_R   0.957542 0.717455 0.520596 -0.225049
C108  C     C_R   0.717535 0.042864 0.520312 -0.224916
C109  C     C_R   0.957524 0.282501 0.479468 -0.225478
C110  C     C_R   0.717508 0.957172 0.479677 -0.224979
C111  C     C_R   0.042475 0.717499 0.479468 -0.225478
C112  C     C_R   0.282492 0.042828 0.479677 -0.224980
C113  C     C_R   0.542743 0.718368 0.020897 0.077771
C114  C     C_R   0.718339 0.457236 0.020895 0.077830
C115  C     C_R   0.457257 0.281632 0.020897 0.077771
C116  C     C_R   0.281661 0.542763 0.020896 0.077831
C117  C     C_R   0.457230 0.718338 0.979109 0.077800
C118  C     C_R   0.281631 0.457265 0.979097 0.077761
C119  C     C_R   0.542770 0.281662 0.979109 0.077800
C120  C     C_R   0.718369 0.542735 0.979097 0.077761
C121  C     C_R   0.042553 0.218401 0.521054 0.077769
C122  C     C_R   0.218322 0.957076 0.520791 0.077151
C123  C     C_R   0.957447 0.781599 0.521054 0.077770
C124  C     C_R   0.781677 0.042924 0.520791 0.077150
C125  C     C_R   0.957472 0.218361 0.478987 0.078227
C126  C     C_R   0.781649 0.957093 0.479208 0.077729
C127  C     C_R   0.042528 0.781639 0.478987 0.078226
C128  C     C_R   0.218351 0.042907 0.479208 0.077730
H1    H     H_    0.575254 0.808039 0.036199 0.147018
H2    H     H_    0.807989 0.424713 0.036192 0.147030
H3    H     H_    0.424745 0.191961 0.036199 0.147018
H4    H     H_    0.192010 0.575287 0.036192 0.147030
H5    H     H_    0.424702 0.807989 0.963816 0.147070
H6    H     H_    0.191961 0.424759 0.963791 0.147026
H7    H     H_    0.575298 0.192011 0.963816 0.147070
H8    H     H_    0.808039 0.575241 0.963791 0.147026
H9    H     H_    0.074842 0.308094 0.536495 0.149602
H10   H     H_    0.307968 0.924433 0.536013 0.147459
H11   H     H_    0.925158 0.691906 0.536495 0.149602
H12   H     H_    0.692032 0.075567 0.536013 0.147459
H13   H     H_    0.925107 0.308013 0.463589 0.147050
H14   H     H_    0.691983 0.924467 0.463977 0.147175
H15   H     H_    0.074893 0.691987 0.463589 0.147050
H16   H     H_    0.308017 0.075533 0.463977 0.147176
N1    N     N_R   0.501028 0.054061 0.767140 -0.157067
N2    N     N_R   0.000077 0.554065 0.767124 -0.156461
N3    N     N_R   0.498972 0.945939 0.767140 -0.157067
N4    N     N_R   0.999923 0.445936 0.767124 -0.156461
N5    N     N_R   0.554059 0.999000 0.232881 -0.156921
N6    N     N_R   0.945940 0.498982 0.232861 -0.157184
N7    N     N_R   0.445941 0.001000 0.232882 -0.156920
N8    N     N_R   0.054060 0.501018 0.232861 -0.157184
N9    N     N_R   0.945941 0.498975 0.267119 -0.156924
N10   N     N_R   0.554060 0.999007 0.267139 -0.157185
N11   N     N_R   0.054059 0.501025 0.267119 -0.156924
N12   N     N_R   0.445940 0.000993 0.267139 -0.157185
N13   N     N_R   0.000108 0.554065 0.732867 -0.156290
N14   N     N_R   0.501035 0.054060 0.732882 -0.156744
N15   N     N_R   0.999893 0.445936 0.732867 -0.156289
N16   N     N_R   0.498965 0.945940 0.732882 -0.156744
O1    O     O_R   0.448370 0.908480 0.999910 -0.625133
O2    O     O_R   0.908480 0.551630 0.999910 -0.625097
O3    O     O_R   0.551630 0.091520 0.999910 -0.625133
O4    O     O_R   0.091520 0.448370 0.999910 -0.625097
O5    O     O_R   0.551630 0.908480 0.000090 -0.625085
O6    O     O_R   0.091520 0.551630 0.000090 -0.625117
O7    O     O_R   0.448370 0.091520 0.000090 -0.625085
O8    O     O_R   0.908480 0.448370 0.000090 -0.625117
O9    O     O_R   0.948370 0.408480 0.499910 -0.630419
O10   O     O_R   0.408480 0.051630 0.499910 -0.625292
O11   O     O_R   0.051630 0.591520 0.499910 -0.630419
O12   O     O_R   0.591520 0.948370 0.499910 -0.625292
O13   O     O_R   0.051630 0.408480 0.500090 -0.619602
O14   O     O_R   0.591520 0.051630 0.500090 -0.624979
O15   O     O_R   0.948370 0.591520 0.500090 -0.619602
O16   O     O_R   0.408480 0.948370 0.500090 -0.624979
O17   O     O_R   0.448370 0.000090 0.948970 -0.611262
O18   O     O_R   0.000090 0.551630 0.948970 -0.611310
O19   O     O_R   0.551630 0.999910 0.948970 -0.611262
O20   O     O_R   0.999910 0.448370 0.948970 -0.611310
O21   O     O_R   0.551630 0.000090 0.051030 -0.611096
O22   O     O_R   0.999910 0.551630 0.051030 -0.611287
O23   O     O_R   0.448370 0.999910 0.051030 -0.611097
O24   O     O_R   0.000090 0.448370 0.051030 -0.611287
O25   O     O_R   0.948370 0.500090 0.448970 -0.611167
O26   O     O_R   0.500090 0.051630 0.448970 -0.611276
O27   O     O_R   0.051630 0.499910 0.448970 -0.611167
O28   O     O_R   0.499910 0.948370 0.448970 -0.611275
O29   O     O_R   0.051630 0.500090 0.551030 -0.610891
O30   O     O_R   0.499910 0.051630 0.551030 -0.611007
O31   O     O_R   0.948370 0.499910 0.551030 -0.610891
O32   O     O_R   0.500090 0.948370 0.551030 -0.611006
O33   O     O_R   0.408360 0.500090 0.028640 -0.605961
O34   O     O_R   0.500090 0.591640 0.028640 -0.606014
O35   O     O_R   0.591640 0.499910 0.028640 -0.605961
O36   O     O_R   0.499910 0.408360 0.028640 -0.606014
O37   O     O_R   0.591640 0.500090 0.971360 -0.605988
O38   O     O_R   0.499910 0.591640 0.971360 -0.605944
O39   O     O_R   0.408360 0.499910 0.971360 -0.605988
O40   O     O_R   0.500090 0.408360 0.971360 -0.605944
O41   O     O_R   0.908360 0.000090 0.528640 -0.606105
O42   O     O_R   0.000090 0.091640 0.528640 -0.605546
O43   O     O_R   0.091640 0.999910 0.528640 -0.606105
O44   O     O_R   0.999910 0.908360 0.528640 -0.605546
O45   O     O_R   0.091640 0.000090 0.471360 -0.606034
O46   O     O_R   0.999910 0.091640 0.471360 -0.606020
O47   O     O_R   0.908360 0.999910 0.471360 -0.606034
O48   O     O_R   0.000090 0.908360 0.471360 -0.606020
Zn1   Zn    Zn3+2 0.431020 0.000000 0.000000 0.963279
Zn2   Zn    Zn3+2 0.000000 0.568980 0.000000 0.963278
Zn3   Zn    Zn3+2 0.568980 0.000000 0.000000 0.963279
Zn4   Zn    Zn3+2 0.000000 0.431020 0.000000 0.963278
Zn5   Zn    Zn3+2 0.931020 0.500000 0.500000 0.964200
Zn6   Zn    Zn3+2 0.500000 0.068980 0.500000 0.963406
Zn7   Zn    Zn3+2 0.068980 0.500000 0.500000 0.964200
Zn8   Zn    Zn3+2 0.500000 0.931020 0.500000 0.963406
Zn9   Zn    Zn3+2 0.500000 0.500000 0.038290 0.996303
Zn10  Zn    Zn3+2 0.500000 0.500000 0.961710 0.996410
Zn11  Zn    Zn3+2 0.000000 0.000000 0.538290 0.996935
Zn12  Zn    Zn3+2 1.000000 1.000000 0.461710 0.996275
N17   N     N_3   0.579525 0.918865 0.895794 -0.444408
H17   H     H_    0.568905 0.873419 0.888810 0.180552
H18   H     H_    0.625510 0.928013 0.889287 0.189532
N18   N     N_3   0.917948 0.421410 0.895846 -0.444852
H19   H     H_    0.872608 0.432882 0.889096 0.179896
H20   H     H_    0.926202 0.375353 0.889138 0.190240
N19   N     N_3   0.420475 0.081135 0.895794 -0.444408
H21   H     H_    0.431095 0.126581 0.888810 0.180552
H22   H     H_    0.374490 0.071987 0.889287 0.189532
N20   N     N_3   0.082052 0.578589 0.895847 -0.444853
H23   H     H_    0.127393 0.567117 0.889096 0.179897
H24   H     H_    0.073799 0.624647 0.889138 0.190241
N21   N     N_3   0.420538 0.918767 0.104194 -0.444388
H25   H     H_    0.431529 0.873315 0.110964 0.179786
H26   H     H_    0.374569 0.927516 0.110895 0.190036
N22   N     N_3   0.081127 0.420467 0.104207 -0.444413
H27   H     H_    0.126574 0.431084 0.111191 0.180540
H28   H     H_    0.071976 0.374482 0.110713 0.189513
N23   N     N_3   0.579462 0.081233 0.104194 -0.444388
H29   H     H_    0.568471 0.126685 0.110964 0.179786
H30   H     H_    0.625431 0.072484 0.110895 0.190036
N24   N     N_3   0.918872 0.579533 0.104207 -0.444413
H31   H     H_    0.873426 0.568916 0.111191 0.180540
H32   H     H_    0.928024 0.625518 0.110713 0.189513
N25   N     N_3   0.079422 0.418780 0.395805 -0.444464
H33   H     H_    0.068408 0.373326 0.389035 0.179760
H34   H     H_    0.125395 0.427536 0.389105 0.190061
N26   N     N_3   0.418876 0.920409 0.395793 -0.444377
H35   H     H_    0.373430 0.930993 0.388809 0.180563
H36   H     H_    0.428030 0.874431 0.389286 0.189534
N27   N     N_3   0.920578 0.581220 0.395805 -0.444464
H37   H     H_    0.931592 0.626674 0.389035 0.179759
H38   H     H_    0.874605 0.572464 0.389105 0.190062
N28   N     N_3   0.581124 0.079591 0.395793 -0.444377
H39   H     H_    0.626570 0.069007 0.388809 0.180563
H40   H     H_    0.571970 0.125569 0.389286 0.189535
N29   N     N_3   0.079302 0.418664 0.604154 -0.452109
H41   H     H_    0.125323 0.427660 0.610644 0.188737
H42   H     H_    0.068546 0.373239 0.611119 0.175955
N30   N     N_3   0.581196 0.920553 0.604195 -0.444505
H43   H     H_    0.626652 0.931554 0.610966 0.179569
H44   H     H_    0.572426 0.874582 0.610896 0.189812
N31   N     N_3   0.920698 0.581337 0.604153 -0.452109
H45   H     H_    0.874677 0.572340 0.610644 0.188737
H46   H     H_    0.931454 0.626761 0.611119 0.175955
N32   N     N_3   0.418804 0.079446 0.604195 -0.444505
H47   H     H_    0.373348 0.068446 0.610966 0.179569
H48   H     H_    0.427574 0.125418 0.610896 0.189812
N33   N     N_3   0.582101 0.921387 0.821803 -0.445499
H49   H     H_    0.627400 0.932490 0.828847 0.183996
H50   H     H_    0.573423 0.875313 0.828318 0.190686
N34   N     N_3   0.917606 0.421605 0.821852 -0.446413
H51   H     H_    0.925866 0.375511 0.828485 0.190273
H52   H     H_    0.872361 0.433108 0.828782 0.184717
N35   N     N_3   0.417899 0.078613 0.821803 -0.445499
H53   H     H_    0.372600 0.067510 0.828847 0.183996
H54   H     H_    0.426577 0.124687 0.828318 0.190687
N36   N     N_3   0.082394 0.578397 0.821852 -0.446414
H55   H     H_    0.074134 0.624490 0.828486 0.190273
H56   H     H_    0.127639 0.566893 0.828782 0.184717
N37   N     N_3   0.420648 0.918550 0.178188 -0.445286
H57   H     H_    0.374659 0.927347 0.171548 0.190115
H58   H     H_    0.431616 0.873162 0.171277 0.184548
N38   N     N_3   0.078605 0.417891 0.178197 -0.445457
H59   H     H_    0.067498 0.372592 0.171153 0.183985
H60   H     H_    0.124679 0.426565 0.171682 0.190702
N39   N     N_3   0.579352 0.081450 0.178188 -0.445286
H61   H     H_    0.625341 0.072653 0.171548 0.190115
H62   H     H_    0.568384 0.126838 0.171277 0.184547
N40   N     N_3   0.921395 0.582109 0.178197 -0.445458
H63   H     H_    0.932502 0.627408 0.171153 0.183985
H64   H     H_    0.875321 0.573435 0.171682 0.190702
N41   N     N_3   0.079314 0.418566 0.321811 -0.445289
H65   H     H_    0.125308 0.427373 0.328451 0.190126
H66   H     H_    0.068326 0.373176 0.328722 0.184544
N42   N     N_3   0.421397 0.917837 0.321802 -0.445459
H67   H     H_    0.432505 0.872546 0.328846 0.183995
H68   H     H_    0.375323 0.926479 0.328317 0.190706
N43   N     N_3   0.920686 0.581434 0.321811 -0.445289
H69   H     H_    0.874692 0.572627 0.328451 0.190126
H70   H     H_    0.931674 0.626824 0.328722 0.184544
N44   N     N_3   0.578603 0.082163 0.321802 -0.445460
H71   H     H_    0.567495 0.127454 0.328846 0.183995
H72   H     H_    0.624677 0.073521 0.328317 0.190706
N45   N     N_3   0.082088 0.421323 0.678134 -0.446745
H73   H     H_    0.073392 0.375251 0.671621 0.190424
H74   H     H_    0.127377 0.432420 0.671067 0.183792
N46   N     N_3   0.581410 0.920662 0.678190 -0.445425
H75   H     H_    0.572592 0.874670 0.671549 0.189889
H76   H     H_    0.626803 0.931639 0.671279 0.184351
N47   N     N_3   0.917913 0.578679 0.678134 -0.446744
H77   H     H_    0.926610 0.624751 0.671621 0.190424
H78   H     H_    0.872624 0.567583 0.671066 0.183792
N48   N     N_3   0.418590 0.079338 0.678190 -0.445425
H79   H     H_    0.427408 0.125330 0.671549 0.189889
H80   H     H_    0.373197 0.068361 0.671279 0.184351
N49   N     N_3   0.586256 0.685279 0.042044 -0.429474
H81   H     H_    0.612027 0.715912 0.057171 0.180994
H82   H     H_    0.617583 0.663317 0.025601 0.162993
N50   N     N_3   0.685222 0.413748 0.042058 -0.429349
H83   H     H_    0.715838 0.387976 0.057184 0.181093
H84   H     H_    0.663216 0.382417 0.025628 0.162907
N51   N     N_3   0.413743 0.314721 0.042044 -0.429474
H85   H     H_    0.387973 0.284088 0.057171 0.180994
H86   H     H_    0.382417 0.336683 0.025602 0.162993
N52   N     N_3   0.314778 0.586252 0.042058 -0.429349
H87   H     H_    0.284162 0.612024 0.057184 0.181093
H88   H     H_    0.336784 0.617583 0.025628 0.162907
N53   N     N_3   0.413735 0.685219 0.957951 -0.429305
H89   H     H_    0.387957 0.715836 0.942828 0.181160
H90   H     H_    0.382411 0.663213 0.974385 0.162897
N54   N     N_3   0.314719 0.413758 0.957945 -0.429461
H91   H     H_    0.284086 0.387994 0.942815 0.180997
H92   H     H_    0.336679 0.382423 0.974384 0.162999
N55   N     N_3   0.586265 0.314781 0.957951 -0.429304
H93   H     H_    0.612042 0.284164 0.942828 0.181160
H94   H     H_    0.617589 0.336786 0.974385 0.162897
N56   N     N_3   0.685281 0.586242 0.957945 -0.429462
H95   H     H_    0.715914 0.612006 0.942814 0.180997
H96   H     H_    0.663321 0.617576 0.974384 0.162999
N57   N     N_3   0.085863 0.185328 0.542338 -0.429734
H97   H     H_    0.111427 0.215968 0.557570 0.178569
H98   H     H_    0.117397 0.163425 0.525994 0.163144
N58   N     N_3   0.185195 0.913423 0.541843 -0.428906
H99   H     H_    0.215807 0.887518 0.556900 0.182153
H100  H     H_    0.163179 0.882234 0.525332 0.163323
N59   N     N_3   0.914137 0.814672 0.542338 -0.429733
H101  H     H_    0.888573 0.784032 0.557570 0.178568
H102  H     H_    0.882603 0.836575 0.525994 0.163144
N60   N     N_3   0.814805 0.086577 0.541843 -0.428907
H103  H     H_    0.784193 0.112482 0.556900 0.182153
H104  H     H_    0.836820 0.117766 0.525332 0.163324
N61   N     N_3   0.914166 0.185252 0.457704 -0.429325
H105  H     H_    0.888547 0.215871 0.442499 0.180983
H106  H     H_    0.882675 0.163267 0.474048 0.163336
N62   N     N_3   0.814747 0.913414 0.458172 -0.429510
H107  H     H_    0.784119 0.887506 0.443115 0.181107
H108  H     H_    0.836722 0.882231 0.474695 0.162683
N63   N     N_3   0.085834 0.814748 0.457704 -0.429326
H109  H     H_    0.111453 0.784129 0.442499 0.180983
H110  H     H_    0.117325 0.836733 0.474048 0.163336
N64   N     N_3   0.185253 0.086586 0.458172 -0.429511
H111  H     H_    0.215881 0.112494 0.443115 0.181107
H112  H     H_    0.163278 0.117768 0.474695 0.162683

loop_
_geom_bond_atom_site_label_1
_geom_bond_atom_site_label_2
_ccdc_geom_bond_type
O45   Zn12  S    
C54   N30   S    
C39   C87   S    
C53   C69   A    
C42   C58   A    
C15   C32   S    
N2    N13   A    
C21   C105  A    
C96   N1    A    
C46   C62   A    
N38   H59   S    
C128  N64   S    
C98   C114  A    
C35   O23   A    
C58   N34   S    
C14   C128  A    
C79   C90   S    
N28   H40   S    
C37   O25   A    
N23   H29   S    
N34   H51   S    
C56   C72   A    
C27   O37   A    
N24   H32   S    
N39   H62   S    
C3    C19   S    
N52   H87   S    
C47   C83   A    
C116  N52   S    
C59   C73   A    
C63   N39   S    
C13   C125  A    
C127  N63   S    
C15   C127  A    
N25   H33   S    
C51   C85   A    
C93   N6    A    
O38   Zn10  S    
O39   Zn10  S    
C108  C124  A    
C50   N26   S    
N61   H106  S    
N26   H36   S    
C9    C26   S    
C30   O42   A    
C119  N55   S    
O44   Zn11  S    
N51   H85   S    
C13   C30   S    
N27   H37   S    
C24   C110  A    
O7    Zn1   S    
N55   H94   S    
C115  N51   S    
O2    Zn2   S    
N48   H79   S    
C46   N22   S    
C25   O39   A    
C39   O31   A    
N19   H21   S    
C40   O32   A    
C66   N42   S    
C23   C107  A    
C50   C66   A    
C18   C104  A    
N20   H24   S    
C125  N61   S    
N42   H67   S    
N33   H50   S    
O40   Zn10  S    
O37   Zn10  S    
C26   O34   A    
N31   H46   S    
C96   N3    A    
C123  N59   S    
C45   N21   S    
C100  H4    S    
C101  H5    S    
C35   O21   A    
O9    Zn5   S    
C40   C88   S    
C52   C86   A    
C16   C124  A    
O6    Zn2   S    
C54   C88   A    
C37   O27   A    
O4    Zn4   S    
C38   O28   A    
N60   H103  S    
N55   H93   S    
C4    C20   S    
C5    C21   S    
N63   H109  S    
C93   N8    A    
O12   Zn8   S    
C55   C71   A    
C10   C27   S    
C67   C77   A    
C14   C31   S    
C2    O2    A    
C71   C79   A    
O36   Zn9   S    
C3    O7    A    
O33   Zn9   S    
N41   H65   S    
C38   C86   S    
O13   Zn7   S    
C122  N58   S    
C31   O45   A    
C120  N56   S    
C39   O29   A    
C8    O14   A    
C56   C88   A    
N64   H111  S    
O22   Zn2   S    
N22   H27   S    
O18   Zn2   S    
C64   N40   S    
N29   H41   S    
C57   C73   A    
C90   N15   A    
O20   Zn4   S    
N45   H74   S    
C53   C87   A    
C92   N9    A    
C32   O48   A    
C56   N32   S    
N21   H25   S    
C111  H15   S    
N53   H90   S    
C45   C83   A    
C42   N18   S    
N3    N16   A    
N46   H76   S    
O34   Zn9   S    
N57   H98   S    
N44   H72   S    
C33   O17   A    
C10   C120  A    
N54   H91   S    
C48   N24   S    
C52   C68   A    
C38   O26   A    
N51   H86   S    
N50   H84   S    
N17   H17   S    
C13   C121  A    
C106  C122  A    
N62   H108  S    
N23   H30   S    
C51   C67   A    
C40   O30   A    
N32   H48   S    
C110  C126  A    
C47   N23   S    
N19   H22   S    
N56   H96   S    
N47   H78   S    
C43   C81   A    
C117  N53   S    
C69   C79   A    
C2    O8    A    
O35   Zn9   S    
C11   C115  A    
C58   C74   A    
C6    O10   A    
C68   N44   S    
C104  H8    S    
C67   N43   S    
C5    O13   A    
N30   H43   S    
C21   C109  A    
N37   H58   S    
C23   C111  A    
C1    C17   S    
C29   O47   A    
C9    C113  A    
C90   N13   A    
N38   H60   S    
C7    O15   A    
C91   N12   A    
C72   C80   A    
C72   N48   S    
C63   C75   A    
C7    C23   S    
C8    C24   S    
O25   Zn5   S    
C92   N11   A    
N36   H56   S    
C107  H11   S    
C26   O38   A    
C103  H7    S    
C105  H9    S    
N58   H99   S    
C75   C94   S    
N34   H52   S    
N36   H55   S    
N52   H88   S    
C34   C82   S    
C17   C97   A    
C126  N62   S    
C12   C116  A    
C14   C122  A    
C7    O11   A    
C33   O19   A    
C113  N49   S    
C34   O20   A    
N35   H53   S    
C100  C116  A    
C107  C123  A    
N18   H19   S    
N61   H105  S    
O28   Zn8   S    
N31   H45   S    
C95   N2    A    
O47   Zn12  S    
C62   N38   S    
C44   C82   A    
C47   C63   A    
C48   C64   A    
N48   H80   S    
C6    C22   S    
N37   H57   S    
N40   H63   S    
C80   C89   S    
N49   H82   S    
C52   N28   S    
O29   Zn7   S    
N6    N9    A    
C24   C108  A    
C10   C114  A    
C3    O3    A    
O11   Zn7   S    
N42   H68   S    
C1    O1    A    
C60   N36   S    
N33   H49   S    
C62   C76   A    
C124  N60   S    
C68   C78   A    
C66   C78   A    
C53   N29   S    
C70   C80   A    
C65   C77   A    
C91   N10   A    
N59   H101  S    
C35   C83   S    
O46   Zn12  S    
C94   N7    A    
O1    Zn1   S    
C121  N57   S    
O14   Zn6   S    
N4    N15   A    
C32   O44   A    
N5    N10   A    
N28   H39   S    
C76   C93   S    
N39   H61   S    
C20   C100  A    
N8    N11   A    
C41   C81   A    
C98   H2    S    
N24   H31   S    
N7    N12   A    
N60   H104  S    
O41   Zn11  S    
C15   C123  A    
C12   C118  A    
N25   H34   S    
C34   O18   A    
C36   O22   A    
C25   O33   A    
N26   H35   S    
C19   C99   A    
O10   Zn6   S    
C99   H3    S    
C101  C117  A    
C41   C57   A    
O31   Zn5   S    
N1    N14   A    
N64   H112  S    
C11   C28   S    
C44   C60   A    
C99   C115  A    
C45   C61   A    
N22   H28   S    
N20   H23   S    
C112  C128  A    
C106  H10   S    
N17   H18   S    
N45   H73   S    
N21   H26   S    
C5    O9    A    
C73   C96   S    
C69   N45   S    
C16   C126  A    
C118  N54   S    
C8    O12   A    
C22   C112  A    
C61   N37   S    
C104  C120  A    
O48   Zn12  S    
N47   H77   S    
C77   C92   S    
C2    C18   S    
C9    C117  A    
N53   H89   S    
O8    Zn4   S    
C42   C82   A    
N43   H69   S    
C11   C119  A    
C89   N14   A    
C41   N17   S    
N57   H97   S    
C61   C75   A    
C94   N5    A    
C28   O40   A    
C49   C65   A    
C55   N31   S    
O15   Zn5   S    
C37   C85   S    
N35   H54   S    
N54   H92   S    
N27   H38   S    
C20   C102  A    
C30   O46   A    
O19   Zn3   S    
O17   Zn1   S    
C110  H14   S    
C44   N20   S    
C17   C101  A    
C28   O36   A    
C19   C103  A    
C54   C70   A    
O16   Zn8   S    
C36   O24   A    
C57   N33   S    
C51   N27   S    
C31   O43   A    
C102  C118  A    
C55   C87   A    
C43   N19   S    
O24   Zn4   S    
O27   Zn7   S    
C49   C85   A    
N30   H44   S    
C108  H12   S    
O3    Zn3   S    
O5    Zn3   S    
C16   C29   S    
C22   C106  A    
C48   C84   A    
C59   N35   S    
N29   H42   S    
O42   Zn11  S    
C102  H6    S    
N59   H102  S    
C1    O5    A    
C4    O4    A    
C64   C76   A    
C105  C121  A    
N63   H110  S    
N43   H70   S    
C70   N46   S    
C109  C125  A    
N58   H100  S    
O30   Zn6   S    
C111  C127  A    
C46   C84   A    
C97   C113  A    
C71   N47   S    
N46   H75   S    
C89   N16   A    
N44   H71   S    
C74   C95   S    
C103  C119  A    
C95   N4    A    
N18   H20   S    
C109  H13   S    
C43   C59   A    
C78   C91   S    
O23   Zn1   S    
O43   Zn11  S    
C12   C25   S    
O21   Zn3   S    
N50   H83   S    
C112  H16   S    
C97   H1    S    
N41   H66   S    
C29   O41   A    
C27   O35   A    
C6    O16   A    
C36   C84   S    
O26   Zn6   S    
C60   C74   A    
N62   H107  S    
C4    O6    A    
N40   H64   S    
N49   H81   S    
C49   N25   S    
N32   H47   S    
C50   C86   A    
C65   N41   S    
C114  N50   S    
N56   H95   S    
C18   C98   A    
C33   C81   S    
O32   Zn8   S    
