data_mof_unit_12778.cif
_audit_creation_date              2013-03-05T16:13:55-0500
_audit_creation_method            fapswitch 2.2
_symmetry_space_group_name_H-M    P1
_symmetry_Int_Tables_number       1
_space_group_crystal_system       triclinic
_cell_length_a                    10.638236
_cell_length_b                    9.935975
_cell_length_c                    17.448379
_cell_angle_alpha                 89.10426
_cell_angle_beta                  92.577927
_cell_angle_gamma                 90.504148
_cell_volume                      1842.1632566

loop_
_atom_site_label
_atom_site_type_symbol
_atom_site_description
_atom_site_fract_x
_atom_site_fract_y
_atom_site_fract_z
_atom_type_partial_charge
O1    O     O_R   0.316770 0.614620 0.500000 -0.612311
O2    O     O_R   0.683230 0.385380 0.500000 -0.605663
O3    O     O_R   0.683230 0.614620 0.500000 -0.595734
O4    O     O_R   0.316770 0.385380 0.500000 -0.592816
C1    C     C_R   0.260676 0.499157 0.500170 1.011111
C2    C     C_R   0.739285 0.500895 0.499458 1.010772
O5    O     O_R   0.500010 0.614710 0.389120 -0.602442
O6    O     O_R   0.499990 0.385290 0.610880 -0.601321
O7    O     O_R   0.499990 0.614710 0.610880 -0.619776
O8    O     O_R   0.500010 0.385290 0.389120 -0.617734
C3    C     C_R   0.069194 0.452438 0.565374 0.213179
C4    C     C_R   0.930661 0.547902 0.433846 0.226025
C5    C     C_R   0.939122 0.457197 0.566295 0.220438
C6    C     C_R   0.060879 0.543616 0.433122 0.211633
C7    C     C_R   0.506258 0.501181 0.353420 0.969385
C8    C     C_R   0.497488 0.498830 0.647079 0.971119
Zn1   Zn    Zn3+2 0.500000 0.653120 0.500000 1.070086
Zn2   Zn    Zn3+2 0.500000 0.346880 0.500000 1.074229
C9    C     C_R   0.871850 0.504049 0.500317 -0.316827
C10   C     C_R   0.128054 0.496197 0.499004 -0.324373
N1    N     N_R   0.500000 0.857200 0.500000 -0.279562
N2    N     N_R   0.500000 0.142800 0.500000 -0.277402
C11   C     C_R   0.525781 0.626506 0.848918 -0.160569
C12   C     C_R   0.615954 0.401526 0.159146 -0.144839
C13   C     C_R   0.531351 0.626539 0.149398 -0.154566
C14   C     C_R   0.587151 0.392854 0.850436 -0.148272
H1    H     H_    0.510468 0.718044 0.880124 0.196108
H2    H     H_    0.658474 0.316717 0.132084 0.193736
H3    H     H_    0.506667 0.714917 0.114831 0.186740
H4    H     H_    0.619432 0.304543 0.882674 0.193101
C15   C     C_R   0.487663 0.619064 0.771671 0.281299
C16   C     C_R   0.591564 0.394736 0.236927 0.296664
C17   C     C_R   0.503914 0.622159 0.226383 0.316664
C18   C     C_R   0.550243 0.381651 0.773286 0.306845
C19   C     C_R   0.505994 0.497606 0.731679 -0.231763
C20   C     C_R   0.532387 0.505139 0.271348 -0.255888
C21   C     C_R   0.591109 0.070875 0.540848 0.457726
C22   C     C_R   0.409006 0.929140 0.459036 0.452624
C23   C     C_R   0.408911 0.071290 0.459043 0.447607
C24   C     C_R   0.591083 0.928716 0.540967 0.448903
C25   C     C_R   0.576475 0.514618 0.887260 0.010969
C26   C     C_R   0.586524 0.516951 0.116349 0.011574
C27   C     C_1   0.594686 0.517527 0.967862 0.052733
C28   C     C_1   0.597653 0.517658 0.036042 0.053607
N3    N     N_R   0.425373 0.733287 0.736050 0.230659
O9    O     O_R   0.462514 0.854759 0.753127 -0.291520
O10   O     O_R   0.320131 0.716836 0.696192 -0.302729
N4    N     N_R   0.631475 0.277145 0.279894 0.232394
O11   O     O_R   0.605328 0.158217 0.253049 -0.299680
O12   O     O_R   0.714457 0.288403 0.336565 -0.317649
N5    N     N_R   0.444843 0.736861 0.257109 0.217606
O13   O     O_R   0.326382 0.758283 0.240102 -0.266178
O14   O     O_R   0.514620 0.834963 0.284048 -0.288334
N6    N     N_R   0.554932 0.251009 0.739719 0.218474
O15   O     O_R   0.653354 0.176057 0.753413 -0.273281
O16   O     O_R   0.451276 0.194790 0.713210 -0.275541
O17   O     O_3   0.684922 0.133363 0.584132 -0.596397
H5    H     H_    0.656381 0.224179 0.595554 0.391010
O18   O     O_3   0.315619 0.866738 0.415332 -0.597144
H6    H     H_    0.344066 0.775800 0.404137 0.396634
O19   O     O_3   0.315116 0.133965 0.415375 -0.621344
H7    H     H_    0.341896 0.226828 0.404922 0.386018
O20   O     O_3   0.684832 0.866050 0.584681 -0.619041
H8    H     H_    0.658026 0.773202 0.595163 0.385200
N7    N     N_R   0.141745 0.411721 0.633087 0.229858
O21   O     O_R   0.131363 0.476208 0.696802 -0.276716
O22   O     O_R   0.206874 0.301510 0.633406 -0.278519
N8    N     N_R   0.858219 0.588659 0.365975 0.227531
O23   O     O_R   0.874484 0.529605 0.301171 -0.295723
O24   O     O_R   0.788181 0.695233 0.366617 -0.301992
N9    N     N_R   0.875569 0.415058 0.633791 0.234986
O25   O     O_R   0.904253 0.301730 0.668362 -0.226708
O26   O     O_R   0.794204 0.493635 0.663474 -0.410082
N10   N     N_R   0.124701 0.588037 0.366178 0.242731
O27   O     O_R   0.095159 0.701862 0.332437 -0.212349
O28   O     O_R   0.208070 0.511816 0.336560 -0.385198

loop_
_geom_bond_atom_site_label_1
_geom_bond_atom_site_label_2
_geom_bond_distance
_ccdc_geom_bond_type
C13   C26   1.387076 A    
O18   H6    0.980715 S    
C27   C28   1.188637 T    
C12   C16   1.393639 A    
C18   N6    1.434572 S    
C11   H1    1.084579 S    
O2    Zn2   1.983120 S    
C16   N4    1.435323 S    
C25   C27   1.411718 S    
O1    Zn1   1.983121 S    
C11   C25   1.388937 A    
O3    C2    1.282663 A    
O4    Zn2   1.989726 S    
C17   C20   1.419679 A    
N4    O12   1.301062 A    
N9    O25   1.301211 A    
O6    C8    1.302555 A    
C1    C10   1.410157 S    
N3    O9    1.301483 A    
C2    C9    1.409736 S    
C4    N8    1.438310 S    
O17   H5    0.980837 S    
O2    C2    1.288862 A    
N1    C24   1.377030 A    
C26   C28   1.411428 S    
O8    Zn2   1.966103 S    
C18   C19   1.424310 A    
O1    C1    1.288511 A    
N2    C23   1.376966 A    
C16   C20   1.423776 A    
C4    C9    1.403971 A    
O7    Zn1   1.966101 S    
N4    O11   1.301116 A    
C21   O17   1.373978 S    
O7    C8    1.305199 A    
C4    C6    1.386948 A    
C17   N5    1.429411 S    
C14   H4    1.084796 S    
C21   C24   1.412455 A    
N6    O16   1.301265 A    
O8    C7    1.303194 A    
N3    O10   1.301586 A    
C8    C19   1.474707 S    
C13   H3    1.084932 S    
O19   H7    0.980088 S    
O3    Zn1   1.989725 S    
C15   C19   1.422686 A    
C3    C10   1.402461 A    
C24   O20   1.375425 S    
N10   O27   1.301236 A    
N10   O28   1.300955 A    
O20   H8    0.980114 S    
N5    O13   1.300231 A    
C6    N10   1.438792 S    
C7    C20   1.470839 S    
C3    C5    1.385780 A    
C23   O19   1.375379 S    
C22   C23   1.412410 A    
N5    O14   1.300869 A    
C12   C26   1.389037 A    
C6    C10   1.403273 A    
N8    O24   1.300604 A    
N7    O21   1.301237 A    
C15   N3    1.437917 S    
C13   C17   1.387321 A    
N9    O26   1.300721 A    
C5    C9    1.403270 A    
N6    O15   1.301405 A    
N8    O23   1.301115 A    
O5    C7    1.300715 A    
C5    N9    1.438957 S    
O5    Zn1   1.977810 S    
Zn2   N2    2.027734 S    
N2    C21   1.375591 A    
C3    N7    1.436594 S    
C14   C18   1.391049 A    
O6    Zn2   1.977808 S    
N1    C22   1.375794 A    
C22   O18   1.374304 S    
C14   C25   1.386624 A    
C12   H2    1.084438 S    
O4    C1    1.283059 A    
N7    O22   1.300786 A    
C11   C15   1.392838 A    
Zn1   N1    2.027734 S    
