data_mof_unit_10788.cif
_audit_creation_date              2012-12-11T15:09:45-0500
_audit_creation_method            fapswitch 2.2
_symmetry_space_group_name_H-M    P1
_symmetry_Int_Tables_number       1
_space_group_crystal_system       triclinic
_cell_length_a                    21.001836
_cell_length_b                    7.126203
_cell_length_c                    13.998819
_cell_angle_alpha                 89.774217
_cell_angle_beta                  98.290065
_cell_angle_gamma                 90.174103
_cell_volume                      2073.19532986

loop_
_atom_site_label
_atom_site_type_symbol
_atom_type_description
_atom_site_fract_x
_atom_site_fract_y
_atom_site_fract_z
_atom_type_partial_charge
O1    O     O_R   0.447130 0.507140 0.597350 -0.535530
O2    O     O_R   0.552870 0.007140 0.402650 -0.550196
O3    O     O_R   0.578910 0.181280 0.586990 -0.547419
O4    O     O_R   0.421090 0.681280 0.413010 -0.530901
C1    C     C_R   0.604553 0.344426 0.607280 0.724253
C2    C     C_R   0.395753 0.844335 0.391953 0.731322
O5    O     O_R   0.449230 0.177860 0.608640 -0.548646
O6    O     O_R   0.550770 0.677860 0.391360 -0.532738
O7    O     O_R   0.422260 0.000770 0.424450 -0.533850
O8    O     O_R   0.577740 0.500770 0.575550 -0.536416
C3    C     C_R   0.432939 0.345781 0.634842 0.759227
C4    C     C_R   0.567530 0.846582 0.366136 0.688293
O9    O     O_3   0.491310 0.336980 0.439550 -0.369275
O10   O     O_3   0.508690 0.836980 0.560450 -0.384515
V1    V     V_3+5 0.501610 0.064760 0.511210 1.428598
V2    V     V_3+5 0.498390 0.564760 0.488790 1.479051
C5    C     C_R   0.624448 0.881254 0.127967 -0.103323
C6    C     C_R   0.377815 0.344755 0.877576 -0.097638
H1    H     H_    0.534028 0.897713 0.179672 0.137886
H2    H     H_    0.469278 0.353502 0.826906 0.139808
H3    H     H_    0.601898 0.892443 0.053515 0.187086
H4    H     H_    0.400020 0.338374 0.952334 0.187259
C7    C     C_R   0.612056 0.857223 0.296001 -0.106161
C8    C     C_R   0.390822 0.351934 0.709363 -0.110733
C9    C     C_R   0.924914 0.897134 0.308567 0.308910
C10   C     C_R   0.077455 0.412595 0.692891 0.310974
C11   C     C_R   0.887802 0.916473 0.382963 0.552013
C12   C     C_R   0.115417 0.439399 0.619824 0.546289
C13   C     C_R   0.821141 0.910074 0.363154 -0.234021
C14   C     C_R   0.182089 0.430925 0.640321 -0.273090
C15   C     C_R   0.788891 0.867671 0.270458 0.015364
C16   C     C_R   0.213512 0.378355 0.732752 -0.001154
C17   C     C_R   0.826416 0.852336 0.193987 -0.099222
C18   C     C_R   0.175029 0.354729 0.807866 -0.091930
C19   C     C_R   0.720258 0.857715 0.250086 -0.018348
C20   C     C_R   0.282056 0.358538 0.754393 -0.055744
C21   C     C_R   0.691190 0.864699 0.151594 -0.045776
C22   C     C_R   0.310560 0.344916 0.852878 -0.040903
C23   C     C_R   0.728965 0.852886 0.077229 0.613116
C24   C     C_R   0.271782 0.328888 0.925853 0.612706
C25   C     C_R   0.795302 0.839792 0.098335 -0.217111
C26   C     C_R   0.205267 0.327757 0.903317 -0.221594
C27   C     C_R   0.679678 0.839464 0.323499 0.365113
C28   C     C_R   0.323785 0.345838 0.682532 0.361469
C29   C     C_R   0.585617 0.883702 0.199757 -0.246808
C30   C     C_R   0.417520 0.352678 0.806380 -0.271677
C31   C     C_R   0.894424 0.862699 0.214050 -0.218926
C32   C     C_R   0.107008 0.368136 0.786951 -0.217199
H5    H     H_    0.795657 0.953978 0.419755 0.186120
H6    H     H_    0.207643 0.475430 0.582951 0.216243
H7    H     H_    0.822170 0.828629 0.038177 0.142517
H8    H     H_    0.177664 0.311283 0.962420 0.143392
C33   C     C_1   0.167191 0.856774 0.166793 -0.167182
C34   C     C_1   0.833226 0.356683 0.832062 -0.169761
C35   C     C_1   0.219831 0.853843 0.217205 0.052135
C36   C     C_1   0.780889 0.354223 0.780832 0.044333
C37   C     C_1   0.281702 0.851805 0.276880 0.038621
C38   C     C_1   0.719230 0.352746 0.720612 0.026676
C39   C     C_1   0.333856 0.849975 0.328663 -0.172691
C40   C     C_1   0.666932 0.350734 0.669274 -0.178251
O11   O     O_R   0.922300 0.202240 0.924350 -0.529654
O12   O     O_R   0.077700 0.702240 0.075650 -0.529356
O13   O     O_R   0.050780 0.535130 0.891350 -0.551285
O14   O     O_R   0.949220 0.035130 0.108650 -0.551953
C41   C     C_R   0.067082 0.369063 0.864881 0.776436
C42   C     C_R   0.933533 0.867936 0.135562 0.779297
O15   O     O_R   0.921100 0.531560 0.912990 -0.542340
O16   O     O_R   0.078900 0.031560 0.087010 -0.542190
O17   O     O_R   0.947120 0.708470 0.097370 -0.537162
O18   O     O_R   0.052880 0.208470 0.902630 -0.538635
C43   C     C_R   0.895774 0.363491 0.893655 0.730008
C44   C     C_R   0.104312 0.863577 0.106088 0.730093
O19   O     O_3   0.008710 0.375800 0.060400 -0.379447
O20   O     O_3   0.991290 0.875800 0.939600 -0.380963
V3    V     V_3+5 0.998380 0.648080 0.988790 1.448627
V4    V     V_3+5 0.001620 0.148080 0.011210 1.447546
F1    F     F_    0.701545 0.851679 0.983169 -0.692476
F2    F     F_    0.298325 0.310410 0.019832 -0.691784
O21   O     O_3   0.705028 0.760568 0.412662 -0.559262
C45   C     C_3   0.692611 0.869763 0.492632 0.074946
H9    H     H_    0.645990 0.829294 0.514771 0.154451
H10   H     H_    0.693330 0.023447 0.477533 0.103422
C46   C     C_3   0.742340 0.825867 0.580527 -0.693966
H11   H     H_    0.790683 0.878932 0.571298 0.226923
H12   H     H_    0.728013 0.893726 0.645469 0.193926
H13   H     H_    0.745180 0.671981 0.592933 0.232583
O22   O     O_3   0.300847 0.321623 0.585853 -0.571987
C47   C     C_3   0.284020 0.131324 0.569235 0.071855
H14   H     H_    0.252243 0.077437 0.620526 0.131191
H15   H     H_    0.327949 0.042766 0.575046 0.136033
C48   C     C_3   0.247558 0.113914 0.467961 -0.695130
H16   H     H_    0.278570 0.160307 0.414465 0.233411
H17   H     H_    0.232338 0.966119 0.453685 0.185796
H18   H     H_    0.204393 0.204766 0.460593 0.235685
O23   O     O_3   0.991281 0.910770 0.327873 -0.541394
C49   C     C_3   0.008687 0.101901 0.340383 0.147962
H19   H     H_    0.989284 0.164344 0.402937 0.202073
H20   H     H_    0.991238 0.185263 0.274422 0.109959
C50   C     C_3   0.081443 0.117706 0.359877 -0.630893
H21   H     H_    0.102865 0.058245 0.298797 0.199971
H22   H     H_    0.095671 0.267537 0.368390 0.220379
H23   H     H_    0.099955 0.039965 0.427033 0.235932
O24   O     O_3   0.011027 0.424793 0.672431 -0.545086
C51   C     C_3   0.993077 0.615630 0.660859 0.145764
H24   H     H_    0.010623 0.679092 0.596758 0.212155
H25   H     H_    0.012139 0.698770 0.725997 0.105622
C52   C     C_3   0.920100 0.630052 0.645857 -0.600086
H26   H     H_    0.900573 0.564763 0.707478 0.192400
H27   H     H_    0.905602 0.779808 0.641028 0.215287
H28   H     H_    0.899587 0.557705 0.578177 0.239751
F3    F     F_    0.916304 0.950864 0.474488 -0.695954
F4    F     F_    0.087692 0.479472 0.528407 -0.688526

loop_
_geom_bond_atom_site_label_1
_geom_bond_atom_site_label_2
_ccdc_geom_bond_type
C14   C16   A    
O22   C47   S    
O13   C41   A    
C7    C29   A    
C11   C13   A    
O19   V3    S    
O23   C49   S    
C18   C26   A    
O2    C4    A    
C2    O7    A    
C51   H25   S    
O15   V3    S    
C23   C25   A    
C13   H5    S    
C12   F4    S    
O5    C3    A    
C4    C7    S    
O20   V4    S    
C16   C20   A    
C19   C21   A    
C5    C29   A    
C37   C39   T    
C42   O17   A    
C38   C40   T    
C41   O18   A    
C49   C50   S    
C3    C8    S    
C7    C27   A    
C34   C43   S    
C46   H11   S    
C49   H20   S    
C52   H26   S    
C15   C17   A    
C32   C41   S    
C28   O22   S    
C19   C27   A    
C9    C31   A    
C31   C42   S    
O15   C43   A    
C10   C32   A    
O11   C43   A    
C24   C26   A    
C14   H6    S    
C11   F3    S    
O6    V2    S    
C52   H27   S    
C45   C46   S    
C6    C30   A    
C51   H24   S    
C33   C35   T    
O11   V4    S    
C34   C36   T    
O20   V3    S    
C45   H10   S    
C48   H16   S    
C5    H3    S    
O14   C42   A    
O4    V2    S    
C10   O24   S    
C48   H17   S    
C50   H21   S    
C47   C48   S    
O16   C44   A    
C49   H19   S    
C46   H13   S    
O14   V4    S    
O12   C44   A    
O1    V2    S    
C5    C21   A    
O2    V1    S    
O4    C2    A    
C46   H12   S    
C47   H15   S    
C9    O23   S    
C35   C37   S    
O18   V4    S    
C17   C31   A    
O19   V4    S    
C15   C19   A    
O12   V3    S    
C20   C28   A    
C9    C11   A    
C20   C22   A    
C23   F1    S    
O3    V1    S    
C1    C40   S    
C50   H22   S    
C6    H4    S    
C2    C39   S    
C45   H9    S    
O3    C1    A    
H1    C29   S    
O16   V4    S    
C10   C12   A    
C8    C30   A    
C12   C14   A    
C6    C22   A    
C17   C25   A    
C1    O8    A    
C13   C15   A    
O8    V2    S    
C48   H18   S    
C22   C24   A    
O13   V3    S    
C8    C28   A    
O5    V1    S    
C52   H28   S    
C36   C38   S    
O17   V3    S    
C24   F2    S    
O7    V1    S    
O21   C45   S    
C50   H23   S    
C18   C32   A    
C47   H14   S    
C21   C23   A    
O9    V2    S    
C26   H8    S    
O24   C51   S    
O10   V1    S    
O1    C3    A    
C33   C44   S    
C27   O21   S    
C25   H7    S    
C51   C52   S    
H2    C30   S    
O6    C4    A    
C16   C18   A    
