data_mof_unit_22794.cif
_audit_creation_date              2012-12-10T18:11:39-0500
_audit_creation_method            fapswitch 2.2
_symmetry_space_group_name_H-M    P1
_symmetry_Int_Tables_number       1
_space_group_crystal_system       triclinic
_cell_length_a                    10.606815
_cell_length_b                    12.633307
_cell_length_c                    13.201257
_cell_angle_alpha                 84.020176
_cell_angle_beta                  90.819544
_cell_angle_gamma                 100.43625
_cell_volume                      1730.20830922

loop_
_atom_site_label
_atom_site_type_symbol
_atom_type_description
_atom_site_fract_x
_atom_site_fract_y
_atom_site_fract_z
_atom_type_partial_charge
C1    C     C_R   0.475686 0.441040 0.690345 0.854509
C2    C     C_3   0.058280 0.592193 0.535018 0.125749
C3    C     C_3   0.959758 0.500473 0.591277 0.118622
C4    C     C_3   0.877674 0.499092 0.493776 -0.260376
C5    C     C_R   0.480688 0.727093 0.061837 0.180024
C6    C     C_R   0.505342 0.593088 0.201653 -0.105128
C7    C     C_R   0.449225 0.297757 0.834381 -0.221348
C8    C     C_R   0.435410 0.263340 0.938002 0.238623
C9    C     C_R   0.432450 0.340222 0.006310 -0.235530
C10   C     C_R   0.435653 0.450692 0.970956 0.063756
C11   C     C_R   0.421877 0.478976 0.866428 0.032683
C12   C     C_R   0.742057 0.499908 0.497201 0.878156
C13   C     C_R   0.454829 0.534514 0.035650 0.038847
C14   C     C_R   0.439109 0.641692 0.998976 0.058848
C15   C     C_R   0.379474 0.656075 0.903138 0.115603
C16   C     C_R   0.380305 0.577462 0.835107 -0.194821
C17   C     C_R   0.495732 0.514642 0.135006 -0.253720
C18   C     C_R   0.499448 0.699496 0.165508 -0.214197
C19   C     C_R   0.445722 0.405699 0.797923 -0.155090
C20   C     C_R   0.326668 0.090883 0.340204 -0.319419
C21   C     C_R   0.657339 0.806133 0.628768 0.232018
C22   C     C_R   0.701599 0.916452 0.641600 0.150616
C23   C     C_R   0.513305 0.559351 0.309387 0.862606
C24   C     C_R   0.646109 0.993669 0.584690 -0.285894
C25   C     C_R   0.544716 0.964676 0.518796 -0.023830
C26   C     C_R   0.510992 0.854727 0.499643 0.187792
C27   C     C_R   0.478937 0.043034 0.469157 0.024543
C28   C     C_R   0.390494 0.013532 0.391374 0.202222
C29   C     C_R   0.366228 0.907104 0.366596 -0.313307
C30   C     C_R   0.422556 0.828248 0.422147 -0.221085
C31   C     C_R   0.495757 0.149899 0.495731 -0.077723
C32   C     C_R   0.350097 0.195896 0.368032 -0.004106
C33   C     C_R   0.258286 0.501260 0.499072 0.862652
C34   C     C_3   0.942826 0.411141 0.454115 0.144728
C35   C     C_3   0.024610 0.412632 0.551785 0.147480
C36   C     C_3   0.123293 0.503792 0.496485 -0.262312
C37   C     C_3   0.042457 0.502332 0.398411 0.127375
C38   C     C_3   0.976505 0.590332 0.437083 0.137236
H1    H     H_    0.302591 0.256937 0.328442 0.131781
H2    H     H_    0.555990 0.178155 0.557306 0.124206
H3    H     H_    0.514909 0.761850 0.217113 0.170153
N1    N     N_R   0.432930 0.222190 0.444670 -0.104376
N2    N     N_R   0.566370 0.776980 0.554790 -0.161460
O1    O     O_R   0.467970 0.366730 0.627150 -0.618510
O2    O     O_R   0.510820 0.544830 0.662520 -0.625110
O3    O     O_R   0.664630 0.410960 0.482340 -0.625413
O4    O     O_R   0.707470 0.589060 0.517710 -0.649326
O5    O     O_R   0.489180 0.455170 0.337480 -0.621781
O6    O     O_R   0.532030 0.633270 0.372850 -0.638808
O7    O     O_R   0.292530 0.410940 0.482290 -0.626591
O8    O     O_R   0.335370 0.589040 0.517660 -0.653625
Zn1   Zn    Zn3+2 0.471390 0.381080 0.476380 0.915442
Zn2   Zn    Zn3+2 0.528610 0.618920 0.523620 0.896745
C39   C     C_3   0.063822 0.315181 0.615433 -0.336164
C40   C     C_3   0.948221 0.232737 0.655222 -0.925692
H4    H     H_    0.869625 0.271443 0.679757 0.268822
H5    H     H_    0.911245 0.181636 0.594403 0.259640
H6    H     H_    0.978202 0.180970 0.720935 0.263263
H7    H     H_    0.122818 0.274155 0.569222 0.221948
H8    H     H_    0.124683 0.343418 0.679744 0.199641
H9    H     H_    0.518914 0.437300 0.163075 0.162272
H10   H     H_    0.462815 0.239723 0.782411 0.162834
H11   H     H_    0.423268 0.311372 0.086216 0.126970
C41   C     C_3   0.428810 0.145411 0.975440 -0.430832
C42   C     C_3   0.302739 0.077804 0.944120 -0.876121
H12   H     H_    0.220210 0.108848 0.973335 0.263767
H13   H     H_    0.296458 0.080148 0.859883 0.259530
H14   H     H_    0.296799 0.992440 0.976488 0.238262
H15   H     H_    0.510622 0.115404 0.943602 0.206343
H16   H     H_    0.436225 0.134071 0.059845 0.206052
H17   H     H_    0.342910 0.591638 0.759247 0.169007
H18   H     H_    0.300832 0.884159 0.305684 0.160209
H19   H     H_    0.259396 0.070343 0.279683 0.148496
C43   C     C_3   0.717556 0.723977 0.695334 -0.371499
C44   C     C_3   0.680944 0.716042 0.808064 -0.853920
H20   H     H_    0.762810 0.752723 0.853755 0.242709
H21   H     H_    0.599610 0.757815 0.818287 0.266846
H22   H     H_    0.654677 0.629952 0.839319 0.258780
H23   H     H_    0.699781 0.644077 0.671576 0.270422
H24   H     H_    0.821730 0.745130 0.686705 0.153378
C45   C     C_3   0.865929 0.311719 0.408862 -0.326733
C46   C     C_3   0.949714 0.239286 0.367820 -0.910536
H25   H     H_    0.996103 0.277411 0.295157 0.263079
H26   H     H_    0.024293 0.221375 0.423133 0.265794
H27   H     H_    0.888690 0.161505 0.352447 0.250945
H28   H     H_    0.800840 0.263157 0.468252 0.213158
H29   H     H_    0.804660 0.339099 0.346241 0.205957
H30   H     H_    0.686829 0.077119 0.591509 0.154984
C47   C     C_3   0.810392 0.957331 0.712310 -0.390970
C48   C     C_3   0.763233 0.015550 0.796117 -0.899956
H31   H     H_    0.732952 0.091779 0.764346 0.257779
H32   H     H_    0.680431 0.962583 0.835999 0.275192
H33   H     H_    0.841108 0.035438 0.851871 0.250125
H34   H     H_    0.860394 0.894835 0.749636 0.215234
H35   H     H_    0.886362 0.011997 0.666425 0.201018
H36   H     H_    0.393737 0.747121 0.403563 0.210905
C49   C     C_3   0.109007 0.503498 0.295373 -0.356030
C50   C     C_3   0.019053 0.509332 0.204508 -0.888250
H37   H     H_    0.931061 0.447028 0.215965 0.260207
H38   H     H_    0.992232 0.590361 0.191294 0.265632
H39   H     H_    0.068885 0.495433 0.134980 0.250470
H40   H     H_    0.189593 0.573362 0.285641 0.186856
H41   H     H_    0.151948 0.429616 0.296146 0.209466
C51   C     C_3   0.931603 0.684465 0.371404 -0.340312
C52   C     C_3   0.041592 0.770050 0.325673 -0.923923
H42   H     H_    0.087936 0.819328 0.385182 0.272481
H43   H     H_    0.113922 0.733041 0.289349 0.262650
H44   H     H_    0.003409 0.825260 0.266920 0.251202
H45   H     H_    0.869946 0.651171 0.309385 0.196485
H46   H     H_    0.871536 0.724639 0.417577 0.222272
C53   C     C_3   0.138918 0.693276 0.574554 -0.319455
C54   C     C_3   0.061993 0.773042 0.610069 -0.942777
H47   H     H_    0.125666 0.852753 0.613467 0.259930
H48   H     H_    0.981987 0.784386 0.557753 0.268688
H49   H     H_    0.025324 0.744900 0.687761 0.255216
H50   H     H_    0.200655 0.668419 0.637696 0.207845
H51   H     H_    0.202126 0.736183 0.511935 0.230064
C55   C     C_3   0.902368 0.498719 0.697995 -0.374359
C56   C     C_3   0.987311 0.463171 0.784765 -0.877443
H52   H     H_    0.966234 0.374279 0.803577 0.268282
H53   H     H_    0.090324 0.488073 0.764782 0.251744
H54   H     H_    0.967266 0.499463 0.854539 0.252850
H55   H     H_    0.887385 0.580927 0.707930 0.210329
H56   H     H_    0.807218 0.444552 0.703940 0.189843
C57   C     C_3   0.303713 0.746257 0.875379 -0.441104
C58   C     C_3   0.160794 0.702218 0.871324 -0.889336
H57   H     H_    0.140485 0.654844 0.806002 0.272695
H58   H     H_    0.127949 0.650541 0.942754 0.268144
H59   H     H_    0.106886 0.770208 0.861542 0.249862
H60   H     H_    0.311127 0.804090 0.933070 0.213627
H61   H     H_    0.337721 0.791430 0.801104 0.213408
C59   C     C_3   0.520518 0.845731 0.022059 -0.458178
C60   C     C_3   0.658992 0.891416 0.049951 -0.867058
H62   H     H_    0.671603 0.889855 0.133617 0.259424
H63   H     H_    0.725817 0.844474 0.018851 0.267059
H64   H     H_    0.684276 0.977163 0.017308 0.246052
H65   H     H_    0.516288 0.857905 0.938029 0.204534
H66   H     H_    0.455745 0.893529 0.054532 0.209839

loop_
_geom_bond_atom_site_label_1
_geom_bond_atom_site_label_2
_ccdc_geom_bond_type
C40   H4    S    
C58   H57   S    
C31   N1    A    
C34   C37   S    
C35   C36   S    
C54   H48   S    
C49   C50   S    
C7    C8    A    
C39   H8    S    
C52   H43   S    
C11   C19   A    
C37   C38   S    
C36   C37   S    
C51   H45   S    
C23   O6    A    
C59   H66   S    
C15   C16   A    
O3    Zn1   S    
C33   C36   S    
C31   H2    S    
C34   C35   S    
C32   H1    S    
C47   H34   S    
C2    C38   S    
C55   C56   S    
C51   C52   S    
C46   H26   S    
C30   H36   S    
C33   O7    A    
C17   H9    S    
C21   N2    A    
C57   H60   S    
N2    Zn2   S    
C5    C59   S    
C53   C54   S    
C8    C9    A    
C42   H13   S    
C60   H64   S    
O7    Zn1   S    
C53   H50   S    
C34   C45   S    
C41   H16   S    
C4    C12   S    
C9    C10   A    
C49   H40   S    
O4    Zn2   S    
C29   H18   S    
O1    Zn1   S    
O2    Zn2   S    
C43   H24   S    
C21   C22   A    
C35   C39   S    
C16   H17   S    
C12   O4    A    
C37   C49   S    
C54   H47   S    
C26   N2    A    
C45   C46   S    
C39   H7    S    
C56   H53   S    
C6    C18   A    
C52   H44   S    
C4    C34   S    
C2    C53   S    
C1    C19   S    
C43   C44   S    
C27   C31   A    
C24   C25   A    
C12   O3    A    
C18   H3    S    
C59   C60   S    
C5    C18   A    
C20   C28   A    
C58   H59   S    
C25   C26   A    
C21   C43   S    
O8    Zn2   S    
C47   H35   S    
C44   H20   S    
C7    H10   S    
C29   C30   A    
C3    C55   S    
C44   H21   S    
C11   C16   A    
C57   H61   S    
C1    O1    A    
C48   H32   S    
C3    C35   S    
C42   H14   S    
C55   H56   S    
C41   H15   S    
C24   H30   S    
C5    C14   A    
C49   H41   S    
C8    C41   S    
C4    C38   S    
C50   H37   S    
C7    C19   A    
C43   H23   S    
C40   H5    S    
C60   H62   S    
C22   C24   A    
C33   O8    A    
C3    C4    S    
C46   H27   S    
C48   H33   S    
C20   C32   A    
C56   H54   S    
C2    C36   S    
C6    C17   A    
C39   C40   S    
C28   C29   A    
C58   H58   S    
C23   O5    A    
C9    H11   S    
C45   H28   S    
C10   C13   A    
C38   C51   S    
C56   H52   S    
C26   C30   A    
C25   C27   A    
C50   H39   S    
C52   H42   S    
C50   H38   S    
C13   C17   A    
C53   H51   S    
C41   C42   S    
C2    C3    S    
C59   H65   S    
C51   H46   S    
C45   H29   S    
C1    O2    A    
C48   H31   S    
C57   C58   S    
O6    Zn2   S    
C6    C23   S    
C22   C47   S    
C20   H19   S    
C55   H55   S    
C42   H12   S    
C44   H22   S    
C10   C11   A    
O5    Zn1   S    
C46   H25   S    
C15   C57   S    
C40   H6    S    
C27   C28   A    
C60   H63   S    
C32   N1    A    
C14   C15   A    
C47   C48   S    
C13   C14   A    
C54   H49   S    
N1    Zn1   S    
