data_mof_unit_66067.cif
_audit_creation_date              2013-03-05T15:56:39-0500
_audit_creation_method            fapswitch 2.2
_symmetry_space_group_name_H-M    P1
_symmetry_Int_Tables_number       1
_space_group_crystal_system       triclinic
_cell_length_a                    38.645367
_cell_length_b                    21.725714
_cell_length_c                    21.714605
_cell_angle_alpha                 89.999778
_cell_angle_beta                  55.843211
_cell_angle_gamma                 89.999558
_cell_volume                      15086.679337

loop_
_atom_site_label
_atom_site_type_symbol
_atom_site_description
_atom_site_fract_x
_atom_site_fract_y
_atom_site_fract_z
_atom_type_partial_charge
O1    O     O_R   0.000010 0.447810 0.409820 -0.579783
O2    O     O_R   0.999990 0.447810 0.590180 -0.579441
O3    O     O_R   0.500010 0.947810 0.409820 -0.579721
O4    O     O_R   0.499990 0.947810 0.590180 -0.579815
O5    O     O_R   0.000010 0.552200 0.409870 -0.577426
O6    O     O_R   0.999990 0.552200 0.590130 -0.577438
O7    O     O_R   0.500010 0.052200 0.409870 -0.577581
O8    O     O_R   0.499990 0.052200 0.590130 -0.577537
C1    C     C_R   0.000037 0.500031 0.381163 0.797075
C2    C     C_R   0.999963 0.500030 0.618837 0.797467
C3    C     C_R   0.500034 0.000032 0.381159 0.797504
C4    C     C_R   0.499963 0.000031 0.618841 0.797272
O9    O     O_R   0.939540 0.447810 0.560460 -0.559343
O10   O     O_R   0.060460 0.447810 0.439540 -0.559401
O11   O     O_R   0.439540 0.947810 0.560460 -0.559420
O12   O     O_R   0.560460 0.947810 0.439540 -0.559397
O13   O     O_R   0.939550 0.552200 0.560510 -0.579641
O14   O     O_R   0.060450 0.552200 0.439490 -0.579620
O15   O     O_R   0.439550 0.052200 0.560510 -0.579581
O16   O     O_R   0.560450 0.052200 0.439490 -0.579579
C5    C     C_R   0.919867 0.500007 0.580178 0.806817
C6    C     C_R   0.080133 0.500007 0.419821 0.806825
C7    C     C_R   0.419867 0.000007 0.580179 0.806987
C8    C     C_R   0.580133 0.000007 0.419822 0.806967
Cu1   Cu    Cu3+1 0.000000 0.438200 0.500000 1.030976
Cu2   Cu    Cu3+1 0.500000 0.938200 0.500000 1.030734
Cu3   Cu    Cu3+1 1.000000 0.561810 0.500000 1.011233
Cu4   Cu    Cu3+1 0.500000 0.061810 0.500000 1.011257
C9    C     C_3   0.735703 0.472000 0.712552 -0.201135
C10   C     C_3   0.264299 0.474013 0.288487 -0.201111
C11   C     C_3   0.235701 0.974462 0.711293 -0.201121
C12   C     C_3   0.764299 0.973591 0.288280 -0.201192
C13   C     C_3   0.763922 0.530271 0.686631 -0.205811
C14   C     C_3   0.236078 0.532152 0.312172 -0.205661
C15   C     C_3   0.263921 0.032561 0.688100 -0.205612
C16   C     C_3   0.736078 0.031765 0.312428 -0.205795
H1    H     H_    0.775758 0.555908 0.634164 0.168887
H2    H     H_    0.224243 0.559329 0.363623 0.169017
H3    H     H_    0.275757 0.060073 0.636879 0.169026
H4    H     H_    0.724242 0.058626 0.364095 0.168881
H5    H     H_    0.723989 0.448781 0.682110 0.172077
H6    H     H_    0.276015 0.452429 0.319786 0.172041
H7    H     H_    0.223986 0.953243 0.679811 0.172017
H8    H     H_    0.776014 0.951666 0.319408 0.171989
H9    H     H_    0.724177 0.605743 0.779760 0.156021
H10   H     H_    0.275820 0.605517 0.216183 0.156109
H11   H     H_    0.224180 0.105449 0.784708 0.156127
H12   H     H_    0.775820 0.105577 0.217024 0.156086
C17   C     C_1   0.874970 0.499978 0.625107 -0.117448
C18   C     C_1   0.125030 0.499977 0.374897 -0.117436
C19   C     C_1   0.374970 0.999978 0.625101 -0.117441
C20   C     C_1   0.625030 0.999977 0.374897 -0.117478
C21   C     C_1   0.625050 0.499950 0.875052 -0.126346
C22   C     C_1   0.374950 0.499950 0.124950 -0.126348
C23   C     C_1   0.125050 0.999951 0.875050 -0.126376
C24   C     C_1   0.874950 0.999950 0.124950 -0.126391
C25   C     C_3   0.763316 0.442477 0.734745 0.380759
C26   C     C_3   0.236685 0.442599 0.267466 0.380810
C27   C     C_3   0.263315 0.942637 0.732045 0.380836
C28   C     C_3   0.736685 0.942565 0.267010 0.380824
C29   C     C_3   0.791362 0.499310 0.708737 0.070754
C30   C     C_3   0.208638 0.499311 0.291295 0.070742
C31   C     C_3   0.291362 0.999312 0.708697 0.070759
C32   C     C_3   0.708638 0.999309 0.291290 0.070782
C33   C     C_3   0.735746 0.468351 0.814123 -0.197753
C34   C     C_3   0.264254 0.466465 0.187132 -0.197921
C35   C     C_3   0.235746 0.966056 0.812580 -0.198010
C36   C     C_3   0.764254 0.966850 0.186868 -0.197927
C37   C     C_3   0.708624 0.499468 0.791495 0.116907
C38   C     C_3   0.291376 0.499469 0.208527 0.116895
C39   C     C_3   0.208624 0.999470 0.791467 0.116908
C40   C     C_3   0.791376 0.999468 0.208524 0.116935
C41   C     C_3   0.763966 0.526637 0.787784 -0.200884
C42   C     C_3   0.236032 0.524635 0.211236 -0.201025
C43   C     C_3   0.263968 0.024190 0.788969 -0.201080
C44   C     C_3   0.736032 0.025053 0.211434 -0.200945
C45   C     C_3   0.736026 0.557748 0.766183 -0.120046
C46   C     C_3   0.263972 0.557625 0.231603 -0.119923
C47   C     C_3   0.236027 0.057588 0.768883 -0.119860
C48   C     C_3   0.763972 0.057657 0.232063 -0.119887
C49   C     C_1   0.837258 0.499771 0.662837 0.033495
C50   C     C_1   0.162743 0.499770 0.337177 0.033544
C51   C     C_1   0.337257 0.999772 0.662819 0.033535
C52   C     C_1   0.662743 0.999770 0.337176 0.033479
C53   C     C_1   0.662761 0.499804 0.837360 -0.004759
C54   C     C_1   0.337238 0.499804 0.162648 -0.004748
C55   C     C_1   0.162762 0.999804 0.837349 -0.004780
C56   C     C_1   0.837238 0.999803 0.162647 -0.004802
H13   H     H_    0.775839 0.549295 0.818273 0.172016
H14   H     H_    0.224156 0.545649 0.179911 0.171977
H15   H     H_    0.275842 0.044839 0.820472 0.171919
H16   H     H_    0.724158 0.046411 0.180276 0.171970
H17   H     H_    0.724067 0.442169 0.866187 0.173035
H18   H     H_    0.275932 0.438752 0.136106 0.173005
H19   H     H_    0.224068 0.938011 0.863371 0.172964
H20   H     H_    0.775933 0.939452 0.135621 0.172983
C57   C     C_R   0.027482 0.540310 0.255944 -0.216220
C58   C     C_R   0.972518 0.540309 0.744056 -0.215958
C59   C     C_R   0.527122 0.040871 0.256304 -0.216055
C60   C     C_R   0.472742 0.040662 0.743835 -0.216275
H21   H     H_    0.048129 0.570136 0.261330 0.180843
H22   H     H_    0.951870 0.570136 0.738669 0.180878
H23   H     H_    0.547481 0.071085 0.262022 0.181795
H24   H     H_    0.452276 0.070740 0.738248 0.181382
C61   C     C_R   0.028011 0.542183 0.191122 0.353930
C62   C     C_R   0.971989 0.542183 0.808877 0.353948
C63   C     C_R   0.527668 0.042789 0.191458 0.353264
C64   C     C_R   0.472207 0.042559 0.808668 0.353529
C65   C     C_R   0.000213 0.503550 0.185922 -0.113615
C66   C     C_R   0.999787 0.503549 0.814078 -0.113718
C67   C     C_R   0.500218 0.003605 0.185896 -0.113526
C68   C     C_R   0.499786 0.003575 0.814091 -0.113573
C69   C     C_R   0.972991 0.464091 0.244792 -0.209736
C70   C     C_R   0.027009 0.464090 0.755208 -0.209493
C71   C     C_R   0.473350 0.963610 0.244391 -0.210275
C72   C     C_R   0.526784 0.963776 0.755456 -0.210132
H25   H     H_    0.951890 0.433996 0.241007 0.163944
H26   H     H_    0.048110 0.433995 0.758994 0.164105
H27   H     H_    0.452526 0.933116 0.240305 0.163708
H28   H     H_    0.547711 0.933427 0.759428 0.163778
C73   C     C_R   0.973528 0.461876 0.308140 -0.152034
C74   C     C_R   0.026471 0.461874 0.691860 -0.151611
C75   C     C_R   0.473891 0.961381 0.307731 -0.151245
C76   C     C_R   0.526243 0.961556 0.692115 -0.151602
H29   H     H_    0.952456 0.430974 0.353089 0.159900
H30   H     H_    0.047544 0.430972 0.646912 0.160295
H31   H     H_    0.453091 0.930059 0.352379 0.160748
H32   H     H_    0.547144 0.930388 0.647354 0.160429
C77   C     C_R   0.000478 0.500384 0.313967 -0.072393
C78   C     C_R   0.999522 0.500383 0.686033 -0.072554
C79   C     C_R   0.500481 0.000403 0.313947 -0.073284
C80   C     C_R   0.499519 0.000394 0.686047 -0.072931
O17   O     O_R   0.500010 0.409700 0.947870 -0.581442
O18   O     O_R   0.499990 0.409700 0.052130 -0.581288
O19   O     O_R   0.000010 0.909700 0.947870 -0.581439
O20   O     O_R   0.999990 0.909700 0.052130 -0.581509
C81   C     C_R   0.500002 0.381107 0.999998 0.822541
C82   C     C_R   1.000000 0.881102 0.000000 0.822583
O21   O     O_R   0.560470 0.499890 0.887380 -0.584825
O22   O     O_R   0.439530 0.499890 0.112620 -0.584661
O23   O     O_R   0.060470 0.999890 0.887380 -0.584620
O24   O     O_R   0.939530 0.999890 0.112620 -0.584740
O25   O     O_R   0.560460 0.499990 0.991770 -0.564873
O26   O     O_R   0.439540 0.499990 0.008230 -0.565030
O27   O     O_R   0.060460 0.999990 0.991770 -0.565066
O28   O     O_R   0.939540 0.999990 0.008230 -0.564956
C83   C     C_R   0.580151 0.500007 0.919909 0.827629
C84   C     C_R   0.419849 0.500007 0.080091 0.827622
C85   C     C_R   0.080151 0.000006 0.919909 0.827674
C86   C     C_R   0.919849 0.000006 0.080091 0.827667
Cu5   Cu    Cu3+1 0.500010 0.499870 0.938220 1.033446
Cu6   Cu    Cu3+1 0.499990 0.499870 0.061780 1.033855
Cu7   Cu    Cu3+1 0.000010 0.999870 0.938220 1.033748
Cu8   Cu    Cu3+1 0.999990 0.999870 0.061780 1.033412
O29   O     O_R   0.500010 0.590060 0.947790 -0.564678
O30   O     O_R   0.499990 0.590060 0.052210 -0.564612
O31   O     O_R   0.000010 0.090060 0.947790 -0.564581
O32   O     O_R   0.999990 0.090060 0.052210 -0.564692
C87   C     C_R   0.500000 0.618638 1.000000 0.912106
C88   C     C_R   0.000000 0.118638 1.000000 0.912133
O33   O     O_R   0.034970 0.409720 0.965020 -0.600037
O34   O     O_R   0.965030 0.409720 0.034980 -0.600065
O35   O     O_R   0.534970 0.909720 0.965020 -0.600096
O36   O     O_R   0.465030 0.909720 0.034980 -0.600049
C89   C     C_R   0.000000 0.380686 1.000000 0.799027
C90   C     C_R   0.500000 0.880686 1.000000 0.798974
O37   O     O_R   0.034990 0.499890 0.055220 -0.567118
O38   O     O_R   0.965010 0.499890 0.944780 -0.567047
O39   O     O_R   0.534990 0.999890 0.055220 -0.567442
O40   O     O_R   0.465010 0.999890 0.944780 -0.567361
O41   O     O_R   0.965000 0.499930 0.125200 -0.570302
O42   O     O_R   0.035000 0.499930 0.874800 -0.570246
O43   O     O_R   0.465000 0.999930 0.125200 -0.570014
O44   O     O_R   0.535000 0.999930 0.874800 -0.570149
C91   C     C_R   0.000056 0.501493 0.119087 0.857660
C92   C     C_R   0.999944 0.501492 0.880913 0.857728
C93   C     C_R   0.500057 0.001519 0.119078 0.858133
C94   C     C_R   0.499944 0.001504 0.880918 0.857819
Cu9   Cu    Cu3+1 0.041440 0.499890 0.958590 1.083449
Cu10  Cu    Cu3+1 0.958560 0.499890 0.041410 1.083444
Cu11  Cu    Cu3+1 0.541440 0.999890 0.958590 1.083179
Cu12  Cu    Cu3+1 0.458560 0.999890 0.041410 1.083443
O45   O     O_R   0.035030 0.590070 0.965060 -0.535420
O46   O     O_R   0.964970 0.590070 0.034940 -0.535399
O47   O     O_R   0.535030 0.090070 0.965060 -0.535128
O48   O     O_R   0.464970 0.090070 0.034940 -0.535261
C95   C     C_R   1.000000 0.619020 0.000000 0.967168
C96   C     C_R   0.499999 0.119024 0.000001 0.967860
C97   C     C_R   0.472935 0.282843 0.066016 -0.203052
C98   C     C_R   0.527060 0.282837 0.933982 -0.203069
C99   C     C_R   0.973095 0.782823 0.066097 -0.203099
C100  C     C_R   0.026904 0.782823 0.933903 -0.203082
H33   H     H_    0.452198 0.308219 0.116991 0.188017
H34   H     H_    0.547795 0.308209 0.883001 0.187894
H35   H     H_    0.952482 0.808194 0.117136 0.188199
H36   H     H_    0.047518 0.808193 0.882865 0.188255
C101  C     C_R   0.972575 0.718698 0.067123 0.321530
C102  C     C_R   0.027425 0.718698 0.932877 0.321446
C103  C     C_R   0.472404 0.218720 0.067043 0.321844
C104  C     C_R   0.527579 0.218714 0.932960 0.321861
C105  C     C_R   1.000000 0.686132 0.000000 -0.240639
C106  C     C_R   0.499994 0.186144 0.000004 -0.240262
C107  C     C_R   0.500001 0.314529 0.999999 -0.134478
C108  C     C_R   1.000000 0.814517 0.000000 -0.134794
C109  C     C_R   0.532924 0.717199 0.995818 0.343716
C110  C     C_R   0.467077 0.717200 0.004181 0.343746
C111  C     C_R   0.032925 0.217199 0.995812 0.343746
C112  C     C_R   0.967075 0.217199 0.004186 0.343728
C113  C     C_R   0.032898 0.281632 0.994987 -0.268487
C114  C     C_R   0.967102 0.281633 0.005011 -0.268449
C115  C     C_R   0.532897 0.781632 0.994993 -0.268542
C116  C     C_R   0.467104 0.781633 0.005005 -0.268518
H37   H     H_    0.058187 0.306748 0.991452 0.159475
H38   H     H_    0.941814 0.306749 0.008546 0.159547
H39   H     H_    0.558184 0.806748 0.991463 0.159447
H40   H     H_    0.441817 0.806750 0.008536 0.159432
C117  C     C_R   0.000000 0.313673 0.999999 -0.095299
C118  C     C_R   0.500000 0.813673 0.999999 -0.095264
C119  C     C_R   0.500000 0.685425 0.999999 -0.084080
C120  C     C_R   0.000000 0.185424 0.999999 -0.084098
N1    N     N_R   0.944751 0.687868 0.136900 0.142713
O49   O     O_R   0.958093 0.642576 0.157443 -0.328610
O50   O     O_R   0.908000 0.710968 0.184952 -0.318058
N2    N     N_R   0.055248 0.687868 0.863100 0.142731
O51   O     O_R   0.041906 0.642576 0.842557 -0.328539
O52   O     O_R   0.092000 0.710967 0.815048 -0.317813
N3    N     N_R   0.444384 0.187907 0.136743 0.142843
O53   O     O_R   0.457585 0.142704 0.157666 -0.327815
O54   O     O_R   0.407558 0.210970 0.184415 -0.317735
N4    N     N_R   0.555566 0.187891 0.863255 0.142770
O55   O     O_R   0.542324 0.142721 0.842363 -0.328106
O56   O     O_R   0.592399 0.210916 0.815554 -0.318204
O57   O     O_3   0.564935 0.684375 0.991224 -0.724481
H41   H     H_    0.585486 0.713632 0.988385 0.332507
O58   O     O_3   0.435065 0.684377 0.008774 -0.724537
H42   H     H_    0.414515 0.713635 0.011614 0.332445
O59   O     O_3   0.064939 0.184375 0.991213 -0.724533
H43   H     H_    0.085490 0.213632 0.988369 0.332467
O60   O     O_3   0.935062 0.184377 0.008786 -0.724456
H44   H     H_    0.914510 0.213635 0.011629 0.332569
N5    N     N_R   0.777335 0.378704 0.718429 0.128772
O61   O     O_R   0.749948 0.334498 0.744230 -0.313988
O62   O     O_R   0.816991 0.365501 0.678284 -0.333981
N6    N     N_R   0.222668 0.378962 0.286231 0.128732
O63   O     O_R   0.250057 0.334850 0.262124 -0.313935
O64   O     O_R   0.183013 0.365788 0.326887 -0.334203
N7    N     N_R   0.277332 0.879042 0.712742 0.128716
O65   O     O_R   0.249945 0.834958 0.736478 -0.314057
O66   O     O_R   0.316988 0.865877 0.671973 -0.334278
N8    N     N_R   0.722668 0.878892 0.285268 0.128718
O67   O     O_R   0.750055 0.834754 0.260808 -0.314078
O68   O     O_R   0.683012 0.865710 0.325819 -0.334205
N9    N     N_R   0.056124 0.584111 0.132675 0.132439
O69   O     O_R   0.043934 0.615546 0.097153 -0.322865
O70   O     O_R   0.092043 0.597259 0.121700 -0.337197
N10   N     N_R   0.943875 0.584112 0.867325 0.132486
O71   O     O_R   0.956065 0.615547 0.902846 -0.322826
O72   O     O_R   0.907956 0.597260 0.878299 -0.336867
N11   N     N_R   0.555425 0.085305 0.133419 0.132677
O73   O     O_R   0.543294 0.115626 0.097096 -0.323811
O74   O     O_R   0.590824 0.100135 0.123641 -0.336741
N12   N     N_R   0.444328 0.084861 0.866859 0.132522
O75   O     O_R   0.456527 0.115660 0.902782 -0.323635
O76   O     O_R   0.408698 0.099005 0.877185 -0.337080

loop_
_geom_bond_atom_site_label_1
_geom_bond_atom_site_label_2
_geom_bond_distance
_ccdc_geom_bond_type
C65   C69   1.402016 A    
C8    C20   1.435797 S    
O19   C82   1.291091 A    
C59   H23   1.083984 S    
C1    C77   1.449627 S    
C26   C30   1.526713 S    
C112  C114  1.399975 A    
C110  C116  1.399978 A    
O35   Cu11  1.969906 S    
C37   C45   1.540498 S    
O60   H44   0.991759 S    
O17   Cu5   1.970180 S    
C61   N9    1.439638 S    
O24   C86   1.296405 A    
O26   C84   1.296398 A    
C13   C45   1.552875 S    
N2    O51   1.300528 A    
O22   C84   1.296405 A    
O18   C81   1.291050 A    
C5    C17   1.435797 S    
O58   H42   0.991759 S    
O23   C85   1.296400 A    
C12   C40   1.541227 S    
C34   C38   1.541227 S    
Cu11  Cu12  2.650437 S    
C97   C107  1.392573 A    
O17   C81   1.291044 A    
O2    C2    1.293706 A    
O21   C83   1.296402 A    
C111  C120  1.404958 A    
C36   H20   1.110127 S    
C114  C117  1.399067 A    
C11   H7    1.110129 S    
O40   C94   1.282418 A    
C100  H36   1.084116 S    
C22   C84   1.435841 S    
Cu8   O32   1.970430 S    
O26   Cu5   1.944957 S    
C101  N1    1.439127 S    
Cu7   O31   1.970432 S    
N9    O69   1.300503 A    
C98   C107  1.392581 A    
C24   C56   1.205991 T    
C35   C39   1.541226 S    
C38   C46   1.540492 S    
C115  H39   1.083737 S    
C109  C115  1.399975 A    
C11   C27   1.536201 S    
C34   C42   1.555510 S    
C9    C13   1.555485 S    
C21   C83   1.435841 S    
C35   C43   1.555517 S    
C33   C41   1.555521 S    
N6    O63   1.300224 A    
O44   Cu11  1.969998 S    
C63   N11   1.440189 S    
N5    O61   1.300231 A    
Cu12  O48   1.969919 S    
C17   C49   1.206009 T    
C109  O57   1.382145 S    
C20   C52   1.206012 T    
N3    O53   1.300526 A    
C32   C52   1.467733 S    
O7    C3    1.293288 A    
C25   N5    1.457098 S    
C57   C77   1.397312 A    
C27   C35   1.536225 S    
O5    Cu3   1.968029 S    
C7    C19   1.435797 S    
C15   C31   1.542398 S    
C26   C34   1.536217 S    
C60   H24   1.083989 S    
O41   C91   1.285381 A    
Cu6   O30   1.970432 S    
N10   O72   1.301463 A    
C103  C106  1.419142 A    
Cu10  O46   1.969921 S    
Cu5   Cu6   2.682621 S    
C101  C105  1.419035 A    
C116  H40   1.083736 S    
C100  C102  1.393291 A    
O4    C4    1.293766 A    
O38   Cu10  1.969168 S    
C72   C76   1.388116 A    
O57   H41   0.991762 S    
O44   C94   1.285338 A    
O34   Cu10  1.969902 S    
O6    Cu3   1.968024 S    
C36   C40   1.541226 S    
C34   H18   1.110111 S    
C57   C61   1.396797 A    
C66   C92   1.455399 S    
O7    Cu4   1.968029 S    
O11   C7    1.296842 A    
C12   C16   1.555485 S    
C30   C50   1.467732 S    
O12   C8    1.296842 A    
N1    O50   1.301419 A    
O28   C86   1.296398 A    
O59   H43   0.991761 S    
O40   Cu12  1.969168 S    
O48   C96   1.284733 A    
O1    Cu1   1.969105 S    
C21   C53   1.205991 T    
O9    Cu1   1.944701 S    
C82   C108  1.446607 S    
C59   C63   1.397002 A    
O36   Cu12  1.969902 S    
C112  O60   1.382148 S    
O39   C93   1.282364 A    
Cu2   Cu4   2.685516 S    
C40   C56   1.466671 S    
C76   C80   1.395957 A    
C23   C85   1.435841 S    
C9    C37   1.541227 S    
N7    O66   1.300250 A    
C100  C108  1.392650 A    
C89   C117  1.455914 S    
C60   C64   1.396930 A    
C71   C75   1.388090 A    
C42   H14   1.110074 S    
C10   C14   1.555477 S    
C98   C104  1.393260 A    
O13   Cu3   1.944388 S    
Cu9   O45   1.969919 S    
O16   C8    1.296911 A    
C16   H4    1.110080 S    
O35   C90   1.283944 A    
O1    C1    1.293709 A    
C64   N12   1.439923 S    
O20   C82   1.291089 A    
C16   C48   1.552875 S    
O22   Cu6   1.944602 S    
C22   C54   1.205991 T    
N9    O70   1.301464 A    
Cu11  O47   1.969919 S    
O15   C7    1.296911 A    
O47   C96   1.284800 A    
N12   O76   1.301525 A    
C81   C107  1.446437 S    
C29   C41   1.542411 S    
N8    O67   1.300232 A    
C114  H38   1.083737 S    
H12   C48   1.110072 S    
O29   C87   1.292406 A    
H10   C46   1.110052 S    
O13   C5    1.296911 A    
C39   C47   1.540496 S    
C72   H28   1.083800 S    
C31   C51   1.467733 S    
C110  O58   1.382150 S    
N5    O62   1.300253 A    
C14   H2    1.110061 S    
C74   H30   1.083528 S    
O25   C83   1.296396 A    
C90   C118  1.455912 S    
C2    C78   1.449627 S    
C73   H29   1.083529 S    
N1    O49   1.300528 A    
O45   C95   1.284720 A    
N4    O56   1.301410 A    
O34   C89   1.283946 A    
O20   Cu8   1.970183 S    
C75   H31   1.083531 S    
C112  C120  1.404959 A    
O43   C93   1.285353 A    
O8    C4    1.293277 A    
O18   Cu6   1.970181 S    
N10   O71   1.300505 A    
C58   C78   1.397310 A    
C102  C105  1.419036 A    
C65   C91   1.455400 S    
H9    C45   1.110070 S    
C32   C44   1.542411 S    
O9    C5    1.296842 A    
O24   Cu8   1.944602 S    
C26   N6    1.457078 S    
O15   Cu4   1.944388 S    
O39   Cu11  1.969162 S    
C70   H26   1.083756 S    
C44   H16   1.110083 S    
C69   H25   1.083755 S    
O27   Cu8   1.944960 S    
O42   Cu9   1.969998 S    
C13   C29   1.542396 S    
O25   Cu6   1.944960 S    
N3    O54   1.301421 A    
C35   H19   1.110127 S    
C9    C25   1.536200 S    
O37   Cu9   1.969162 S    
O31   C88   1.292404 A    
C87   C119  1.450991 S    
C103  N3    1.439111 S    
O37   C91   1.282464 A    
O33   C89   1.283942 A    
C102  N2    1.439125 S    
O8    Cu4   1.968024 S    
C39   C55   1.466671 S    
O41   Cu10  1.969993 S    
C15   C47   1.552876 S    
O33   Cu9   1.969906 S    
C99   C108  1.392650 A    
C12   C28   1.536203 S    
C24   C86   1.435841 S    
N11   O73   1.300404 A    
C38   C54   1.466671 S    
C14   C30   1.542396 S    
C19   C51   1.206012 T    
C76   H32   1.083552 S    
C68   C72   1.401999 A    
C37   C53   1.466674 S    
C18   C50   1.206012 T    
C68   C94   1.455244 S    
C62   C66   1.416880 A    
C64   C68   1.417041 A    
C27   C31   1.526723 S    
O38   C92   1.282463 A    
C115  C118  1.399064 A    
C61   C65   1.416876 A    
C109  C119  1.404965 A    
C4    C80   1.449794 S    
C43   C47   1.552882 S    
C75   C79   1.395927 A    
O14   C6    1.296911 A    
C63   C67   1.417201 A    
O30   C87   1.292405 A    
C10   H6    1.110119 S    
O14   Cu3   1.944382 S    
C99   C101  1.393293 A    
C25   C33   1.536228 S    
O11   Cu2   1.944701 S    
O12   Cu2   1.944701 S    
N2    O52   1.301420 A    
C97   C103  1.393263 A    
O43   Cu12  1.969993 S    
O4    Cu2   1.969105 S    
C44   C48   1.552885 S    
C60   C80   1.397389 A    
C25   C29   1.526724 S    
N12   O75   1.300542 A    
C43   H15   1.110085 S    
C110  C119  1.404955 A    
C36   C44   1.555520 S    
O3    Cu2   1.969105 S    
O16   Cu4   1.944382 S    
C95   C105  1.458067 S    
C71   H27   1.083785 S    
Cu5   O29   1.970434 S    
C58   C62   1.396793 A    
O46   C95   1.284719 A    
C6    C18   1.435797 S    
C113  H37   1.083739 S    
C28   C32   1.526725 S    
C28   C36   1.536228 S    
C113  C117  1.399063 A    
C66   C70   1.402013 A    
O10   C6    1.296842 A    
O36   C90   1.283942 A    
C73   C77   1.395937 A    
C3    C79   1.449887 S    
C111  C113  1.399977 A    
C40   C48   1.540497 S    
N11   O74   1.301615 A    
C58   H22   1.083997 S    
H11   C47   1.110070 S    
C14   C46   1.552869 S    
O32   C88   1.292404 A    
O23   Cu7   1.944606 S    
C88   C120  1.450989 S    
O28   Cu7   1.944957 S    
C31   C43   1.542409 S    
C104  N4    1.439086 S    
C33   C37   1.541227 S    
C15   H3    1.110077 S    
C10   C26   1.536198 S    
O21   Cu5   1.944606 S    
C33   H17   1.110125 S    
N6    O64   1.300248 A    
C13   H1    1.110080 S    
O2    Cu1   1.969105 S    
C11   C15   1.555484 S    
O10   Cu1   1.944701 S    
C23   C55   1.205991 T    
N4    O55   1.300536 A    
C27   N7    1.457097 S    
C99   H35   1.084114 S    
C9    H5    1.110127 S    
O3    C3    1.293800 A    
O6    C2    1.293255 A    
C98   H34   1.084126 S    
C41   H13   1.110077 S    
Cu9   Cu10  2.650437 S    
C70   C74   1.388166 A    
C97   H33   1.084125 S    
C10   C38   1.541220 S    
C69   C73   1.388165 A    
C12   H8    1.110131 S    
C67   C71   1.401978 A    
C42   C46   1.552883 S    
C67   C93   1.455139 S    
C41   C45   1.552886 S    
C62   N10   1.439638 S    
C30   C42   1.542402 S    
C96   C106  1.458226 S    
C29   C49   1.467733 S    
O5    C1    1.293253 A    
C59   C79   1.397371 A    
O27   C85   1.296398 A    
Cu7   Cu8   2.682621 S    
C16   C32   1.542395 S    
C111  O59   1.382149 S    
N8    O68   1.300253 A    
C74   C78   1.395939 A    
C104  C106  1.419098 A    
C57   H21   1.083996 S    
O19   Cu7   1.970182 S    
O42   C92   1.285378 A    
N7    O65   1.300233 A    
C11   C39   1.541227 S    
C116  C118  1.399064 A    
Cu1   Cu3   2.685516 S    
C28   N8    1.457099 S    
