data_mof_unit_26366.cif
_audit_creation_date              2012-12-11T21:01:57-0500
_audit_creation_method            fapswitch 2.2
_symmetry_space_group_name_H-M    P1
_symmetry_Int_Tables_number       1
_space_group_crystal_system       triclinic
_cell_length_a                    8.234425
_cell_length_b                    18.780864
_cell_length_c                    22.905041
_cell_angle_alpha                 100.023813
_cell_angle_beta                  89.998735
_cell_angle_gamma                 91.569209
_cell_volume                      3486.83636879

loop_
_atom_site_label
_atom_site_type_symbol
_atom_type_description
_atom_site_fract_x
_atom_site_fract_y
_atom_site_fract_z
_atom_type_partial_charge
Ba1   Ba    Ba6+2 0.157800 0.534120 0.474430 1.702229
Ba2   Ba    Ba6+2 0.652390 0.465870 0.525520 1.690910
C1    C     C_3   0.356675 0.703687 0.262633 -0.307051
C2    C     C_R   0.088388 0.904397 0.552634 0.038008
C3    C     C_R   0.241677 0.927415 0.576680 -0.090920
C4    C     C_3   0.912284 0.727436 0.354821 0.348120
C5    C     C_R   0.303287 0.996901 0.574189 -0.094369
C6    C     C_R   0.212077 0.045123 0.548080 0.030529
C7    C     C_R   0.059474 0.022230 0.522588 0.008958
C8    C     C_R   0.270243 0.116068 0.548197 -0.114780
C9    C     C_R   0.176437 0.166035 0.524476 -0.049896
C10   C     C_R   0.024991 0.142554 0.497034 0.001312
C11   C     C_R   0.967692 0.070305 0.495949 -0.014800
C12   C     C_3   0.388471 0.685133 0.323535 0.334224
C13   C     C_R   0.226903 0.239399 0.528754 0.038683
C14   C     C_R   0.124903 0.288103 0.508531 -0.228824
C15   C     C_R   0.981620 0.265365 0.477788 0.034374
C16   C     C_3   0.934597 0.802891 0.339952 -0.350238
C17   C     C_R   0.929873 0.191329 0.471314 -0.042683
C18   C     C_R   0.845663 0.928021 0.499104 -0.005420
C19   C     C_R   0.786049 0.856425 0.499784 -0.004113
C20   C     C_R   0.879929 0.808105 0.526598 -0.053194
C21   C     C_R   0.025845 0.834867 0.555819 -0.037975
C22   C     C_R   0.784765 0.164665 0.441420 -0.042118
C23   C     C_3   0.485091 0.688383 0.623147 0.432213
C24   C     C_R   0.724275 0.094347 0.442933 0.040978
C25   C     C_R   0.815557 0.046909 0.470374 0.025131
C26   C     C_R   0.754223 0.976022 0.472202 0.019455
C27   C     C_R   0.571544 0.071180 0.418388 -0.078626
C28   C     C_3   0.824077 0.376851 0.344364 0.280694
C29   C     C_R   0.509946 0.001642 0.420964 -0.088858
C30   C     C_R   0.600825 0.953455 0.447343 0.030235
C31   C     C_R   0.632958 0.833395 0.473477 -0.037332
C32   C     C_R   0.540709 0.883102 0.448725 -0.103477
C33   C     C_R   0.577905 0.761082 0.472336 -0.000761
C34   C     C_3   0.509351 0.769066 0.646108 0.208788
C35   C     C_R   0.674554 0.713458 0.496579 -0.328767
C36   C     C_R   0.824910 0.734733 0.522822 0.036707
C37   C     C_R   0.631564 0.530856 0.334531 0.101270
C38   C     C_R   0.357681 0.562369 0.948671 -0.102751
C39   C     C_R   0.307781 0.558773 0.889173 0.604446
C40   C     C_3   0.812552 0.356891 0.277198 -0.372337
C41   C     C_R   0.279526 0.429467 0.876719 0.598563
C42   C     C_R   0.331493 0.431125 0.935785 -0.007057
C43   C     C_R   0.370108 0.498181 0.972062 -0.054948
C44   C     C_R   0.393689 0.628899 0.985335 -0.044948
C45   C     C_3   0.841002 0.277446 0.647900 0.532316
C46   C     C_R   0.438933 0.632777 0.044634 0.404486
C47   C     C_R   0.460143 0.568177 0.068207 -0.092442
C48   C     C_R   0.422550 0.500927 0.031699 -0.094062
C49   C     C_R   0.347205 0.367230 0.959210 -0.066636
C50   C     C_R   0.401095 0.369669 0.017337 -0.066579
C51   C     C_R   0.439360 0.436130 0.054210 -0.030300
C52   C     C_3   0.999643 0.632529 0.658354 0.301236
C53   C     C_R   0.493271 0.439030 0.113140 0.677786
C54   C     C_R   0.520429 0.568400 0.126353 0.582398
C55   C     C_2   0.069390 0.474697 0.773051 -0.071817
C56   C     C_3   0.814028 0.206752 0.671351 0.672361
C57   C     C_3   0.022445 0.482502 0.710090 -0.053591
C58   C     C_1   0.305760 0.510618 0.693876 0.010254
C59   C     C_2   0.349097 0.509519 0.749351 -0.082849
C60   C     C_2   0.224629 0.490512 0.792325 0.221139
C61   C     C_R   0.713186 0.542546 0.234948 -0.197849
C62   C     C_R   0.746125 0.553212 0.295681 -0.076815
C63   C     C_R   0.497354 0.487193 0.312507 -0.040877
C64   C     C_3   0.038309 0.663158 0.723078 -0.339407
C65   C     C_R   0.460937 0.477398 0.250448 0.294377
C66   C     C_R   0.567098 0.508121 0.211961 0.211033
C67   C     C_3   0.319547 0.298596 0.671511 0.324517
C68   C     C_2   0.171094 0.477873 0.671156 -0.285115
C69   C     C_3   0.286152 0.309394 0.378919 0.679482
C70   C     C_3   0.212505 0.241245 0.341363 -0.227331
C71   C     C_3   0.277367 0.258933 0.722144 -0.285423
C72   C     C_R   0.998044 0.951388 0.524470 0.012199
H1    H     H_    0.309154 0.637925 0.328451 0.100638
H2    H     H_    0.133779 0.255904 0.306179 0.074287
H3    H     H_    0.138451 0.210269 0.369320 0.041640
H4    H     H_    0.310201 0.206200 0.320121 0.109131
H5    H     H_    0.517722 0.670834 0.326345 -0.056600
H6    H     H_    0.346211 0.653149 0.229541 0.114952
H7    H     H_    0.604544 0.666235 0.608107 -0.087024
H8    H     H_    0.398973 0.680713 0.585114 0.027159
H9    H     H_    0.605694 0.777259 0.680941 0.057865
H10   H     H_    0.548968 0.796694 0.609141 -0.041720
H11   H     H_    0.457365 0.738636 0.250267 0.133965
H12   H     H_    0.785701 0.405020 0.257535 0.063219
H13   H     H_    0.871429 0.842606 0.373208 0.071285
H14   H     H_    0.725975 0.291114 0.628238 0.103399
H15   H     H_    0.935156 0.269800 0.612864 -0.212668
H16   H     H_    0.931836 0.190813 0.688825 -0.062610
H17   H     H_    0.204817 0.303852 0.647208 -0.057770
H18   H     H_    0.368915 0.353486 0.689997 0.061274
H19   H     H_    0.173479 0.284971 0.747421 0.142412
H20   H     H_    0.383430 0.260299 0.752285 0.176440
H21   H     H_    0.967875 0.727606 0.399064 0.068632
H22   H     H_    0.242194 0.201760 0.704313 0.095910
H23   H     H_    0.929711 0.335207 0.258951 0.127591
H24   H     H_    0.314862 0.891437 0.596999 0.099419
H25   H     H_    0.421805 0.013185 0.593299 0.100513
H26   H     H_    0.161920 0.344627 0.514358 0.044170
H27   H     H_    0.387451 0.132097 0.568263 0.141401
H28   H     H_    0.714135 0.198521 0.418174 0.125067
H29   H     H_    0.498652 0.107207 0.397762 0.086560
H30   H     H_    0.391242 0.985415 0.402011 0.075106
H31   H     H_    0.421777 0.867745 0.429998 0.114009
H32   H     H_    0.779846 0.714927 0.356511 -0.069140
H33   H     H_    0.629491 0.658885 0.496658 0.093675
H34   H     H_    0.112055 0.612543 0.635704 0.019530
H35   H     H_    0.412119 0.319076 0.033424 0.125140
H36   H     H_    0.318855 0.314895 0.932473 0.123266
H37   H     H_    0.801087 0.561220 0.205437 0.144370
H38   H     H_    0.381725 0.679041 0.968581 0.152000
H39   H     H_    0.976012 0.463193 0.803822 0.092485
H40   H     H_    0.065766 0.818363 0.340302 0.138245
H41   H     H_    0.167297 0.449071 0.625694 0.065803
H42   H     H_    0.882753 0.804338 0.295429 0.131678
H43   H     H_    0.705217 0.395642 0.362185 0.050084
H44   H     H_    0.917110 0.420855 0.355812 0.079575
H45   H     H_    0.907981 0.587700 0.655744 0.028255
H46   H     H_    0.714330 0.315350 0.264546 0.149375
H47   H     H_    0.924484 0.679163 0.747278 0.112753
H48   H     H_    0.405223 0.333376 0.451702 0.310654
H49   H     H_    0.390082 0.848500 0.688788 0.300816
H50   H     H_    0.849913 0.129501 0.605187 0.267755
H51   H     H_    0.696567 0.171935 0.734273 0.308665
H52   H     H_    0.094871 0.801802 0.580322 0.134201
H53   H     H_    0.396754 0.700746 0.115442 0.327460
H54   H     H_    0.472767 0.523795 0.764181 0.100012
H55   H     H_    0.272138 0.412890 0.254080 0.319858
H56   H     H_    0.120821 0.711434 0.725924 0.187202
H57   H     H_    0.674376 0.602907 0.402011 0.269770
H58   H     H_    0.099072 0.623009 0.744932 0.078283
H59   H     H_    0.185325 0.342518 0.399681 -0.059493
H60   H     H_    0.241072 0.732618 0.262280 0.148459
N1    N     N_R   0.269325 0.492824 0.853991 -0.427159
N2    N     N_R   0.526537 0.504884 0.149438 -0.407663
O1    O     O_2   0.110690 0.676100 0.539200 -0.469150
O2    O     O_2   0.689674 0.436896 0.700035 -0.486521
O3    O     O_3   0.892583 0.331956 0.694691 -0.636333
O4    O     O_3   0.863220 0.586720 0.534720 -0.462741
O5    O     O_3   0.450900 0.461390 0.429220 -0.423310
O6    O     O_2   0.599830 0.538970 0.641850 -0.466939
O7    O     O_3   0.423050 0.654960 0.668977 -0.627019
O8    O     O_2   0.569533 0.242321 0.530771 -0.465486
O9    O     O_3   0.438114 0.259946 0.635894 -0.575267
O10   O     O_2   0.297604 0.614430 0.868708 -0.585872
O11   O     O_2   0.244949 0.371589 0.845346 -0.609182
O12   O     O_3   0.380888 0.345558 0.342078 -0.655123
O13   O     O_2   0.512890 0.382797 0.131921 -0.561650
O14   O     O_2   0.570338 0.624991 0.156183 -0.590422
O15   O     O_3   0.368310 0.629070 0.432760 -0.465448
O16   O     O_2   0.238890 0.755795 0.473286 -0.493025
O17   O     O_3   0.936430 0.688029 0.632981 -0.638801
O18   O     O_3   0.352686 0.744922 0.366931 -0.614003
O19   O     O_2   0.210480 0.460990 0.358130 -0.498114
O20   O     O_3   0.959520 0.592090 0.401630 -0.460596
O21   O     O_2   0.083683 0.543816 0.295161 -0.470813
O22   O     O_3   0.385902 0.288980 0.421976 -0.746672
O23   O     O_3   0.988904 0.677521 0.311314 -0.599838
O24   O     O_3   0.363488 0.797959 0.669664 -0.721777
O25   O     O_3   0.754049 0.152789 0.625655 -0.731607
O26   O     O_3   0.700678 0.217229 0.717473 -0.685152
O27   O     O_3   0.457773 0.700854 0.078162 -0.682103
O28   O     O_3   0.322709 0.440743 0.225843 -0.680616
O29   O     O_3   0.651201 0.550169 0.394655 -0.681041
O30   O     O_2   0.699610 0.323860 0.460780 -0.439029
O31   O     O_3   0.947090 0.413280 0.465240 -0.486954
O32   O     O_3   0.442000 0.370930 0.567190 -0.489233
O33   O     O_3   0.866715 0.315282 0.366771 -0.648961
O34   O     O_3   0.359410 0.538600 0.570730 -0.477407
O35   O     O_3   0.850780 0.407910 0.598320 -0.490117
P1    P     P_3+3 0.935930 0.665430 0.555670 0.996510
P2    P     P_3+3 0.382700 0.439650 0.365620 1.019762
P3    P     P_3+3 0.944852 0.590426 0.325201 0.976439
P4    P     P_3+3 0.874370 0.334570 0.444280 0.992861
P5    P     P_3+3 0.861188 0.417041 0.675744 0.967557
P6    P     P_3+3 0.384875 0.722913 0.437157 0.933935
P7    P     P_3+3 0.417689 0.561226 0.645353 0.957847
P8    P     P_3+3 0.420127 0.277448 0.563730 0.975766

loop_
_geom_bond_atom_site_label_1
_geom_bond_atom_site_label_2
_ccdc_geom_bond_type
C33   P6    S    
O5    P2    S    
C13   P8    S    
C1    H11   S    
C67   O9    S    
H51   O26   S    
C71   H19   S    
C70   H2    S    
C16   H40   S    
C52   O17   S    
C4    O23   S    
C5    C6    A    
C46   O27   S    
C42   C43   A    
C38   C44   A    
C37   C62   A    
O20   P3    S    
O30   P4    D    
C35   C36   A    
C5    H25   S    
O34   P7    S    
C43   C48   A    
C57   C68   S    
C33   C35   A    
C22   C24   A    
C35   H33   S    
C44   H38   S    
C3    H24   S    
O15   P6    S    
C19   C31   A    
H49   O24   S    
Ba1   O31   S    
C34   H9    S    
C58   P7    S    
C13   C14   A    
C20   C36   A    
Ba1   O34   S    
C27   H29   S    
Ba1   Ba2   S    
O7    P7    S    
O16   P6    D    
Ba1   O19   S    
C7    C11   A    
O1    P1    D    
C70   H4    S    
C31   C33   A    
C9    C13   A    
C65   O28   S    
C39   O10   D    
C14   C15   A    
C63   C65   A    
O23   P3    S    
C67   C71   S    
C40   H12   S    
C67   H18   S    
Ba2   O30   S    
C2    C72   A    
O21   P3    D    
O19   P2    D    
C69   O12   S    
O4    P1    S    
C19   C20   A    
C12   O18   S    
C23   H7    S    
C37   C63   A    
O3    P5    S    
C23   O7    S    
C71   H20   S    
C1    H6    S    
O17   P1    S    
C26   C30   A    
C54   N2    Am   
C53   O13   D    
C64   H58   S    
C51   C53   A    
O33   P4    S    
C38   C43   A    
C4    C16   S    
C44   C46   A    
C48   C51   A    
C49   C50   A    
C66   N2    S    
Ba1   O5    S    
C57   P5    S    
C40   H23   S    
C16   H42   S    
C3    C5    A    
C2    C21   A    
C6    C7    A    
C55   H39   S    
C18   C26   A    
C55   C60   D    
C65   C66   A    
H55   O28   S    
C58   C59   D    
C30   C32   A    
C60   N1    S    
C37   O29   S    
Ba1   O20   S    
C41   C42   A    
C28   O33   S    
C70   H3    S    
Ba2   P4    S    
C29   C30   A    
O8    P8    D    
C58   C68   D    
Ba1   P2    S    
O9    P8    S    
C31   C32   A    
H48   O22   S    
C64   H47   S    
C18   C72   A    
C4    H21   S    
C12   H5    S    
C10   C11   A    
C41   N1    Am   
C56   H16   S    
Ba1   O4    S    
Ba2   O34   S    
C21   H52   S    
C42   C49   A    
C46   C47   A    
C45   H15   S    
C49   H36   S    
C24   C25   A    
C23   H8    S    
Ba2   O6    S    
C55   C57   S    
C7    C72   A    
C54   O14   D    
C56   O26   S    
Ba2   O32   S    
C39   N1    Am   
Ba1   O1    S    
C50   C51   A    
O31   P4    S    
H50   O25   S    
C69   O22   S    
C61   C66   A    
C38   C39   A    
H53   O27   S    
C63   P2    S    
C32   H31   S    
C28   C40   S    
C8    H27   S    
C14   H26   S    
O12   P2    S    
C2    C3    A    
C69   H59   S    
C9    C10   A    
C36   P1    S    
C52   C64   S    
C28   H43   S    
C1    C12   S    
C68   H41   S    
C47   C54   A    
C28   H44   S    
O35   P5    S    
Ba2   O35   S    
Ba1   P1    S    
C16   H13   S    
O32   P8    S    
C52   H34   S    
C1    H60   S    
Ba2   O4    S    
C29   H30   S    
C17   C22   A    
C69   C70   S    
C27   C29   A    
C67   H17   S    
C45   H14   S    
C45   C56   S    
O2    P5    D    
C40   H46   S    
O6    P7    D    
C50   H35   S    
C34   H10   S    
C10   C17   A    
C15   C17   A    
Ba1   O15   S    
C59   H54   S    
C22   H28   S    
C61   H37   S    
C59   C60   S    
C41   O11   D    
C8    C9    A    
C34   O24   S    
C23   C34   S    
C61   C62   A    
C15   P4    S    
C18   C19   A    
H57   O29   S    
C24   C27   A    
C6    C8    A    
C47   C48   A    
O18   P6    S    
C45   O3    S    
C25   C26   A    
Ba2   O5    S    
C20   C21   A    
C11   C25   A    
C71   H22   S    
C52   H45   S    
C56   O25   S    
C62   P3    S    
Ba2   O31   S    
C53   N2    Am   
C12   H1    S    
C4    H32   S    
C64   H56   S    
