data_mof_unit_50989.cif
_audit_creation_date              2013-03-05T16:11:43-0500
_audit_creation_method            fapswitch 2.2
_symmetry_space_group_name_H-M    P1
_symmetry_Int_Tables_number       1
_space_group_crystal_system       triclinic
_cell_length_a                    10.710163
_cell_length_b                    9.848673
_cell_length_c                    10.561873
_cell_angle_alpha                 89.233385
_cell_angle_beta                  90.103673
_cell_angle_gamma                 89.993487
_cell_volume                      1113.97424209

loop_
_atom_site_label
_atom_site_type_symbol
_atom_site_description
_atom_site_fract_x
_atom_site_fract_y
_atom_site_fract_z
_atom_type_partial_charge
O1    O     O_R   0.316770 0.614620 0.499990 -0.644814
O2    O     O_R   0.683230 0.385380 0.500010 -0.644814
O3    O     O_R   0.683230 0.614620 0.500010 -0.619961
O4    O     O_R   0.316770 0.385380 0.499990 -0.619962
C1    C     C_R   0.872538 0.500006 0.500066 -0.006091
C2    C     C_R   0.127462 0.499994 0.499933 -0.006091
C3    C     C_R   0.259909 0.500005 0.500011 0.902142
C4    C     C_R   0.740091 0.499995 0.499989 0.902141
O5    O     O_R   0.499970 0.614650 0.313950 -0.595022
O6    O     O_R   0.500030 0.385350 0.686050 -0.595021
O7    O     O_R   0.500030 0.614650 0.686050 -0.593458
O8    O     O_R   0.499970 0.385350 0.313950 -0.593458
C5    C     C_R   0.497561 0.501043 0.257718 0.997325
C6    C     C_R   0.502439 0.498957 0.742282 0.997325
Zn1   Zn    Zn3+2 0.500000 0.653120 0.500000 1.022607
Zn2   Zn    Zn3+2 0.500000 0.346880 0.500000 1.022606
H1    H     H_    0.662687 0.124628 0.613687 0.164175
H2    H     H_    0.337313 0.875372 0.386313 0.164174
H3    H     H_    0.337681 0.127971 0.385710 0.174083
H4    H     H_    0.662319 0.872029 0.614290 0.174084
N1    N     N_R   0.500000 0.857200 0.500000 -0.103485
N2    N     N_R   0.500000 0.142800 0.500000 -0.103485
C7    C     C_3   0.500112 0.628270 0.036529 0.273286
C8    C     C_3   0.499888 0.371730 0.963471 0.273286
C9    C     C_3   0.603411 0.561165 0.960194 0.262676
C10   C     C_3   0.396589 0.438835 0.039806 0.262675
C11   C     C_3   0.397902 0.565608 0.952227 -0.354083
C12   C     C_3   0.602099 0.434392 0.047773 -0.354082
H5    H     H_    0.315339 0.618755 0.911524 0.220034
H6    H     H_    0.684661 0.381245 0.088476 0.220034
C13   C     C_3   0.503514 0.497100 0.876292 -0.284737
C14   C     C_3   0.496486 0.502900 0.123708 -0.284736
C15   C     C_R   0.590304 0.070981 0.563277 -0.003052
C16   C     C_R   0.409696 0.929019 0.436723 -0.003052
C17   C     C_R   0.409784 0.072841 0.436568 -0.025086
C18   C     C_R   0.590216 0.927159 0.563432 -0.025086
C19   C     C_R   0.064010 0.379114 0.526809 -0.126608
C20   C     C_R   0.935990 0.620886 0.473191 -0.126607
C21   C     C_R   0.936113 0.379132 0.526930 -0.146656
C22   C     C_R   0.063887 0.620868 0.473070 -0.146656
H7    H     H_    0.112816 0.285236 0.548529 0.168803
H8    H     H_    0.887184 0.714763 0.451470 0.168803
H9    H     H_    0.887411 0.285276 0.548770 0.163501
H10   H     H_    0.112589 0.714724 0.451230 0.163501
N3    N     N_R   0.496987 0.768930 0.077825 0.248977
O9    O     O_R   0.588113 0.851360 0.050374 -0.281883
O10   O     O_R   0.397950 0.815345 0.133643 -0.358487
N4    N     N_R   0.503014 0.231070 0.922176 0.248977
O11   O     O_R   0.411891 0.148638 0.949633 -0.281881
O12   O     O_R   0.602049 0.184656 0.866354 -0.358490
N5    N     N_R   0.718314 0.627240 0.918293 0.251810
O13   O     O_R   0.798323 0.669368 0.001794 -0.313076
O14   O     O_R   0.745884 0.635914 0.798641 -0.392921
N6    N     N_R   0.281687 0.372759 0.081706 0.251810
O15   O     O_R   0.201680 0.330627 0.998206 -0.313075
O16   O     O_R   0.254115 0.364088 0.201358 -0.392920

loop_
_geom_bond_atom_site_label_1
_geom_bond_atom_site_label_2
_geom_bond_distance
_ccdc_geom_bond_type
C9    C13   1.529635 S    
C1    C4    1.418533 S    
C21   H9    1.083759 S    
C9    N5    1.458838 S    
O4    Zn2   1.998677 S    
C2    C3    1.418532 S    
O1    Zn1   1.998762 S    
C7    C11   1.543800 S    
C11   H5    1.110494 S    
O2    Zn2   1.998761 S    
N6    O15   1.300525 A    
C5    C14   1.415299 S    
C22   H10   1.083759 S    
C6    C13   1.415299 S    
C7    C14   1.530880 S    
C15   C18   1.416432 A    
C12   H6    1.110494 S    
O5    Zn1   2.006200 S    
C8    C13   1.530880 S    
C19   C21   1.369808 A    
N1    C18   1.366501 A    
H3    C17   1.081800 S    
N3    O9    1.300216 A    
C9    C12   1.543968 S    
C20   C22   1.369808 A    
N2    C17   1.366502 A    
H2    C16   1.081543 S    
C10   C11   1.543967 S    
Zn1   N1    2.009917 S    
H1    C15   1.081544 S    
O4    C3    1.282631 A    
C7    N3    1.458308 S    
C10   N6    1.458839 S    
N4    O12   1.300373 A    
N4    O11   1.300216 A    
C8    C10   1.525827 S    
C20   H8    1.083727 S    
C2    C22   1.396916 A    
C1    C21   1.396916 A    
C19   H7    1.083727 S    
C16   C17   1.416432 A    
O7    C6    1.278086 A    
N6    O16   1.300009 A    
C2    C19   1.396980 A    
C11   C13   1.547746 S    
N5    O13   1.300526 A    
H4    C18   1.081801 S    
C8    C12   1.543800 S    
C12   C14   1.547746 S    
C7    C9    1.525827 S    
O3    Zn1   1.998676 S    
O8    C5    1.278086 A    
O3    C4    1.282632 A    
O6    C6    1.273978 A    
N3    O10   1.300373 A    
N2    C15   1.366472 A    
O5    C5    1.273978 A    
C10   C14   1.529634 S    
O6    Zn2   2.006199 S    
N1    C16   1.366473 A    
O1    C3    1.282659 A    
C1    C20   1.396980 A    
O7    Zn1   1.996244 S    
O2    C4    1.282658 A    
O8    Zn2   1.996245 S    
Zn2   N2    2.009917 S    
N5    O14   1.300010 A    
C8    N4    1.458307 S    
