data_mof_unit_32584.cif
_audit_creation_date              2012-12-11T17:36:22-0500
_audit_creation_method            fapswitch 2.2
_symmetry_space_group_name_H-M    P1
_symmetry_Int_Tables_number       1
_space_group_crystal_system       triclinic
_cell_length_a                    25.817099
_cell_length_b                    6.898501
_cell_length_c                    21.752175
_cell_angle_alpha                 90.00297
_cell_angle_beta                  96.098893
_cell_angle_gamma                 90.000336
_cell_volume                      3852.11965543

loop_
_atom_site_label
_atom_site_type_symbol
_atom_type_description
_atom_site_fract_x
_atom_site_fract_y
_atom_site_fract_z
_atom_type_partial_charge
O1    O     O_R   0.208650 0.594520 0.175450 -0.537858
O2    O     O_R   0.791350 0.405480 0.824550 -0.537856
O3    O     O_R   0.291350 0.094520 0.324550 -0.537860
O4    O     O_R   0.708650 0.905480 0.675450 -0.537860
O5    O     O_R   0.192980 0.260780 0.300160 -0.535791
O6    O     O_R   0.807020 0.739220 0.699840 -0.535789
O7    O     O_R   0.307020 0.760780 0.199840 -0.535794
O8    O     O_R   0.692980 0.239220 0.800160 -0.535818
C1    C     C_R   0.179939 0.431670 0.319863 0.736711
C2    C     C_R   0.820061 0.568330 0.680137 0.736715
C3    C     C_R   0.320061 0.931665 0.180138 0.736701
C4    C     C_R   0.679939 0.068337 0.819863 0.736706
O9    O     O_R   0.202550 0.264660 0.174420 -0.535233
O10   O     O_R   0.797450 0.735340 0.825580 -0.535231
O11   O     O_R   0.297450 0.764660 0.325580 -0.535229
O12   O     O_R   0.702550 0.235340 0.674420 -0.535227
O13   O     O_R   0.300990 0.096480 0.197920 -0.541865
O14   O     O_R   0.699010 0.903520 0.802080 -0.541863
O15   O     O_R   0.199010 0.596480 0.302080 -0.541868
O16   O     O_R   0.800990 0.403520 0.697920 -0.541867
C5    C     C_R   0.191181 0.433428 0.151091 0.735160
C6    C     C_R   0.808819 0.566572 0.848909 0.735156
C7    C     C_R   0.308818 0.933438 0.348909 0.735163
C8    C     C_R   0.691182 0.066562 0.651091 0.735170
O17   O     O_3   0.282290 0.427760 0.257860 -0.366849
O18   O     O_3   0.717710 0.572240 0.742140 -0.366858
O19   O     O_3   0.217710 0.927760 0.242140 -0.366850
O20   O     O_3   0.782290 0.072240 0.757860 -0.366844
V1    V     V_3+5 0.244010 0.152080 0.248540 1.430700
V2    V     V_3+5 0.755990 0.847920 0.751460 1.430698
V3    V     V_3+5 0.255990 0.652080 0.251460 1.430697
V4    V     V_3+5 0.744010 0.347920 0.748540 1.430672
C9    C     C_R   0.657709 0.059723 0.591888 -0.139662
C10   C     C_R   0.342291 0.940276 0.408112 -0.139660
C11   C     C_R   0.842293 0.559774 0.908112 -0.139677
C12   C     C_R   0.157707 0.440227 0.091887 -0.139678
C13   C     C_R   0.648311 0.103622 0.481044 0.731207
C14   C     C_R   0.351689 0.896378 0.518956 0.731207
C15   C     C_R   0.851708 0.604054 0.018942 0.731196
C16   C     C_R   0.148292 0.395948 0.981058 0.731196
C17   C     C_R   0.679382 0.100080 0.537370 -0.275062
C18   C     C_R   0.320618 0.899921 0.462630 -0.275062
C19   C     C_R   0.820633 0.600394 0.962622 -0.275030
C20   C     C_R   0.179367 0.399608 0.037378 -0.275029
C21   C     C_R   0.604071 0.022968 0.590032 -0.166370
C22   C     C_R   0.395929 0.977032 0.409968 -0.166371
C23   C     C_R   0.895924 0.522870 0.909974 -0.166365
C24   C     C_R   0.104076 0.477129 0.090026 -0.166366
C25   C     C_R   0.570870 0.027992 0.533273 -0.020975
C26   C     C_R   0.429129 0.972007 0.466727 -0.020974
C27   C     C_R   0.929130 0.528026 0.966727 -0.020970
C28   C     C_R   0.070870 0.471974 0.033273 -0.020970
C29   C     C_R   0.594182 0.068979 0.478269 -0.162506
C30   C     C_R   0.405818 0.931020 0.521730 -0.162507
C31   C     C_R   0.905831 0.569282 0.021721 -0.162486
C32   C     C_R   0.094169 0.430719 0.978279 -0.162487
C33   C     C_R   0.515524 0.995556 0.529335 0.000027
C34   C     C_R   0.484476 0.004444 0.470665 0.000027
C35   C     C_R   0.984473 0.495477 0.970669 0.000031
C36   C     C_R   0.015527 0.504524 0.029331 0.000031
C37   C     C_R   0.509806 0.045015 0.417796 -0.247704
C38   C     C_R   0.490194 0.954985 0.582204 -0.247704
C39   C     C_R   0.990210 0.545358 0.082191 -0.247688
C40   C     C_R   0.009790 0.454644 0.917809 -0.247689
C41   C     C_R   0.563166 0.076207 0.421385 0.691278
C42   C     C_R   0.436834 0.923793 0.578615 0.691280
C43   C     C_R   0.936854 0.576657 0.078600 0.691281
C44   C     C_R   0.063146 0.423345 0.921400 0.691282
H1    H     H_    0.410281 0.005617 0.366172 0.117117
H2    H     H_    0.589719 0.994382 0.633828 0.117119
H3    H     H_    0.089733 0.505905 0.133816 0.117127
H4    H     H_    0.910267 0.494094 0.866184 0.117128
H5    H     H_    0.279302 0.870178 0.461491 0.144998
H6    H     H_    0.720698 0.129823 0.538509 0.144998
H7    H     H_    0.220677 0.369744 0.038522 0.145008
H8    H     H_    0.779323 0.630258 0.961477 0.144998
H9    H     H_    0.489407 0.054310 0.372135 0.161214
H10   H     H_    0.510593 0.945690 0.627865 0.161213
H11   H     H_    0.010615 0.554787 0.127846 0.161208
H12   H     H_    0.989385 0.445215 0.872154 0.161208
C45   C     C_R   0.406501 0.807617 0.050760 0.099392
C46   C     C_R   0.593523 0.192284 0.949281 0.099453
C47   C     C_R   0.093506 0.307669 0.449248 0.099397
C48   C     C_R   0.906490 0.692320 0.550747 0.099402
C49   C     C_R   0.365451 0.794910 0.089944 0.155375
C50   C     C_R   0.634548 0.205093 0.910062 0.155393
C51   C     C_R   0.134553 0.294946 0.410060 0.155388
C52   C     C_R   0.865447 0.705052 0.589939 0.155391
C53   C     C_R   0.361046 0.939099 0.136237 -0.178136
C54   C     C_R   0.638958 0.060896 0.863771 -0.178187
C55   C     C_R   0.138957 0.439118 0.363767 -0.178134
C56   C     C_R   0.861043 0.560880 0.636232 -0.178133
C57   C     C_R   0.395946 0.095712 0.140356 -0.282068
C58   C     C_R   0.604071 0.904241 0.859666 -0.282035
C59   C     C_R   0.104058 0.595733 0.359651 -0.282069
C60   C     C_R   0.895941 0.404262 0.640347 -0.282070
H13   H     H_    0.393098 0.207703 0.174760 0.168657
H14   H     H_    0.606920 0.792255 0.825261 0.168651
H15   H     H_    0.106905 0.707712 0.325247 0.168658
H16   H     H_    0.893094 0.292284 0.674751 0.168657
C61   C     C_R   0.435352 0.109951 0.101333 0.625354
C62   C     C_R   0.564676 0.889956 0.898702 0.625352
C63   C     C_R   0.064656 0.609989 0.398679 0.625364
C64   C     C_R   0.935341 0.390001 0.601317 0.625366
C65   C     C_R   0.441231 0.967686 0.056643 -0.053994
C66   C     C_R   0.558801 0.032190 0.943402 -0.054016
C67   C     C_R   0.058778 0.467740 0.443370 -0.054008
C68   C     C_R   0.941218 0.532248 0.556625 -0.054008
C69   C     C_1   0.482777 0.990667 0.016723 0.087276
C70   C     C_1   0.517257 0.009176 0.983323 0.087296
C71   C     C_1   0.017237 0.490737 0.483295 0.087302
C72   C     C_1   0.982759 0.509249 0.516700 0.087302
F1    F     F_    0.584233 0.114716 0.368067 -0.574848
F2    F     F_    0.415767 0.885284 0.631933 -0.574849
F3    F     F_    0.915799 0.615423 0.131908 -0.574858
F4    F     F_    0.084201 0.384579 0.868092 -0.574858
F5    F     F_    0.671589 0.143418 0.429362 -0.581075
F6    F     F_    0.328411 0.856583 0.570638 -0.581074
F7    F     F_    0.828442 0.644108 0.070615 -0.581087
F8    F     F_    0.171558 0.355895 0.929384 -0.581084
C73   C     C_3   0.413150 0.650192 0.003500 -0.628385
H17   H     H_    0.449254 0.664645 0.980554 0.238180
H18   H     H_    0.415087 0.506202 0.026388 0.236465
H19   H     H_    0.379856 0.653643 0.966759 0.219526
C74   C     C_3   0.586895 0.349625 0.996578 -0.628511
H20   H     H_    0.550858 0.334900 0.019652 0.238225
H21   H     H_    0.620261 0.346365 0.033233 0.219512
H22   H     H_    0.584840 0.493623 0.973686 0.236553
C75   C     C_3   0.086859 0.150257 0.496509 -0.628396
H23   H     H_    0.050754 0.164709 0.519455 0.238177
H24   H     H_    0.084923 0.006260 0.473621 0.236460
H25   H     H_    0.120154 0.153724 0.533249 0.219539
C76   C     C_3   0.913135 0.849724 0.503484 -0.628420
H26   H     H_    0.949234 0.835253 0.480531 0.238181
H27   H     H_    0.879837 0.846266 0.466750 0.219537
H28   H     H_    0.915078 0.993722 0.526370 0.236467
C77   C     C_3   0.325606 0.632372 0.081754 -0.686602
H29   H     H_    0.325844 0.551627 0.037871 0.206765
H30   H     H_    0.332931 0.526319 0.120062 0.210944
H31   H     H_    0.285654 0.692484 0.081222 0.192650
C78   C     C_3   0.674363 0.367752 0.918206 -0.686446
H32   H     H_    0.674086 0.448760 0.962038 0.206679
H33   H     H_    0.714327 0.307701 0.918797 0.192626
H34   H     H_    0.667038 0.473614 0.879840 0.210969
C79   C     C_3   0.174398 0.132410 0.418247 -0.686628
H35   H     H_    0.174159 0.051672 0.462128 0.206769
H36   H     H_    0.167071 0.026351 0.379937 0.210948
H37   H     H_    0.214349 0.192520 0.418780 0.192642
C80   C     C_3   0.825605 0.867598 0.581755 -0.686626
H38   H     H_    0.825842 0.948324 0.537872 0.206768
H39   H     H_    0.785653 0.807503 0.581229 0.192640
H40   H     H_    0.832938 0.973661 0.620062 0.210949
F9    F     F_    0.468411 0.263500 0.107705 -0.674067
F10   F     F_    0.531624 0.736387 0.892332 -0.674067
F11   F     F_    0.031598 0.763538 0.392309 -0.674042
F12   F     F_    0.968398 0.236450 0.607686 -0.674042

loop_
_geom_bond_atom_site_label_1
_geom_bond_atom_site_label_2
_ccdc_geom_bond_type
O17   V3    S    
C47   C51   A    
C25   C29   A    
O1    C5    A    
C51   C55   A    
O19   V1    S    
C9    C21   A    
C52   C80   S    
O3    C7    A    
C71   C72   T    
C10   C18   A    
C56   C60   A    
C11   C23   A    
C1    C55   S    
C79   H35   S    
C25   C33   A    
C33   C38   A    
C5    C12   S    
C39   H11   S    
O7    C3    A    
C6    C11   S    
C77   H30   S    
C35   C40   A    
C26   C30   A    
C36   C39   A    
C40   C44   A    
O9    V1    S    
C14   C18   A    
C80   H39   S    
C66   C70   S    
O4    C8    A    
C59   H15   S    
C58   H14   S    
O1    V3    S    
O13   V1    S    
O2    V4    S    
O3    V1    S    
C43   F3    S    
C73   H19   S    
C28   C36   A    
C17   H6    S    
C78   H32   S    
C1    O15   A    
C15   C31   A    
C52   C56   A    
C37   H9    S    
C22   H1    S    
O2    C6    A    
C74   H22   S    
C12   C24   A    
C10   C22   A    
C61   F9    S    
C11   C19   A    
C62   F10   S    
C16   C20   A    
C75   H25   S    
C13   C29   A    
C34   C37   A    
O11   C7    A    
O15   V3    S    
C35   C36   A    
O12   C8    A    
O17   V1    S    
C40   H12   S    
C41   F1    S    
O10   V2    S    
C79   H36   S    
C59   C63   A    
C54   C58   A    
O5    V1    S    
C61   C65   A    
C77   H31   S    
C39   C43   A    
C48   C76   S    
O7    V3    S    
C38   C42   A    
O19   V3    S    
C26   C34   A    
O20   V4    S    
C50   C54   A    
C80   H40   S    
C57   C61   A    
C49   C53   A    
O18   V4    S    
C15   C19   A    
C16   C32   A    
C46   C50   A    
C55   C59   A    
C53   C57   A    
C51   C79   S    
C68   C72   S    
C45   C73   S    
O8    V4    S    
C20   H7    S    
C46   C74   S    
O5    C1    A    
C76   H28   S    
C3    C53   S    
C31   C43   A    
C14   C30   A    
C21   C25   A    
O8    C4    A    
C7    C10   S    
O9    C5    A    
C64   F12   S    
O11   V3    S    
C73   H17   S    
C44   F4    S    
O14   V2    S    
C63   F11   S    
C16   F8    S    
O18   V2    S    
C60   C64   A    
C74   H20   S    
C78   H34   S    
C27   C35   A    
C24   H3    S    
C57   H13   S    
C64   C68   A    
C79   H37   S    
C29   C41   A    
C76   H27   S    
C75   H23   S    
O16   V4    S    
C49   C77   S    
C4    C54   S    
C19   H8    S    
C45   C65   A    
C65   C69   S    
C3    O13   A    
C18   H5    S    
C42   F2    S    
O6    V2    S    
C21   H2    S    
C67   C71   S    
C38   H10   S    
C48   C52   A    
O6    C2    A    
C23   C27   A    
C47   C75   S    
C30   C42   A    
O12   V4    S    
C77   H29   S    
C22   C26   A    
C8    C9    S    
C9    C17   A    
O10   C6    A    
C78   H33   S    
C32   C44   A    
C80   H38   S    
C33   C34   A    
C76   H26   S    
C2    O16   A    
C15   F7    S    
C60   H16   S    
O20   V2    S    
C48   C68   A    
C47   C67   A    
C62   C66   A    
C27   C31   A    
C46   C66   A    
C13   C17   A    
C45   C49   A    
C23   H4    S    
C73   H18   S    
C12   C20   A    
C2    C56   S    
C14   F6    S    
C37   C41   A    
C24   C28   A    
C13   F5    S    
C58   C62   A    
C4    O14   A    
C74   H21   S    
C63   C67   A    
C69   C70   T    
O4    V2    S    
C28   C32   A    
C50   C78   S    
C75   H24   S    
