data_mof_unit_66411.cif
_audit_creation_date              2012-12-10T18:40:30-0500
_audit_creation_method            fapswitch 2.2
_symmetry_space_group_name_H-M    P1
_symmetry_Int_Tables_number       1
_space_group_crystal_system       triclinic
_cell_length_a                    10.781286
_cell_length_b                    11.573604
_cell_length_c                    16.82617
_cell_angle_alpha                 90.003912
_cell_angle_beta                  84.285699
_cell_angle_gamma                 89.969707
_cell_volume                      2089.10801684

loop_
_atom_site_label
_atom_site_type_symbol
_atom_type_description
_atom_site_fract_x
_atom_site_fract_y
_atom_site_fract_z
_atom_type_partial_charge
C1    C     C_R   0.499976 0.718831 0.499998 0.917479
C2    C     C_R   0.518083 0.494989 0.346644 0.979230
C3    C     C_R   0.467919 0.500546 0.740054 -0.296952
C4    C     C_R   0.533177 0.465682 0.262464 -0.330892
C5    C     C_R   0.548542 0.566531 0.782692 -0.005309
C6    C     C_R   0.465531 0.372770 0.233081 -0.001375
C7    C     C_R   0.541030 0.556046 0.866112 0.030235
C8    C     C_R   0.484073 0.344756 0.151979 0.086992
C9    C     C_R   0.454451 0.478552 0.904776 -0.155919
C10   C     C_R   0.568420 0.409734 0.101293 -0.177389
C11   C     C_R   0.369247 0.419582 0.862532 0.591228
C12   C     C_R   0.500007 0.281174 0.500124 0.893460
C13   C     C_R   0.642126 0.495160 0.131774 0.584272
C14   C     C_R   0.375818 0.430423 0.780250 0.499308
C15   C     C_R   0.624784 0.522938 0.212251 0.524715
C16   C     C_2   0.456750 0.454368 0.989143 0.575802
C17   C     C_2   0.559097 0.408889 0.015929 0.586721
C18   C     C_1   0.499941 0.838959 0.499953 -0.145264
C19   C     C_1   0.500049 0.161059 0.499991 -0.147616
C20   C     C_1   0.499964 0.940853 0.499913 0.031639
C21   C     C_1   0.500018 0.059171 0.499915 0.033035
C22   C     C_1   0.930232 0.499996 0.500005 0.085857
C23   C     C_1   0.069769 0.499993 0.499994 0.084791
C24   C     C_R   0.481862 0.501441 0.653529 1.002873
F1    F     F_    0.693198 0.609519 0.240561 -0.593884
F2    F     F_    0.297065 0.367179 0.739407 -0.592839
F3    F     F_    0.660984 0.380757 0.965177 -0.619466
F4    F     F_    0.355915 0.484774 0.040161 -0.628231
F5    F     F_    0.284403 0.346623 0.900661 -0.562034
F6    F     F_    0.723554 0.557881 0.082320 -0.567477
H1    H     H_    0.618816 0.727671 0.762128 0.196063
H2    H     H_    0.726341 0.619838 0.752535 0.216937
H3    H     H_    0.304576 0.357172 0.306132 0.236859
H4    H     H_    0.424748 0.273492 0.331763 0.187424
H5    H     H_    0.432262 0.176939 0.148999 0.220707
H6    H     H_    0.319013 0.272605 0.131869 0.261326
H7    H     H_    0.713403 0.603546 0.892700 0.256493
H8    H     H_    0.604725 0.710297 0.902499 0.206625
N1    N     N_1   0.819370 0.500000 0.500010 -0.067298
N2    N     N_1   0.180630 0.500000 0.499990 -0.068055
N3    N     N_3   0.636460 0.643821 0.740880 -0.419452
N4    N     N_3   0.379311 0.304970 0.284162 -0.431414
N5    N     N_3   0.413870 0.253783 0.119675 -0.381997
N6    N     N_3   0.620567 0.622570 0.912175 -0.362375
O1    O     O_R   0.397470 0.665550 0.500010 -0.612394
O2    O     O_R   0.602530 0.334450 0.499990 -0.614225
O3    O     O_R   0.602530 0.665550 0.499990 -0.598532
O4    O     O_R   0.397470 0.334450 0.500010 -0.605291
O5    O     O_R   0.385350 0.500000 0.615800 -0.567686
O6    O     O_R   0.614650 0.500000 0.384200 -0.569387
O7    O     O_R   0.590410 0.500000 0.615800 -0.602383
O8    O     O_R   0.409590 0.500000 0.384200 -0.632781
Zn1   Zn    Zn3+2 0.363080 0.500000 0.500000 1.029301
Zn2   Zn    Zn3+2 0.636920 0.500000 0.500000 1.038548

loop_
_geom_bond_atom_site_label_1
_geom_bond_atom_site_label_2
_ccdc_geom_bond_type
C16   F4    S    
C2    C4    S    
H2    N3    S    
H8    N6    S    
H5    N5    S    
H4    N4    S    
C8    N5    S    
C12   O4    A    
O7    Zn2   S    
O2    Zn2   S    
H7    N6    S    
C2    O6    A    
C1    C18   S    
O1    Zn1   S    
C7    N6    S    
C14   F2    S    
C9    C11   A    
C1    O1    A    
C3    C24   S    
O6    Zn2   S    
C3    C14   A    
C2    O8    A    
C24   O7    A    
O3    Zn2   S    
O5    Zn1   S    
H3    N4    S    
C12   C19   S    
C4    C6    A    
C19   C21   T    
C9    C16   S    
C18   C20   T    
C13   C15   A    
C4    C15   A    
O4    Zn1   S    
C11   C14   A    
C15   F1    S    
N1    Zn2   S    
C22   N1    T    
C10   C17   S    
C23   N2    T    
C17   F3    S    
C7    C9    A    
C13   F6    S    
C20   C21   S    
C11   F5    S    
C12   O2    A    
N2    Zn1   S    
C6    N4    S    
C24   O5    A    
C5    C7    A    
C5    N3    S    
C22   C23   S    
C1    O3    A    
H6    N5    S    
C6    C8    A    
H1    N3    S    
C8    C10   A    
O8    Zn1   S    
C16   C17   D    
C3    C5    A    
C10   C13   A    
