data_mof_unit_35165.cif
_audit_creation_date              2012-12-10T17:56:19-0500
_audit_creation_method            fapswitch 2.2
_symmetry_space_group_name_H-M    P1
_symmetry_Int_Tables_number       1
_space_group_crystal_system       triclinic
_cell_length_a                    12.981509
_cell_length_b                    10.833539
_cell_length_c                    9.632534
_cell_angle_alpha                 89.73724
_cell_angle_beta                  94.999795
_cell_angle_gamma                 92.769563
_cell_volume                      1347.9470606

loop_
_atom_site_label
_atom_site_type_symbol
_atom_type_description
_atom_site_fract_x
_atom_site_fract_y
_atom_site_fract_z
_atom_type_partial_charge
C1    C     C_R   0.500720 0.262466 0.500246 0.833245
C2    C     C_R   0.500305 0.737609 0.499915 0.871273
C3    C     C_R   0.499730 0.871656 0.499778 -0.024005
C4    C     C_R   0.501677 0.128510 0.500487 -0.042746
C5    C     C_R   0.436482 0.418543 0.068086 0.054222
C6    C     C_R   0.563597 0.581545 0.932090 0.082569
C7    C     C_R   0.438845 0.415359 0.919916 0.029466
C8    C     C_R   0.561896 0.584184 0.080564 0.024751
C9    C     C_R   0.301381 0.502574 0.474823 0.945276
C10   C     C_R   0.698469 0.488190 0.524411 0.777990
C11   C     C_R   0.810707 0.466259 0.534858 -0.226777
C12   C     C_R   0.189111 0.509872 0.461957 -0.081158
C13   C     C_R   0.032903 0.610021 0.371922 -0.032965
C14   C     C_R   0.971015 0.406841 0.666370 -0.049500
C15   C     C_R   0.141630 0.605141 0.382122 -0.146849
C16   C     C_R   0.862217 0.417748 0.658289 -0.068237
C17   C     C_R   0.129392 0.425944 0.537845 -0.042930
C18   C     C_R   0.868900 0.500530 0.422140 -0.019577
C19   C     C_R   0.026594 0.453429 0.555099 -0.011265
C20   C     C_R   0.975493 0.524459 0.450300 0.118925
C21   C     C_R   0.512359 0.065104 0.376516 -0.104007
C22   C     C_R   0.488818 0.935075 0.623674 -0.088339
C23   C     C_R   0.510417 0.937342 0.375995 -0.116162
C24   C     C_R   0.490851 0.062834 0.624236 -0.147577
Cu1   Cu    Cu3+1 0.500000 0.500020 0.640660 0.977569
Cu2   Cu    Cu3+1 0.500000 0.499980 0.359340 0.972926
H1    H     H_    0.522674 0.113782 0.279982 0.202542
H2    H     H_    0.478052 0.886419 0.720073 0.207788
H3    H     H_    0.517190 0.890426 0.278788 0.205879
H4    H     H_    0.483746 0.109735 0.721381 0.204675
N1    N     N_R   0.500030 0.500030 0.852080 -0.255113
N2    N     N_R   0.499970 0.499970 0.147920 -0.257844
O1    O     O_R   0.499990 0.319660 0.618740 -0.619914
O2    O     O_R   0.500010 0.680340 0.381260 -0.592504
O3    O     O_R   0.499990 0.319630 0.381170 -0.563622
O4    O     O_R   0.500010 0.680370 0.618830 -0.563859
O5    O     O_R   0.349000 0.499990 0.599490 -0.598754
O6    O     O_R   0.651000 0.500010 0.400510 -0.640178
O7    O     O_R   0.348990 0.499960 0.361920 -0.599004
O8    O     O_R   0.651010 0.500040 0.638080 -0.606598
C25   C     C_2   0.827318 0.473603 0.274558 0.393304
H5    H     H_    0.758032 0.414873 0.252254 0.104538
O9    O     O_2   0.873841 0.507588 0.175371 -0.508168
C26   C     C_2   0.163573 0.297688 0.567485 0.359784
H6    H     H_    0.118221 0.233269 0.626464 0.094942
O10   O     O_2   0.238535 0.258374 0.516784 -0.555046
C27   C     C_2   0.801500 0.368784 0.772310 0.340575
H7    H     H_    0.730915 0.312463 0.747456 0.092202
O11   O     O_2   0.827812 0.393949 0.894018 -0.514190
C28   C     C_2   0.204680 0.699200 0.309803 0.369272
H8    H     H_    0.184585 0.721119 0.201162 0.081062
O12   O     O_2   0.278047 0.755244 0.372410 -0.535844
C29   C     C_2   0.981526 0.715290 0.297810 0.483890
H9    H     H_    0.017555 0.764886 0.215498 0.061350
O13   O     O_2   0.898733 0.749812 0.330374 -0.531585
C30   C     C_2   0.026411 0.359173 0.796257 0.410005
H10   H     H_    0.991136 0.285624 0.855478 0.117289
O14   O     O_2   0.111439 0.403382 0.839544 -0.559115
C31   C     C_2   0.355886 0.343874 0.133833 0.561361
H11   H     H_    0.282161 0.383186 0.147389 0.062373
O15   O     O_2   0.368997 0.236548 0.166642 -0.498274
C32   C     C_2   0.643361 0.657356 0.866152 0.531373
H12   H     H_    0.717102 0.618868 0.851088 0.094091
O16   O     O_2   0.629626 0.764922 0.835107 -0.525141
C33   C     C_2   0.376530 0.316755 0.840528 0.406680
H13   H     H_    0.337781 0.334214 0.740879 0.161114
O17   O     O_2   0.368899 0.211737 0.886138 -0.531798
C34   C     C_2   0.625323 0.682266 0.160528 0.408793
H14   H     H_    0.666551 0.664710 0.259298 0.139972
O18   O     O_2   0.631688 0.787745 0.116004 -0.524422

loop_
_geom_bond_atom_site_label_1
_geom_bond_atom_site_label_2
_ccdc_geom_bond_type
C12   C17   A    
Cu1   N1    S    
C28   O12   D    
C11   C18   A    
Cu2   N2    S    
C32   H12   S    
C14   C16   A    
C7    C33   S    
C25   H5    S    
C14   C30   S    
C19   C20   A    
C12   C15   A    
C10   O6    A    
C1    C4    S    
Cu1   O5    S    
C6    C32   S    
Cu1   O1    S    
C9    O5    A    
C2    C3    S    
C21   H1    S    
C17   C26   S    
C1    O1    A    
C31   H11   S    
C27   O11   D    
C5    N2    A    
C22   H2    S    
C29   H9    S    
C30   H10   S    
C4    C21   A    
C25   O9    D    
C2    O2    A    
C13   C15   A    
C15   C28   S    
C6    C8    A    
C23   H3    S    
C16   C27   S    
C10   O8    A    
C17   C19   A    
C30   O14   D    
C8    C34   S    
C18   C20   A    
C29   O13   D    
Cu1   O8    S    
C4    C24   A    
C9    C12   S    
C22   C24   A    
Cu2   O7    S    
C31   O15   D    
C24   H4    S    
C7    N1    A    
C13   C29   S    
C5    C31   S    
Cu1   O4    S    
C8    N2    A    
Cu2   O3    S    
C9    O7    A    
C26   H6    S    
C1    O3    A    
C34   O18   D    
C33   H13   S    
C10   C11   S    
C18   C25   S    
C2    O4    A    
C5    C7    A    
C6    N1    A    
C14   C19   A    
Cu2   O6    S    
C3    C22   A    
C32   O16   D    
C13   C20   A    
C28   H8    S    
Cu1   Cu2   S    
C3    C23   A    
C21   C23   A    
Cu2   O2    S    
C11   C16   A    
C27   H7    S    
C26   O10   D    
C34   H14   S    
C33   O17   D    
