data_mof_unit_25268.cif
_audit_creation_date              2013-03-05T15:57:25-0500
_audit_creation_method            fapswitch 2.2
_symmetry_space_group_name_H-M    P1
_symmetry_Int_Tables_number       1
_space_group_crystal_system       triclinic
_cell_length_a                    12.930222
_cell_length_b                    12.98955
_cell_length_c                    15.313414
_cell_angle_alpha                 116.207389
_cell_angle_beta                  64.154172
_cell_angle_gamma                 96.915793
_cell_volume                      2068.4796283

loop_
_atom_site_label
_atom_site_type_symbol
_atom_site_description
_atom_site_fract_x
_atom_site_fract_y
_atom_site_fract_z
_atom_type_partial_charge
C1    C     C_R   0.000314 0.832845 0.053441 -0.121609
H1    H     H_    0.029279 0.894986 0.111444 0.093923
N1    N     N_R   0.037320 0.720000 0.995830 -0.044915
C2    C     C_R   0.679400 0.464377 0.220169 -0.145519
H2    H     H_    0.609440 0.426804 0.199187 0.099896
N2    N     N_R   0.790770 0.446140 0.151990 -0.040164
C3    C     C_R   0.754961 0.520569 0.893429 -0.182735
H3    H     H_    0.777349 0.549169 0.831391 0.101072
N3    N     N_R   0.824900 0.517970 0.936430 -0.039374
C4    C     C_R   0.015398 0.696771 0.301761 -0.162873
H4    H     H_    0.991267 0.661804 0.359549 0.097402
N4    N     N_R   0.003190 0.648180 0.211390 -0.036635
C5    C     C_R   0.676162 0.422283 0.990875 -0.126134
H5    H     H_    0.630089 0.359345 0.018168 0.093643
N5    N     N_R   0.774330 0.457010 0.995830 -0.043598
C6    C     C_R   0.095895 0.799365 0.208980 -0.129799
H6    H     H_    0.147439 0.860151 0.181290 0.097876
N6    N     N_R   0.053760 0.709130 0.151980 -0.040176
C7    C     C_R   0.783317 0.556456 0.313974 -0.110423
H7    H     H_    0.808982 0.605081 0.378327 0.106021
N7    N     N_R   0.853840 0.498830 0.211390 -0.041464
C8    C     C_R   0.901054 0.747762 0.955339 -0.160952
H8    H     H_    0.837685 0.731192 0.923679 0.114019
N8    N     N_R   0.974250 0.667320 0.936430 -0.038947
C9    C     C_R   0.912737 0.852173 0.030967 0.141144
C10   C     C_R   0.674059 0.532095 0.321974 0.046978
C11   C     C_R   0.661906 0.460394 0.926204 0.167957
C12   C     C_R   0.072971 0.791558 0.302221 0.059611
C13   C     C_R   0.338104 0.516047 0.950403 -0.101245
H9    H     H_    0.396542 0.555011 0.900354 0.087634
N9    N     N_R   0.225670 0.542990 0.004170 -0.045287
C14   C     C_R   0.970276 0.179423 0.782547 -0.102710
H10   H     H_    0.938579 0.110303 0.805311 0.099379
N10   N     N_R   0.946240 0.290870 0.848020 -0.040887
C15   C     C_R   0.198857 0.509664 0.695675 -0.120593
H11   H     H_    0.166226 0.482751 0.635487 0.099781
N11   N     N_R   0.146160 0.501170 0.788610 -0.039834
C16   C     C_R   0.052471 0.255341 0.088234 -0.129851
H12   H     H_    0.089978 0.274856 0.143908 0.089207
N12   N     N_R   0.025750 0.332680 0.063570 -0.037730
C17   C     C_R   0.951430 0.171734 0.994397 -0.116324
H13   H     H_    0.895218 0.114014 0.963744 0.099581
N13   N     N_R   0.962680 0.280000 0.004170 -0.043183
C18   C     C_R   0.296925 0.597797 0.793721 -0.160005
H14   H     H_    0.353641 0.654371 0.824877 0.090374
N14   N     N_R   0.209230 0.553860 0.848010 -0.037735
C19   C     C_R   0.259570 0.416029 0.047633 -0.163195
H15   H     H_    0.249679 0.361716 0.086949 0.095949
N15   N     N_R   0.175100 0.482030 0.063570 -0.040569
C20   C     C_R   0.050313 0.279159 0.684789 -0.140557
H16   H     H_    0.090859 0.302520 0.618480 0.098782
N16   N     N_R   0.996810 0.351820 0.788610 -0.039456
Ni1   Ni    Ni4+2 0.130310 0.630310 0.000000 0.211293
Ni2   Ni    Ni4+2 0.869690 0.369690 0.000000 0.220760
Ni3   Ni    Ni4+2 0.985660 0.509480 0.863750 0.213297
Ni4   Ni    Ni4+2 0.014340 0.490520 0.136250 0.213299
C21   C     C_R   0.361943 0.434174 0.974636 0.150333
C22   C     C_R   0.034470 0.170303 0.680092 0.053588
C23   C     C_R   0.293201 0.570178 0.698051 0.057666
C24   C     C_R   0.008840 0.151815 0.044638 0.043318
H17   H     H_    0.598416 0.759230 0.087207 0.113697
C25   C     C_R   0.435406 0.722042 0.187906 -0.108973
H18   H     H_    0.461196 0.631183 0.152990 0.121155
C26   C     C_R   0.324938 0.767135 0.270518 -0.134792
H19   H     H_    0.266825 0.710101 0.299281 0.116567
C27   C     C_R   0.290391 0.885191 0.316475 0.123688
C28   C     C_R   0.369198 0.957244 0.279090 -0.167105
H20   H     H_    0.344778 0.048330 0.313157 0.110372
C29   C     C_R   0.479753 0.911728 0.196486 -0.094715
H21   H     H_    0.539876 0.967592 0.167806 0.121048
C30   C     C_R   0.512774 0.794249 0.150892 -0.090327
C31   C     C_R   0.158947 0.029718 0.499916 -0.248034
H22   H     H_    0.233159 0.073590 0.508608 0.136204
C32   C     C_R   0.048619 0.068523 0.585324 0.063917
C33   C     C_R   0.950886 0.011907 0.578280 0.050373
C34   C     C_R   0.964658 0.919032 0.484206 -0.252740
H23   H     H_    0.888578 0.878160 0.476653 0.140727
C35   C     C_R   0.073262 0.881344 0.398071 0.062906
C36   C     C_R   0.173050 0.933073 0.404713 0.025374
C37   C     C_R   0.779869 0.997716 0.732164 -0.360165
H24   H     H_    0.831209 0.935828 0.729822 0.130840
C38   C     C_R   0.662197 0.024680 0.804569 0.635204
C39   C     C_R   0.597448 0.105676 0.806989 -0.248295
H25   H     H_    0.507016 0.127618 0.862672 0.135975
C40   C     C_R   0.648172 0.156412 0.735952 -0.164767
H26   H     H_    0.596612 0.215295 0.735103 0.156363
C41   C     C_R   0.765008 0.130042 0.664708 -0.131764
H27   H     H_    0.803033 0.168988 0.609279 0.121707
C42   C     C_R   0.831424 0.050759 0.662693 0.083665
H28   H     H_    0.982490 0.346978 0.439656 0.101612
C43   C     C_R   0.856135 0.323716 0.377726 -0.116755
H29   H     H_    0.899127 0.243147 0.309082 0.110635
C44   C     C_R   0.753671 0.369005 0.392692 -0.112892
H30   H     H_    0.717670 0.322192 0.335394 0.119809
C45   C     C_R   0.699010 0.475157 0.480584 0.114631
C46   C     C_R   0.746678 0.532867 0.554752 -0.193520
H31   H     H_    0.705469 0.614066 0.623412 0.110469
C47   C     C_R   0.848275 0.486557 0.540130 -0.114717
H32   H     H_    0.884419 0.531621 0.597540 0.117036
C48   C     C_R   0.903365 0.382382 0.451310 -0.112008
C49   C     C_R   0.495489 0.544493 0.591691 -0.249118
H33   H     H_    0.504350 0.522156 0.648734 0.133159
C50   C     C_R   0.387764 0.579459 0.608703 0.061669
C51   C     C_R   0.373487 0.603717 0.533465 0.018552
C52   C     C_R   0.470481 0.587987 0.438825 -0.242228
H34   H     H_    0.463386 0.606777 0.379183 0.133842
C53   C     C_R   0.577229 0.548667 0.420801 0.068017
C54   C     C_R   0.590561 0.525571 0.497332 0.016267
C55   C     C_R   0.221201 0.591702 0.470345 -0.180533
H35   H     H_    0.272043 0.519369 0.395216 0.107562
C56   C     C_R   0.115184 0.630285 0.486489 -0.122151
H36   H     H_    0.085265 0.587596 0.424252 0.108852
C57   C     C_R   0.047671 0.722961 0.582962 -0.093152
H37   H     H_    0.965622 0.752569 0.595084 0.103728
C58   C     C_R   0.085901 0.776876 0.663846 -0.110148
H38   H     H_    0.033492 0.848670 0.738609 0.104655
C59   C     C_R   0.191804 0.738201 0.648267 -0.129470
H39   H     H_    0.220608 0.781382 0.711408 0.110448
C60   C     C_R   0.260399 0.644945 0.551285 0.122768
C61   C     C_2   0.475497 0.393826 0.947354 -0.232749
H40   H     H_    0.479206 0.347609 0.990078 0.133337
C62   C     C_2   0.567399 0.438878 0.896497 -0.211924
H41   H     H_    0.565150 0.480772 0.849804 0.127737
C63   C     C_2   0.832944 0.956484 0.086991 -0.211729
H42   H     H_    0.780025 0.963949 0.050838 0.143644
C64   C     C_2   0.817346 0.038809 0.184090 -0.172413
H43   H     H_    0.864582 0.034770 0.226342 0.131197
O1    O     O_3   0.610359 0.978484 0.878099 -0.651751
C65   C     C_3   0.614571 0.856771 0.825085 0.293871
H44   H     H_    0.651726 0.819510 0.735329 0.057574
H45   H     H_    0.524754 0.831835 0.852445 0.112916
C66   C     C_3   0.681673 0.802212 0.857093 -1.000424
H46   H     H_    0.677646 0.707376 0.822026 0.214259
H47   H     H_    0.773413 0.820993 0.827067 0.245666
H48   H     H_    0.643775 0.836762 0.946185 0.266358

loop_
_geom_bond_atom_site_label_1
_geom_bond_atom_site_label_2
_geom_bond_distance
_ccdc_geom_bond_type
C6    C12   1.374221 A    
C41   H27   1.083340 S    
C44   H30   1.083064 S    
C45   C46   1.406742 A    
C17   H13   1.079887 S    
C15   H11   1.081058 S    
C14   C22   1.374272 A    
O1    C65   1.417785 S    
C3    H3    1.081856 S    
C19   N15   1.340075 A    
C40   H26   1.081101 S    
C61   H40   1.082558 S    
N8    Ni3   1.838013 S    
C65   H45   1.110964 S    
C27   C36   1.487326 S    
C52   C53   1.398314 A    
C55   C60   1.406303 A    
C64   H43   1.084756 S    
C15   N11   1.333004 A    
N2    Ni2   1.891139 S    
C57   H37   1.082319 S    
C31   C36   1.393365 A    
C55   C56   1.397136 A    
C16   H12   1.079979 S    
C43   C44   1.399212 A    
C18   C23   1.367665 A    
C58   H38   1.082760 S    
C3    C11   1.379877 A    
C15   C23   1.374722 A    
C1    H1    1.079244 S    
C37   C42   1.403330 A    
C29   C30   1.397991 A    
C7    C10   1.373555 A    
C25   C26   1.398294 A    
N6    Ni1   1.890863 S    
N12   N13   1.386841 A    
C56   H36   1.080965 S    
C61   C62   1.337633 D    
C66   H46   1.110514 S    
C58   C59   1.399771 A    
C8    C9    1.385409 A    
C46   C47   1.397356 A    
C19   H15   1.078356 S    
C20   N16   1.330403 A    
C53   C54   1.411508 A    
N3    Ni3   1.871193 S    
C43   C48   1.397459 A    
C12   C35   1.416478 S    
N16   Ni3   1.839552 S    
C65   C66   1.523478 S    
H17   C30   1.082655 S    
C49   C54   1.367414 A    
C27   C28   1.406058 A    
C49   C50   1.394917 A    
C5    H5    1.079520 S    
C1    C9    1.395838 A    
C17   N13   1.343557 A    
N1    N8    1.386842 A    
N9    N15   1.369259 A    
H28   C48   1.082442 S    
C51   C52   1.389388 A    
C11   C62   1.438229 S    
C18   N14   1.320579 A    
C40   C41   1.395474 A    
C32   C33   1.405142 A    
C28   H20   1.083017 S    
C20   C22   1.378316 A    
C49   H33   1.086038 S    
C34   H23   1.087276 S    
C2    N2    1.331429 A    
C4    H4    1.080232 S    
C43   H29   1.080834 S    
C35   C36   1.404257 A    
C31   H22   1.084408 S    
N12   Ni4   1.838013 S    
N2    N7    1.386859 A    
C38   C39   1.399950 A    
C28   C29   1.399817 A    
C26   C27   1.408576 A    
C33   C34   1.362162 A    
N5    Ni2   1.811180 S    
C13   H9    1.077083 S    
C19   C21   1.387344 A    
N13   Ni2   1.810277 S    
C39   H25   1.082526 S    
C5    N5    1.317690 A    
C46   H31   1.081313 S    
C25   H18   1.082560 S    
C20   H16   1.080584 S    
C56   C57   1.396989 A    
C6    N6    1.337825 A    
N9    Ni1   1.811180 S    
C38   O1    1.385323 S    
N4    Ni4   1.839551 S    
C4    N4    1.316600 A    
C21   C61   1.436025 S    
C16   C24   1.387466 A    
C31   C32   1.401373 A    
C39   C40   1.398181 A    
C13   C21   1.375126 A    
N10   Ni2   1.890864 S    
C47   C48   1.396512 A    
C41   C42   1.400305 A    
C8    N8    1.342909 A    
C18   H14   1.082156 S    
C22   C32   1.421108 S    
C63   C64   1.334612 D    
C65   H44   1.116666 S    
C4    C12   1.358807 A    
C3    N3    1.341176 A    
C7    N7    1.317730 A    
C17   C24   1.389224 A    
C34   C35   1.389846 A    
C37   H24   1.081899 S    
C10   C53   1.424540 S    
N7    Ni4   1.872088 S    
C2    C10   1.385082 A    
N15   Ni4   1.871192 S    
C52   H34   1.085123 S    
N10   N16   1.369264 A    
C23   C50   1.425883 S    
C14   H10   1.076504 S    
C51   C60   1.486945 S    
C7    H7    1.079387 S    
C59   C60   1.407457 A    
N3    N5    1.369261 A    
C13   N9    1.318439 A    
C59   H39   1.083001 S    
C26   H19   1.083077 S    
C16   N12   1.343021 A    
N1    Ni1   1.810277 S    
C6    H6    1.081678 S    
C66   H48   1.110007 S    
C66   H47   1.109903 S    
N14   Ni1   1.891140 S    
C37   C38   1.407660 A    
C25   C30   1.396778 A    
C29   H21   1.082483 S    
C9    C63   1.474636 S    
C45   C54   1.490032 S    
C33   C42   1.477230 S    
N11   Ni3   1.872087 S    
C2    H2    1.080895 S    
C44   C45   1.406566 A    
C47   H32   1.082479 S    
N4    N6    1.369262 A    
C50   C51   1.407463 A    
C62   H41   1.083442 S    
C8    H8    1.079104 S    
C5    C11   1.368922 A    
C1    N1    1.347045 A    
N11   N14   1.386860 A    
C55   H35   1.083107 S    
C14   N10   1.323706 A    
C63   H42   1.085279 S    
C57   C58   1.397600 A    
