data_mof_unit_33748.cif
_audit_creation_date              2012-12-11T15:17:43-0500
_audit_creation_method            fapswitch 2.2
_symmetry_space_group_name_H-M    P1
_symmetry_Int_Tables_number       1
_space_group_crystal_system       triclinic
_cell_length_a                    6.934267
_cell_length_b                    20.080471
_cell_length_c                    22.365119
_cell_angle_alpha                 90.019262
_cell_angle_beta                  89.97599
_cell_angle_gamma                 90.012632
_cell_volume                      3114.19350955

loop_
_atom_site_label
_atom_site_type_symbol
_atom_type_description
_atom_site_fract_x
_atom_site_fract_y
_atom_site_fract_z
_atom_type_partial_charge
O1    O     O_R   0.620180 0.810610 0.187990 -0.540435
O2    O     O_R   0.379820 0.189390 0.812010 -0.540435
O3    O     O_R   0.379820 0.189390 0.687990 -0.539594
O4    O     O_R   0.620180 0.810610 0.312010 -0.539594
O5    O     O_R   0.120180 0.689390 0.312010 -0.540215
O6    O     O_R   0.879820 0.310610 0.687990 -0.540215
O7    O     O_R   0.879820 0.310610 0.812010 -0.539636
O8    O     O_R   0.120180 0.689390 0.187990 -0.539636
O9    O     O_R   0.290420 0.818570 0.311590 -0.542226
O10   O     O_R   0.709580 0.181430 0.688410 -0.542226
O11   O     O_R   0.709580 0.181430 0.811590 -0.542485
O12   O     O_R   0.290420 0.818570 0.188410 -0.542485
O13   O     O_R   0.790420 0.681430 0.188410 -0.542676
O14   O     O_R   0.209580 0.318570 0.811590 -0.542676
O15   O     O_R   0.209580 0.318570 0.688410 -0.541846
O16   O     O_R   0.790420 0.681430 0.311590 -0.541846
C1    C     C_R   0.459366 0.834759 0.332194 0.711340
C2    C     C_R   0.540634 0.165241 0.667806 0.711340
C3    C     C_R   0.540544 0.165422 0.832358 0.710983
C4    C     C_R   0.459456 0.834578 0.167642 0.710983
C5    C     C_R   0.959388 0.665250 0.167800 0.709121
C6    C     C_R   0.040612 0.334750 0.832200 0.709121
C7    C     C_R   0.040650 0.334766 0.667803 0.710440
C8    C     C_R   0.959350 0.665234 0.332197 0.710439
H1    H     H_    0.310401 0.360024 0.582380 0.124153
H2    H     H_    0.689599 0.639976 0.417620 0.124153
H3    H     H_    0.689835 0.640112 0.082402 0.123479
H4    H     H_    0.310165 0.359888 0.917598 0.123478
H5    H     H_    0.247129 0.148403 0.911418 0.125226
H6    H     H_    0.752871 0.851597 0.088582 0.125226
H7    H     H_    0.189599 0.859975 0.417579 0.124208
H8    H     H_    0.810401 0.140025 0.582420 0.124208
O17   O     O_3   0.453640 0.707610 0.250000 -0.370239
O18   O     O_3   0.546360 0.292390 0.750000 -0.370239
O19   O     O_3   0.953640 0.792390 0.250000 -0.369571
O20   O     O_3   0.046360 0.207610 0.750000 -0.369571
V1    V     V_3+5 0.178800 0.757860 0.250000 1.397802
V2    V     V_3+5 0.821200 0.242140 0.750000 1.397802
V3    V     V_3+5 0.678800 0.742140 0.250000 1.397737
V4    V     V_3+5 0.321200 0.257860 0.750000 1.397737
C9    C     C_R   0.183380 0.391078 0.577744 -0.221548
C10   C     C_R   0.816620 0.608922 0.422256 -0.221548
C11   C     C_R   0.816771 0.609008 0.077750 -0.222660
C12   C     C_R   0.183229 0.390991 0.922250 -0.222660
C13   C     C_R   0.365032 0.113950 0.918929 -0.216971
C14   C     C_R   0.634967 0.886050 0.081071 -0.216971
C15   C     C_R   0.316626 0.891046 0.422235 -0.221804
C16   C     C_R   0.683374 0.108954 0.577765 -0.221804
C17   C     C_R   0.030205 0.384416 0.618670 -0.083746
C18   C     C_R   0.969795 0.615584 0.381330 -0.083746
C19   C     C_R   0.969883 0.615622 0.118660 -0.083087
C20   C     C_R   0.030117 0.384378 0.881340 -0.083087
C21   C     C_R   0.529316 0.116226 0.881867 -0.084996
C22   C     C_R   0.470684 0.883773 0.118133 -0.084995
C23   C     C_R   0.469831 0.884398 0.381327 -0.084077
C24   C     C_R   0.530169 0.115602 0.618673 -0.084076
C25   C     C_R   0.865208 0.424603 0.611807 -0.219252
C26   C     C_R   0.134792 0.575397 0.388193 -0.219253
C27   C     C_R   0.134800 0.575399 0.111790 -0.218885
C28   C     C_R   0.865200 0.424601 0.888210 -0.218885
C29   C     C_R   0.681964 0.071558 0.892583 -0.223240
C30   C     C_R   0.318035 0.928442 0.107417 -0.223240
C31   C     C_R   0.634848 0.924590 0.388199 -0.218920
C32   C     C_R   0.365152 0.075410 0.611801 -0.218920
C33   C     C_R   0.853256 0.471303 0.565164 0.089264
C34   C     C_R   0.146744 0.528697 0.434836 0.089264
C35   C     C_R   0.146729 0.528685 0.065143 0.089098
C36   C     C_R   0.853271 0.471315 0.934857 0.089098
C37   C     C_R   0.670360 0.024674 0.939114 0.090382
C38   C     C_R   0.329640 0.975326 0.060886 0.090382
C39   C     C_R   0.646791 0.971300 0.434847 0.089058
C40   C     C_R   0.353209 0.028700 0.565153 0.089058
C41   C     C_R   0.006175 0.476915 0.523812 0.053257
C42   C     C_R   0.993825 0.523085 0.476188 0.053257
C43   C     C_R   0.993847 0.523097 0.023810 0.053190
C44   C     C_R   0.006153 0.476903 0.976190 0.053190
C45   C     C_R   0.505898 0.023266 0.976344 0.053467
C46   C     C_R   0.494102 0.976733 0.023656 0.053467
C47   C     C_R   0.493833 0.976909 0.476186 0.053301
C48   C     C_R   0.506166 0.023091 0.523814 0.053301
C49   C     C_R   0.171297 0.436372 0.529953 0.090521
C50   C     C_R   0.828703 0.563628 0.470047 0.090521
C51   C     C_R   0.828807 0.563689 0.029966 0.090933
C52   C     C_R   0.171193 0.436311 0.970034 0.090933
C53   C     C_R   0.353184 0.068305 0.966343 0.088569
C54   C     C_R   0.646816 0.931695 0.033657 0.088569
C55   C     C_R   0.328691 0.936351 0.470030 0.090598
C56   C     C_R   0.671309 0.063649 0.529970 0.090598
C57   C     C_R   0.691000 0.512543 0.559097 -0.190257
C58   C     C_R   0.308999 0.487457 0.440903 -0.190257
C59   C     C_R   0.308910 0.487405 0.059057 -0.190181
C60   C     C_R   0.691090 0.512594 0.940943 -0.190181
C61   C     C_R   0.820174 0.979017 0.949054 -0.181726
C62   C     C_R   0.179826 0.020983 0.050946 -0.181726
C63   C     C_R   0.809067 0.012553 0.440928 -0.190146
C64   C     C_R   0.190933 0.987447 0.559072 -0.190146
C65   C     C_R   0.679006 0.558347 0.512048 -0.182290
C66   C     C_R   0.320994 0.441653 0.487952 -0.182290
C67   C     C_R   0.320863 0.441573 0.012007 -0.182338
C68   C     C_R   0.679137 0.558427 0.987993 -0.182338
C69   C     C_R   0.808620 0.933004 0.995927 -0.190000
C70   C     C_R   0.191380 0.066996 0.004072 -0.190000
C71   C     C_R   0.821046 0.058373 0.487985 -0.182293
C72   C     C_R   0.178953 0.941627 0.512015 -0.182293
H9    H     H_    0.572506 0.509081 0.590549 0.134302
H10   H     H_    0.427494 0.490919 0.409451 0.134302
H11   H     H_    0.427366 0.490858 0.090495 0.134325
H12   H     H_    0.572634 0.509142 0.909505 0.134325
H13   H     H_    0.947143 0.979165 0.920791 0.135658
H14   H     H_    0.052857 0.020835 0.079209 0.135658
H15   H     H_    0.927579 0.009087 0.409482 0.134328
H16   H     H_    0.072421 0.990913 0.590518 0.134328
H17   H     H_    0.746835 0.420074 0.643239 0.127552
H18   H     H_    0.253165 0.579926 0.356761 0.127552
H19   H     H_    0.253108 0.579908 0.143220 0.127498
H20   H     H_    0.746892 0.420092 0.856780 0.127498
H21   H     H_    0.808790 0.072667 0.864234 0.128560
H22   H     H_    0.191210 0.927333 0.135766 0.128560
H23   H     H_    0.753233 0.920058 0.356771 0.128115
H24   H     H_    0.246767 0.079942 0.643229 0.128115
H25   H     H_    0.551707 0.589351 0.508279 0.135866
H26   H     H_    0.448292 0.410649 0.491721 0.135866
H27   H     H_    0.448099 0.410534 0.008214 0.135789
H28   H     H_    0.551901 0.589466 0.991786 0.135789
H29   H     H_    0.927035 0.898663 0.002885 0.133383
H30   H     H_    0.072965 0.101336 0.997115 0.133383
H31   H     H_    0.948355 0.089392 0.491774 0.135837
H32   H     H_    0.051645 0.910608 0.508226 0.135837

loop_
_geom_bond_atom_site_label_1
_geom_bond_atom_site_label_2
_ccdc_geom_bond_type
O5    V1    S    
C38   C46   A    
C11   C51   A    
C41   C42   A    
C37   C45   A    
C10   C50   A    
C43   C51   A    
C44   C52   A    
C47   C55   A    
C33   C41   A    
C34   C58   A    
C45   C46   A    
C33   C57   A    
C64   H16   S    
O11   C3    A    
O17   V3    S    
O18   V4    S    
C23   C31   A    
O19   V1    S    
O10   C2    A    
C37   C61   A    
C7    C17   S    
C39   C63   A    
C49   C66   A    
C34   C42   A    
C40   C48   A    
C17   C25   A    
C30   C38   A    
O3    C2    A    
C66   H26   S    
C41   C49   A    
O12   V1    S    
C65   H25   S    
C20   C28   A    
C27   C35   A    
C21   C29   A    
C60   H12   S    
C26   C34   A    
C69   H29   S    
C16   C56   A    
C71   H31   S    
C1    C23   S    
C2    C24   S    
C12   C20   A    
O15   C7    A    
C15   C23   A    
C13   C21   A    
O16   C8    A    
H7    C15   S    
H8    C16   S    
C14   C22   A    
C42   C50   A    
C9    C17   A    
C63   C71   A    
C8    C18   S    
C30   H22   S    
C29   H21   S    
C18   C26   A    
C59   H11   S    
O20   V4    S    
C58   H10   S    
C4    C22   S    
C61   C69   A    
C60   C68   A    
C25   H17   S    
C22   C30   A    
C12   C52   A    
O14   V4    S    
C62   H14   S    
O17   V1    S    
C39   C47   A    
C47   C48   A    
H5    C13   S    
C68   H28   S    
C15   C55   A    
O11   V2    S    
O19   V3    S    
C43   C44   A    
O2    V4    S    
C31   H23   S    
C72   H32   S    
O4    V3    S    
C9    C49   A    
O12   C4    A    
C35   C59   A    
O8    C5    A    
O13   C5    A    
C62   C70   A    
C10   C18   A    
O4    C1    A    
O9    C1    A    
C31   C39   A    
O3    V4    S    
C51   C68   A    
C64   C72   A    
C50   C65   A    
C28   H20   S    
C19   C27   A    
O8    V1    S    
H1    C9    S    
C5    C19   S    
C56   C71   A    
H2    C10   S    
C6    C20   S    
O9    V1    S    
C67   H27   S    
C29   C37   A    
C16   C24   A    
O1    C4    A    
C38   C62   A    
O2    C3    A    
O18   V2    S    
C52   C67   A    
H6    C14   S    
C25   C33   A    
C70   H30   S    
C36   C44   A    
O7    C6    A    
C32   H24   S    
C13   C53   A    
O10   V2    S    
C57   H9    S    
O14   C6    A    
O20   V2    S    
C48   C56   A    
C63   H15   S    
C3    C21   S    
C24   C32   A    
O5    C8    A    
C11   C19   A    
O6    C7    A    
C36   C60   A    
O7    V2    S    
H4    C12   S    
C32   C40   A    
O15   V4    S    
O13   V3    S    
O1    V3    S    
O16   V3    S    
C45   C53   A    
C55   C72   A    
C40   C64   A    
H3    C11   S    
C35   C43   A    
C28   C36   A    
C27   H19   S    
C46   C54   A    
C57   C65   A    
C26   H18   S    
C59   C67   A    
O6    V2    S    
C54   C69   A    
C58   C66   A    
C53   C70   A    
C61   H13   S    
C14   C54   A    
