data_mof_unit_61308.cif
_audit_creation_date              2012-12-10T17:21:17-0500
_audit_creation_method            fapswitch 2.2
_symmetry_space_group_name_H-M    P1
_symmetry_Int_Tables_number       1
_space_group_crystal_system       triclinic
_cell_length_a                    21.771236
_cell_length_b                    21.771236
_cell_length_c                    29.121892
_cell_angle_alpha                 90.00004
_cell_angle_beta                  90.00004
_cell_angle_gamma                 90.000535
_cell_volume                      13803.3899804

loop_
_atom_site_label
_atom_site_type_symbol
_atom_type_description
_atom_site_fract_x
_atom_site_fract_y
_atom_site_fract_z
_atom_type_partial_charge
C1    C     C_R   0.500000 0.119772 0.500000 1.037253
C2    C     C_R   0.718919 0.458795 0.470610 -0.127103
C3    C     C_R   0.187379 0.563018 0.428247 0.505745
C4    C     C_R   0.436982 0.812621 0.571753 0.505745
C5    C     C_R   0.812619 0.563021 0.571750 0.505751
C6    C     C_R   0.563018 0.187379 0.571753 0.505746
C7    C     C_R   0.187381 0.436978 0.571750 0.505751
C8    C     C_R   0.936979 0.687381 0.928249 0.505751
C9    C     C_R   0.312621 0.936982 0.928247 0.505747
C10   C     C_R   0.063022 0.312619 0.928250 0.505751
C11   C     C_R   0.687379 0.063018 0.928247 0.505745
C12   C     C_R   0.936982 0.312621 0.071753 0.505745
C13   C     C_R   0.541206 0.718919 0.470614 -0.127106
C14   C     C_R   0.312619 0.063021 0.071750 0.505752
C15   C     C_R   0.063018 0.687379 0.071753 0.505746
C16   C     C_R   0.687381 0.936978 0.071750 0.505751
C17   C     C_R   0.394736 0.218509 0.400911 0.581915
C18   C     C_R   0.781492 0.394747 0.400904 0.581920
C19   C     C_R   0.605265 0.781491 0.400912 0.581914
C20   C     C_R   0.218508 0.605253 0.400903 0.581921
C21   C     C_R   0.394747 0.781492 0.599096 0.581921
C22   C     C_R   0.781491 0.605264 0.599089 0.581915
C23   C     C_R   0.605253 0.218508 0.599096 0.581920
C24   C     C_R   0.281081 0.541205 0.470610 -0.127103
C25   C     C_R   0.218508 0.394735 0.599088 0.581915
C26   C     C_R   0.894736 0.718509 0.900911 0.581915
C27   C     C_R   0.281492 0.894747 0.900904 0.581920
C28   C     C_R   0.105265 0.281491 0.900912 0.581914
C29   C     C_R   0.718508 0.105253 0.900903 0.581921
C30   C     C_R   0.894747 0.281492 0.099096 0.581920
C31   C     C_R   0.281491 0.105264 0.099089 0.581915
C32   C     C_R   0.105253 0.718508 0.099096 0.581920
C33   C     C_R   0.718508 0.894735 0.099088 0.581914
C34   C     C_R   0.380188 0.279115 0.410485 -0.389001
C35   C     C_R   0.458795 0.718919 0.529390 -0.127103
C36   C     C_R   0.720884 0.380201 0.410473 -0.388991
C37   C     C_R   0.619813 0.720885 0.410485 -0.389001
C38   C     C_R   0.279115 0.619798 0.410473 -0.388992
C39   C     C_R   0.380202 0.720885 0.589527 -0.388992
C40   C     C_R   0.720885 0.619811 0.589515 -0.389001
C41   C     C_R   0.619799 0.279115 0.589527 -0.388992
C42   C     C_R   0.279115 0.380187 0.589515 -0.389001
C43   C     C_R   0.880188 0.779115 0.910485 -0.389001
C44   C     C_R   0.220885 0.880201 0.910473 -0.388992
C45   C     C_R   0.119813 0.220885 0.910485 -0.389001
C46   C     C_R   0.718919 0.541206 0.529386 -0.127106
C47   C     C_R   0.779115 0.119798 0.910473 -0.388992
C48   C     C_R   0.880202 0.220885 0.089527 -0.388991
C49   C     C_R   0.220885 0.119811 0.089515 -0.389001
C50   C     C_R   0.119799 0.779115 0.089527 -0.388992
C51   C     C_R   0.779115 0.880187 0.089515 -0.389001
C52   C     C_R   0.411516 0.310596 0.444863 0.573749
C53   C     C_R   0.689403 0.411523 0.444854 0.573718
C54   C     C_R   0.588484 0.689403 0.444863 0.573749
C55   C     C_R   0.310597 0.588477 0.444854 0.573718
C56   C     C_R   0.411523 0.689403 0.555146 0.573718
C57   C     C_R   0.541205 0.281081 0.529390 -0.127103
C58   C     C_R   0.689403 0.588484 0.555137 0.573749
C59   C     C_R   0.588477 0.310597 0.555146 0.573719
C60   C     C_R   0.310597 0.411516 0.555136 0.573749
C61   C     C_R   0.911516 0.810597 0.944863 0.573749
C62   C     C_R   0.189403 0.911523 0.944854 0.573718
C63   C     C_R   0.088484 0.189403 0.944863 0.573749
C64   C     C_R   0.810597 0.088477 0.944854 0.573718
C65   C     C_R   0.911523 0.189403 0.055146 0.573718
C66   C     C_R   0.189403 0.088484 0.055137 0.573749
C67   C     C_R   0.088477 0.810597 0.055146 0.573719
C68   C     C_R   0.281081 0.458794 0.529386 -0.127105
C69   C     C_R   0.810597 0.911516 0.055136 0.573749
C70   C     C_R   0.958794 0.781081 0.970614 -0.127106
C71   C     C_R   0.218919 0.958795 0.970610 -0.127103
C72   C     C_R   0.041206 0.218919 0.970614 -0.127106
C73   C     C_R   0.880228 0.500000 0.500000 1.037254
C74   C     C_R   0.781081 0.041205 0.970610 -0.127103
C75   C     C_R   0.958795 0.218919 0.029390 -0.127103
C76   C     C_R   0.218919 0.041206 0.029386 -0.127106
C77   C     C_R   0.041205 0.781081 0.029390 -0.127103
C78   C     C_R   0.781081 0.958794 0.029386 -0.127106
C79   C     C_R   0.465698 0.217285 0.466100 -0.212230
C80   C     C_R   0.782715 0.465698 0.466097 -0.212230
C81   C     C_R   0.534303 0.782715 0.466100 -0.212231
C82   C     C_R   0.217285 0.534302 0.466097 -0.212229
C83   C     C_R   0.465698 0.782715 0.533903 -0.212229
C84   C     C_R   0.500000 0.880228 0.500000 1.037252
C85   C     C_R   0.782715 0.534302 0.533900 -0.212230
C86   C     C_R   0.534302 0.217285 0.533903 -0.212230
C87   C     C_R   0.217285 0.465697 0.533900 -0.212231
C88   C     C_R   0.965698 0.717285 0.966100 -0.212230
C89   C     C_R   0.282715 0.965698 0.966097 -0.212230
C90   C     C_R   0.034303 0.282715 0.966100 -0.212231
C91   C     C_R   0.717285 0.034302 0.966097 -0.212229
C92   C     C_R   0.965698 0.282715 0.033903 -0.212229
C93   C     C_R   0.282715 0.034302 0.033900 -0.212230
C94   C     C_R   0.034302 0.717285 0.033903 -0.212230
C95   C     C_R   0.119772 0.500000 0.500000 1.037252
C96   C     C_R   0.717285 0.965697 0.033900 -0.212231
C97   C     C_R   0.500001 0.312815 0.500001 -0.037685
C98   C     C_R   0.687185 0.499999 0.499999 -0.037685
C99   C     C_R   0.499999 0.687185 0.500001 -0.037685
C100  C     C_R   0.312815 0.500001 0.499999 -0.037685
C101  C     C_R   0.000001 0.812815 0.000001 -0.037685
C102  C     C_R   0.187185 0.999999 0.999999 -0.037685
C103  C     C_R   0.999999 0.187185 0.000001 -0.037685
C104  C     C_R   0.812815 0.000001 0.999999 -0.037685
C105  C     C_R   0.500001 0.185645 0.500000 -0.025583
C106  C     C_R   0.000000 0.619772 1.000000 1.037253
C107  C     C_R   0.814355 0.499999 0.500000 -0.025583
C108  C     C_R   0.499999 0.814355 0.500000 -0.025583
C109  C     C_R   0.185645 0.500001 0.500000 -0.025583
C110  C     C_R   0.000001 0.685645 1.000000 -0.025583
C111  C     C_R   0.314355 0.999999 0.000000 -0.025583
C112  C     C_R   0.999999 0.314355 1.000000 -0.025583
C113  C     C_R   0.685645 0.000001 0.000000 -0.025583
C114  C     C_R   0.621290 0.499998 0.500000 1.169311
C115  C     C_R   0.499998 0.621290 0.500000 1.169310
C116  C     C_R   0.378710 0.500002 0.500000 1.169310
C117  C     C_R   0.380228 1.000000 0.000000 1.037254
C118  C     C_R   0.500002 0.378710 0.500000 1.169311
C119  C     C_R   0.121290 0.999998 1.000000 1.169311
C120  C     C_R   0.999998 0.121290 0.000000 1.169310
C121  C     C_R   0.878710 0.000002 1.000000 1.169310
C122  C     C_R   0.000002 0.878710 0.000000 1.169311
C123  C     C_R   0.500000 0.000000 0.414310 1.009154
C124  C     C_R   1.000000 0.500000 0.414310 1.009175
C125  C     C_R   0.500000 1.000000 0.585690 1.009175
C126  C     C_R   0.000000 0.500000 0.585690 1.009154
C127  C     C_R   1.000000 0.500000 0.914310 1.009155
C128  C     C_R   1.000000 0.380228 1.000000 1.037253
C129  C     C_R   0.500000 1.000000 0.914310 1.009175
C130  C     C_R   1.000000 0.500000 0.085690 1.009175
C131  C     C_R   0.500000 1.000000 0.085690 1.009154
C132  C     C_1   0.500000 0.000000 0.363472 -0.044410
C133  C     C_1   1.000000 0.500000 0.363472 -0.044407
C134  C     C_1   0.500000 1.000000 0.636528 -0.044407
C135  C     C_1   0.000000 0.500000 0.636528 -0.044410
C136  C     C_1   1.000000 0.500000 0.863472 -0.044410
C137  C     C_1   0.500000 1.000000 0.863472 -0.044407
C138  C     C_1   0.000000 0.500000 0.136528 -0.044407
C139  C     C_R   0.619772 0.000000 0.000000 1.037252
C140  C     C_1   0.500000 1.000000 0.136528 -0.044410
C141  C     C_1   0.500000 1.000000 0.321149 0.068424
C142  C     C_1   1.000000 0.500000 0.321148 0.068429
C143  C     C_1   0.500000 1.000000 0.678851 0.068429
C144  C     C_1   1.000000 0.500000 0.678851 0.068424
C145  C     C_1   0.000000 0.500000 0.821149 0.068424
C146  C     C_1   0.500000 1.000000 0.821148 0.068429
C147  C     C_1   1.000000 0.500000 0.178851 0.068429
C148  C     C_1   0.500000 1.000000 0.178851 0.068424
C149  C     C_1   0.500000 0.000000 0.271163 0.070800
C150  C     C_R   0.458794 0.281081 0.470614 -0.127106
C151  C     C_1   1.000000 0.500000 0.271163 0.070805
C152  C     C_1   0.500000 1.000000 0.728837 0.070805
C153  C     C_1   1.000000 0.500000 0.728837 0.070800
C154  C     C_1   1.000000 0.500000 0.771163 0.070800
C155  C     C_1   0.500000 1.000000 0.771163 0.070805
C156  C     C_1   1.000000 0.500000 0.228837 0.070805
C157  C     C_1   0.500000 1.000000 0.228837 0.070800
C158  C     C_R   0.436978 0.187381 0.428250 0.505751
C159  C     C_R   0.812621 0.436982 0.428247 0.505747
C160  C     C_R   0.563022 0.812619 0.428250 0.505751
F1    F     F_    0.633309 0.189224 0.634454 -0.578566
F2    F     F_    0.310775 0.133325 0.134445 -0.578565
F3    F     F_    0.866692 0.310776 0.134455 -0.578566
F4    F     F_    0.689225 0.866673 0.134444 -0.578565
F5    F     F_    0.133327 0.310775 0.865556 -0.578565
F6    F     F_    0.310776 0.866691 0.865545 -0.578566
F7    F     F_    0.866675 0.689225 0.865555 -0.578565
F8    F     F_    0.689224 0.133308 0.865545 -0.578566
F9    F     F_    0.451502 0.129240 0.415736 -0.655942
F10   F     F_    0.870764 0.451504 0.415736 -0.655945
F11   F     F_    0.548498 0.870760 0.415736 -0.655941
F12   F     F_    0.810774 0.633325 0.634445 -0.578565
F13   F     F_    0.129236 0.548497 0.415737 -0.655945
F14   F     F_    0.451503 0.870764 0.584263 -0.655945
F15   F     F_    0.870760 0.548498 0.584264 -0.655942
F16   F     F_    0.548496 0.129236 0.584264 -0.655945
F17   F     F_    0.129240 0.451501 0.584264 -0.655941
F18   F     F_    0.951502 0.629240 0.915736 -0.655942
F19   F     F_    0.370764 0.951504 0.915736 -0.655945
F20   F     F_    0.048498 0.370760 0.915736 -0.655941
F21   F     F_    0.629236 0.048497 0.915737 -0.655945
F22   F     F_    0.951503 0.370764 0.084263 -0.655945
F23   F     F_    0.366692 0.810776 0.634455 -0.578566
F24   F     F_    0.370760 0.048498 0.084264 -0.655942
F25   F     F_    0.048496 0.629236 0.084263 -0.655945
F26   F     F_    0.629240 0.951502 0.084264 -0.655941
F27   F     F_    0.392440 0.368575 0.453901 -0.642110
F28   F     F_    0.631422 0.392447 0.453887 -0.642138
F29   F     F_    0.607560 0.631424 0.453902 -0.642111
F30   F     F_    0.368578 0.607553 0.453887 -0.642139
F31   F     F_    0.392447 0.631422 0.546113 -0.642139
F32   F     F_    0.631425 0.607560 0.546098 -0.642111
F33   F     F_    0.607553 0.368578 0.546112 -0.642138
F34   F     F_    0.189225 0.366673 0.634444 -0.578565
F35   F     F_    0.368575 0.392440 0.546098 -0.642110
F36   F     F_    0.892440 0.868575 0.953901 -0.642110
F37   F     F_    0.131422 0.892447 0.953887 -0.642138
F38   F     F_    0.107560 0.131424 0.953902 -0.642111
F39   F     F_    0.868578 0.107553 0.953887 -0.642139
F40   F     F_    0.892447 0.131422 0.046113 -0.642139
F41   F     F_    0.131425 0.107560 0.046098 -0.642111
F42   F     F_    0.107553 0.868578 0.046112 -0.642138
F43   F     F_    0.868575 0.892440 0.046098 -0.642110
F44   F     F_    0.633327 0.810775 0.365556 -0.578564
F45   F     F_    0.810776 0.366692 0.365545 -0.578566
F46   F     F_    0.366675 0.189225 0.365555 -0.578565
F47   F     F_    0.189224 0.633308 0.365545 -0.578566
F48   F     F_    0.133308 0.689224 0.134454 -0.578566
H1    H     H_    0.345090 0.302294 0.390645 0.231541
H2    H     H_    0.197704 0.845110 0.890629 0.231543
H3    H     H_    0.154912 0.197705 0.890646 0.231540
H4    H     H_    0.802296 0.154890 0.890628 0.231543
H5    H     H_    0.845110 0.197704 0.109372 0.231543
H6    H     H_    0.197706 0.154910 0.109354 0.231541
H7    H     H_    0.154890 0.802296 0.109371 0.231543
H8    H     H_    0.802295 0.845088 0.109354 0.231540
H9    H     H_    0.697704 0.345110 0.390629 0.231543
H10   H     H_    0.654912 0.697705 0.390646 0.231540
H11   H     H_    0.302296 0.654890 0.390628 0.231543
H12   H     H_    0.345110 0.697704 0.609372 0.231543
H13   H     H_    0.697705 0.654910 0.609354 0.231541
H14   H     H_    0.654890 0.302296 0.609371 0.231543
H15   H     H_    0.302295 0.345088 0.609353 0.231540
H16   H     H_    0.845090 0.802294 0.890645 0.231541
O1    O     O_R   0.551720 0.091610 0.499990 -0.594252
O2    O     O_R   0.408390 0.051720 0.999990 -0.594255
O3    O     O_R   0.948280 0.408390 0.999990 -0.594252
O4    O     O_R   0.591610 0.948280 0.999990 -0.594256
O5    O     O_R   0.051720 0.408390 0.000010 -0.594255
O6    O     O_R   0.408390 0.948280 0.000010 -0.594253
O7    O     O_R   0.948280 0.591610 0.000010 -0.594256
O8    O     O_R   0.591610 0.051720 0.000010 -0.594252
O9    O     O_R   0.551720 0.000010 0.436860 -0.578126
O10   O     O_R   0.999990 0.551720 0.436860 -0.578124
O11   O     O_R   0.448280 0.999990 0.436860 -0.578126
O12   O     O_R   0.908390 0.551720 0.499990 -0.594255
O13   O     O_R   0.000010 0.448280 0.436860 -0.578125
O14   O     O_R   0.551720 0.999990 0.563140 -0.578125
O15   O     O_R   0.999990 0.448280 0.563140 -0.578126
O16   O     O_R   0.448280 0.000010 0.563140 -0.578124
O17   O     O_R   0.000010 0.551720 0.563140 -0.578126
O18   O     O_R   0.051720 0.500010 0.936860 -0.578126
O19   O     O_R   0.499990 0.051720 0.936860 -0.578124
O20   O     O_R   0.948280 0.499990 0.936860 -0.578126
O21   O     O_R   0.500010 0.948280 0.936860 -0.578125
O22   O     O_R   0.051720 0.499990 0.063140 -0.578125
O23   O     O_R   0.448280 0.908390 0.499990 -0.594252
O24   O     O_R   0.499990 0.948280 0.063140 -0.578126
O25   O     O_R   0.948280 0.500010 0.063140 -0.578124
O26   O     O_R   0.500010 0.051720 0.063140 -0.578126
O27   O     O_R   0.591590 0.499990 0.535660 -0.585549
O28   O     O_R   0.500010 0.591590 0.535660 -0.585540
O29   O     O_R   0.408410 0.500010 0.535660 -0.585549
O30   O     O_R   0.499990 0.408410 0.535660 -0.585540
O31   O     O_R   0.591590 0.500010 0.464340 -0.585540
O32   O     O_R   0.500010 0.408410 0.464340 -0.585549
O33   O     O_R   0.408410 0.499990 0.464340 -0.585540
O34   O     O_R   0.091610 0.448280 0.499990 -0.594256
O35   O     O_R   0.499990 0.591590 0.464340 -0.585549
O36   O     O_R   0.091590 0.999990 0.035660 -0.585549
O37   O     O_R   0.000010 0.091590 0.035660 -0.585540
O38   O     O_R   0.908410 0.000010 0.035660 -0.585549
O39   O     O_R   0.999990 0.908410 0.035660 -0.585540
O40   O     O_R   0.091590 0.000010 0.964340 -0.585540
O41   O     O_R   0.000010 0.908410 0.964340 -0.585549
O42   O     O_R   0.908410 0.999990 0.964340 -0.585540
O43   O     O_R   0.999990 0.091590 0.964340 -0.585549
O44   O     O_R   0.551720 0.908390 0.500010 -0.594255
O45   O     O_R   0.908390 0.448280 0.500010 -0.594253
O46   O     O_R   0.448280 0.091610 0.500010 -0.594256
O47   O     O_R   0.091610 0.551720 0.500010 -0.594252
O48   O     O_R   0.051720 0.591610 0.999990 -0.594252
Zn1   Zn    Zn3+2 0.569070 1.000000 0.500000 1.112734
Zn2   Zn    Zn3+2 0.500000 0.500000 0.452400 1.159753
Zn3   Zn    Zn3+2 1.000000 0.000000 0.047600 1.159752
Zn4   Zn    Zn3+2 1.000000 1.000000 0.952400 1.159753
Zn5   Zn    Zn3+2 1.000000 0.569070 0.500000 1.112734
Zn6   Zn    Zn3+2 0.430930 1.000000 0.500000 1.112734
Zn7   Zn    Zn3+2 0.000000 0.430930 0.500000 1.112734
Zn8   Zn    Zn3+2 0.069070 0.500000 0.000000 1.112734
Zn9   Zn    Zn3+2 0.500000 0.069070 0.000000 1.112734
Zn10  Zn    Zn3+2 0.930930 0.500000 0.000000 1.112734
Zn11  Zn    Zn3+2 0.500000 0.930930 0.000000 1.112734
Zn12  Zn    Zn3+2 0.500000 0.500000 0.547600 1.159752

loop_
_geom_bond_atom_site_label_1
_geom_bond_atom_site_label_2
_ccdc_geom_bond_type
C51   H8    S    
C125  C134  S    
C95   O34   A    
C85   C107  A    
C106  O48   A    
C128  O5    A    
C124  O13   A    
C159  F10   S    
C123  C132  S    
C8    C26   A    
C77   C94   A    
O7    Zn10  S    
C77   C101  A    
C103  C120  S    
C11   F21   S    
O27   Zn12  S    
O18   Zn8   S    
C14   C31   A    
C132  C141  T    
C70   C88   A    
C140  C148  T    
C79   C158  A    
C130  O22   A    
C70   C101  A    
C141  C149  S    
C15   C32   A    
C66   F41   S    
C61   C70   A    
C129  O21   A    
C57   C86   A    
C24   C55   A    
O38   Zn3   S    
C15   F25   S    
C80   C107  A    
C84   O44   A    
O33   Zn2   S    
O40   Zn4   S    
C124  C133  S    
C29   C47   A    
C18   F45   S    
C19   C160  A    
C30   F3    S    
C29   F8    S    
C30   C48   A    
C17   F46   S    
O13   Zn7   S    
C53   F28   S    
O28   Zn12  S    
C99   C115  S    
C121  O38   A    
C122  O39   A    
C57   C59   A    
C104  C121  S    
C81   C160  A    
C6    C23   A    
C1    O1    A    
C13   C81   A    
C117  O6    A    
C97   C118  S    
C72   C90   A    
C106  O7    A    
C7    F17   S    
O35   Zn2   S    
C144  C153  S    
C24   C82   A    
O30   Zn12  S    
C3    C82   A    
C73   O12   A    
C36   C53   A    
C19   C37   A    
C134  C143  T    
C123  O9    A    
O36   Zn3   S    
C27   C44   A    
C3    F13   S    
C12   F22   S    
C38   C55   A    
C146  C155  S    
C112  C128  S    
C78   C96   A    
C100  C116  S    
O44   Zn1   S    
O21   Zn11  S    
C11   C29   A    
C117  O2    A    
C113  C139  S    
C139  O8    A    
C18   C159  A    
C52   F27   S    
C90   C112  A    
O8    Zn9   S    
C32   F48   S    
O45   Zn7   S    
C118  O30   A    
C50   C67   A    
C122  O41   A    
C14   C93   A    
C41   H14   S    
C9    F19   S    
O29   Zn12  S    
C121  O42   A    
C46   C85   A    
C88   C110  A    
C125  O14   A    
C119  O36   A    
C46   C98   A    
C31   F2    S    
C57   C97   A    
O48   Zn8   S    
C120  O43   A    
C4    F14   S    
C47   H4    S    
C46   C58   A    
C75   C103  A    
C87   C109  A    
C5    F15   S    
O32   Zn2   S    
C69   C78   A    
C127  O18   A    
C37   H10   S    
C31   C49   A    
O9    Zn1   S    
C35   C99   A    
C126  O15   A    
C49   C66   A    
C26   C43   A    
C116  O29   A    
C76   C102  A    
C28   C45   A    
C7    C87   A    
C26   F7    S    
C16   C96   A    
C40   C58   A    
O25   Zn10  S    
C5    C22   A    
O31   Zn2   S    
C78   C104  A    
O12   Zn5   S    
C82   C109  A    
O17   Zn5   S    
C39   H12   S    
C33   F4    S    
C2    C80   A    
C127  C136  S    
C41   C59   A    
C116  O33   A    
C95   C109  S    
C10   C90   A    
O42   Zn4   S    
C47   C64   A    
C35   C83   A    
C22   C40   A    
C92   C112  A    
C80   C159  A    
C115  O28   A    
C129  O19   A    
C44   C62   A    
C54   F29   S    
C49   H6    S    
C45   C63   A    
C43   C61   A    
C59   F33   S    
C91   C113  A    
O15   Zn7   S    
C139  O4    A    
C8    C88   A    
C74   C91   A    
C13   C99   A    
C68   C100  A    
C81   C108  A    
C147  C156  S    
C34   H1    S    
C11   C91   A    
C76   C93   A    
C65   F40   S    
C20   C38   A    
C27   F6    S    
C137  C146  T    
O41   Zn4   S    
C119  O40   A    
C71   C89   A    
C152  C155  T    
C138  C147  T    
C97   C150  A    
C66   C76   A    
C126  O17   A    
C133  C142  T    
C3    C20   A    
C39   C56   A    
C45   H3    S    
C151  C156  T    
O22   Zn8   S    
C17   C158  A    
C61   F36   S    
C32   C50   A    
C83   C108  A    
C125  O16   A    
C118  O32   A    
C28   F5    S    
C93   C111  A    
C79   C150  A    
C123  O11   A    
C37   C54   A    
C75   C92   A    
O4    Zn11  S    
C19   F44   S    
C143  C152  S    
C71   C102  A    
C126  C135  S    
C69   F43   S    
O39   Zn3   S    
C84   O23   A    
C7    C25   A    
C58   F32   S    
C48   C65   A    
O26   Zn9   S    
O16   Zn6   S    
C96   C113  A    
C86   C105  A    
C55   F30   S    
C145  C154  S    
C42   C60   A    
C42   H15   S    
O14   Zn1   S    
O3    Zn10  S    
C114  O31   A    
C9    C27   A    
C74   C104  A    
C13   C54   A    
C106  C110  S    
C130  O25   A    
C10   C28   A    
C1    O46   A    
C21   F23   S    
C48   H5    S    
C135  C144  T    
C12   C30   A    
C35   C56   A    
C131  C140  S    
O11   Zn6   S    
O1    Zn1   S    
C38   H11   S    
C12   C92   A    
C67   C77   A    
C127  O20   A    
C136  C145  T    
C62   F37   S    
C2    C53   A    
C6    C86   A    
C25   C42   A    
C14   F24   S    
C24   C100  A    
C131  O26   A    
C158  F9    S    
C95   O47   A    
O37   Zn3   S    
C72   C103  A    
C9    C89   A    
C33   C51   A    
C98   C114  S    
C89   C111  A    
O5    Zn8   S    
C34   C52   A    
C101  C122  S    
C23   C41   A    
C63   F38   S    
C40   H13   S    
C111  C117  S    
C60   C68   A    
C10   F20   S    
O46   Zn6   S    
O23   Zn6   S    
C43   H16   S    
O2    Zn9   S    
C5    C85   A    
C67   F42   S    
C73   O45   A    
O19   Zn9   S    
O43   Zn4   S    
C4    C21   A    
C4    C83   A    
C6    F16   S    
C50   H7    S    
C128  O3    A    
C114  O27   A    
O6    Zn11  S    
O20   Zn10  S    
C84   C108  S    
C160  F11   S    
C94   C110  A    
C62   C71   A    
C142  C151  S    
C44   H2    S    
C148  C157  S    
C22   F12   S    
C56   F31   S    
C65   C75   A    
C73   C107  S    
C131  O24   A    
C25   F34   S    
C36   H9    S    
C8    F18   S    
O47   Zn5   S    
C15   C94   A    
C129  C137  S    
C63   C72   A    
C2    C98   A    
C79   C105  A    
C52   C150  A    
C16   C33   A    
C17   C34   A    
C64   F39   S    
O34   Zn7   S    
O10   Zn5   S    
C68   C87   A    
C64   C74   A    
C115  O35   A    
C21   C39   A    
C51   C69   A    
C20   F47   S    
C149  C157  T    
C153  C154  T    
C16   F26   S    
C18   C36   A    
C124  O10   A    
O24   Zn11  S    
C120  O37   A    
C102  C119  S    
C60   F35   S    
C1    C105  S    
C23   F1    S    
C130  C138  S    
