data_mof_unit_17547.cif
_audit_creation_date              2012-12-10T18:53:46-0500
_audit_creation_method            fapswitch 2.2
_symmetry_space_group_name_H-M    P1
_symmetry_Int_Tables_number       1
_space_group_crystal_system       triclinic
_cell_length_a                    10.613707
_cell_length_b                    9.849276
_cell_length_c                    19.093684
_cell_angle_alpha                 90.023423
_cell_angle_beta                  90.448572
_cell_angle_gamma                 90.291312
_cell_volume                      1995.91556775

loop_
_atom_site_label
_atom_site_type_symbol
_atom_type_description
_atom_site_fract_x
_atom_site_fract_y
_atom_site_fract_z
_atom_type_partial_charge
C1    C     C_R   0.260459 0.499727 0.499724 0.961275
C2    C     C_R   0.066865 0.552784 0.558343 0.011467
C3    C     C_R   0.871947 0.500704 0.500077 -0.067274
C4    C     C_R   0.128140 0.499309 0.499952 -0.064782
C5    C     C_R   0.578051 0.073139 0.544300 0.095289
C6    C     C_R   0.421598 0.926822 0.455909 0.092383
C7    C     C_R   0.421560 0.071983 0.455946 0.100891
C8    C     C_R   0.578112 0.927940 0.544259 0.093760
C9    C     C_R   0.480038 0.627713 0.254734 -0.316121
C10   C     C_R   0.458504 0.380781 0.746605 -0.293137
C11   C     C_R   0.477913 0.626240 0.745320 -0.282324
C12   C     C_R   0.739569 0.500275 0.500284 0.962399
C13   C     C_R   0.446384 0.384493 0.253522 -0.293990
C14   C     C_R   0.456559 0.634277 0.182890 0.452172
C15   C     C_R   0.437499 0.383327 0.818462 0.464879
C16   C     C_R   0.448629 0.631593 0.815828 0.463728
C17   C     C_R   0.411961 0.390120 0.183089 0.449248
C18   C     C_R   0.423175 0.514426 0.146635 -0.136622
C19   C     C_R   0.432238 0.509490 0.853357 -0.161821
C20   C     C_R   0.478555 0.503035 0.289714 -0.158717
C21   C     C_R   0.481280 0.501681 0.710212 -0.176986
C22   C     C_3   0.566670 0.832228 0.156191 0.085001
C23   C     C_R   0.422038 0.514593 0.929150 0.302272
C24   C     C_3   0.540487 0.969354 0.190635 -0.338777
C25   C     C_3   0.660290 0.054773 0.197759 -0.926700
C26   C     C_3   0.531176 0.212985 0.881754 0.108410
C27   C     C_3   0.591824 0.111553 0.831444 -0.380657
C28   C     C_3   0.703009 0.039188 0.865812 -0.898848
C29   C     C_3   0.315636 0.795694 0.856822 0.101067
C30   C     C_3   0.261113 0.858031 0.789450 -0.385600
C31   C     C_3   0.129889 0.915687 0.801503 -0.932507
C32   C     C_3   0.245266 0.253471 0.152521 0.118581
C33   C     C_3   0.207721 0.170954 0.217273 -0.403462
C34   C     C_R   0.416475 0.517814 0.070180 0.352951
C35   C     C_3   0.067192 0.137371 0.216585 -0.963472
C36   C     C_R   0.497443 0.500273 0.365287 0.929454
C37   C     C_R   0.497853 0.500130 0.634678 0.932555
C38   C     C_R   0.064035 0.446686 0.441591 0.014732
C39   C     C_R   0.936078 0.553168 0.558486 0.013552
C40   C     C_R   0.933271 0.447180 0.441707 0.009490
H1    H     H_    0.499461 0.720728 0.283078 0.176781
H2    H     H_    0.884271 0.294149 0.375360 0.191395
H3    H     H_    0.114289 0.548673 0.661691 0.182037
H4    H     H_    0.115933 0.705676 0.624802 0.187749
H5    H     H_    0.604361 0.850802 0.102891 0.175032
H6    H     H_    0.642273 0.777907 0.185802 0.119417
H7    H     H_    0.470906 0.025330 0.158130 0.272641
H8    H     H_    0.499576 0.953460 0.243393 0.199420
H9    H     H_    0.730853 0.001496 0.230919 0.256166
H10   H     H_    0.637701 0.153408 0.222745 0.275314
H11   H     H_    0.701168 0.074897 0.145375 0.264679
H12   H     H_    0.457280 0.284087 0.719545 0.178996
H13   H     H_    0.508285 0.159424 0.931297 0.185464
H14   H     H_    0.599932 0.294896 0.896014 0.117492
H15   H     H_    0.520858 0.034611 0.814867 0.254669
H16   H     H_    0.625767 0.165654 0.784144 0.201776
H17   H     H_    0.775978 0.114012 0.882452 0.254096
H18   H     H_    0.745463 0.967792 0.827757 0.264118
H19   H     H_    0.671077 0.980430 0.912112 0.277629
H20   H     H_    0.313531 0.873667 0.898861 0.186600
H21   H     H_    0.254830 0.710135 0.874923 0.125619
H22   H     H_    0.324096 0.940616 0.770811 0.233849
H23   H     H_    0.493867 0.720850 0.717772 0.182398
H24   H     H_    0.254427 0.779255 0.747918 0.214471
H25   H     H_    0.064732 0.834401 0.819391 0.258421
H26   H     H_    0.092637 0.958616 0.751764 0.260167
H27   H     H_    0.133855 0.997748 0.841406 0.278792
H28   H     H_    0.215700 0.195923 0.105055 0.181765
H29   H     H_    0.192459 0.351298 0.150957 0.125204
H30   H     H_    0.262247 0.074998 0.219085 0.232295
H31   H     H_    0.228975 0.230207 0.265319 0.217072
H32   H     H_    0.010901 0.232172 0.216167 0.262516
H33   H     H_    0.043139 0.078544 0.264295 0.260100
H34   H     H_    0.444711 0.287609 0.280161 0.178295
H35   H     H_    0.042333 0.075454 0.169795 0.272530
H36   H     H_    0.752386 0.122150 0.580240 0.164022
H37   H     H_    0.638222 0.121296 0.642097 0.150768
H38   H     H_    0.246707 0.877665 0.420931 0.164857
H39   H     H_    0.359553 0.878897 0.358404 0.153137
H40   H     H_    0.246643 0.118221 0.421507 0.162727
H41   H     H_    0.358676 0.117376 0.358746 0.144409
H42   H     H_    0.752742 0.881936 0.579405 0.161048
H43   H     H_    0.639695 0.880866 0.641783 0.155308
H44   H     H_    0.105773 0.296041 0.373217 0.187137
H45   H     H_    0.109274 0.454530 0.338522 0.181905
H46   H     H_    0.894077 0.702947 0.627449 0.183938
H47   H     H_    0.891065 0.543901 0.661486 0.181125
H48   H     H_    0.886246 0.451007 0.338351 0.177390
N1    N     N_R   0.500000 0.857200 0.500000 -0.084750
N2    N     N_3   0.138643 0.603696 0.616966 -0.465560
N3    N     N_3   0.659056 0.148311 0.590531 -0.393493
N4    N     N_3   0.339857 0.851645 0.410069 -0.391074
N5    N     N_3   0.339485 0.145769 0.410255 -0.390631
N6    N     N_3   0.659802 0.853953 0.590135 -0.386736
N7    N     N_R   0.500000 0.142800 0.500000 -0.084252
N8    N     N_R   0.340707 0.431685 0.033581 -0.167382
N9    N     N_R   0.497112 0.600928 0.965654 -0.141740
N10   N     N_R   0.343362 0.430041 0.964025 -0.143758
N11   N     N_R   0.494525 0.602237 0.034935 -0.153514
N12   N     N_3   0.132822 0.396605 0.382520 -0.461187
N13   N     N_3   0.867292 0.602433 0.617743 -0.456120
N14   N     N_3   0.861592 0.396172 0.383086 -0.462826
O1    O     O_R   0.316770 0.614620 0.500000 -0.600939
O2    O     O_3   0.416469 0.262325 0.853430 -0.634661
O3    O     O_3   0.443040 0.757452 0.848022 -0.640146
O4    O     O_3   0.377801 0.271186 0.149213 -0.650275
O5    O     O_R   0.683230 0.385380 0.500000 -0.599357
O6    O     O_R   0.683230 0.614620 0.500000 -0.601377
O7    O     O_R   0.316770 0.385380 0.500000 -0.602103
O8    O     O_R   0.499990 0.614700 0.398140 -0.612389
O9    O     O_R   0.500010 0.385300 0.601860 -0.612142
O10   O     O_R   0.500010 0.614700 0.601860 -0.603213
O11   O     O_R   0.499990 0.385300 0.398140 -0.600993
O12   O     O_3   0.452053 0.758720 0.148681 -0.633751
Zn1   Zn    Zn3+2 0.500000 0.653120 0.500000 0.982996
Zn2   Zn    Zn3+2 0.500000 0.346880 0.500000 0.984883

loop_
_geom_bond_atom_site_label_1
_geom_bond_atom_site_label_2
_ccdc_geom_bond_type
C31   H26   S    
N1    Zn1   S    
H42   N6    S    
C30   H24   S    
C14   C18   A    
C19   C23   S    
C10   H12   S    
C28   H17   S    
C31   H27   S    
C35   H35   S    
C26   C27   S    
O6    Zn1   S    
C34   N8    A    
C15   C19   A    
C11   H23   S    
C10   C15   A    
C30   C31   S    
C27   H15   S    
C26   H14   S    
C2    N2    S    
C25   H10   S    
C37   O10   A    
C3    C12   S    
O7    Zn2   S    
N9    N11   A    
H47   N13   S    
C2    C39   A    
H37   N3    S    
N8    N10   A    
O9    Zn2   S    
C15   O2    S    
C1    O1    A    
C32   H28   S    
O11   Zn2   S    
C1    O7    A    
C3    C39   A    
C32   O4    S    
C29   O3    S    
C36   O11   A    
H2    N14   S    
C5    N7    A    
C39   N13   S    
C6    C7    A    
C25   H9    S    
C10   C21   A    
C7    N5    S    
C29   H21   S    
H3    N2    S    
C24   H8    S    
C8    N6    S    
C24   C25   S    
O1    Zn1   S    
C38   N12   S    
C12   O6    A    
C27   H16   S    
H38   N4    S    
C14   O12   S    
H43   N6    S    
C11   C21   A    
H44   N12   S    
C2    C4    A    
C9    C14   A    
C25   H11   S    
C29   C30   S    
C5    C8    A    
H41   N5    S    
C11   C16   A    
C9    C20   A    
C29   H20   S    
N7    Zn2   S    
C23   N10   A    
C17   C18   A    
C18   C34   S    
H39   N4    S    
C5    N3    S    
C33   H30   S    
C16   O3    S    
C23   N9    A    
C4    C38   A    
C3    C40   A    
C30   H22   S    
C36   O8    A    
C22   C24   S    
C26   H13   S    
H4    N2    S    
C28   H19   S    
C31   H25   S    
C35   H33   S    
C13   C20   A    
C22   H6    S    
C24   H7    S    
C35   H32   S    
C12   O5    A    
H48   N14   S    
C7    N7    A    
C32   H29   S    
C28   H18   S    
C6    N1    A    
C34   N11   A    
C9    H1    S    
C13   C17   A    
C1    C4    S    
C32   C33   S    
H45   N12   S    
C17   O4    S    
C38   C40   A    
C16   C19   A    
C6    N4    S    
C33   C35   S    
C26   O2    S    
O5    Zn2   S    
C37   O9    A    
C33   H31   S    
H36   N3    S    
C40   N14   S    
C20   C36   S    
C22   O12   S    
C22   H5    S    
C21   C37   S    
C13   H34   S    
C27   C28   S    
C8    N1    A    
H40   N5    S    
H46   N13   S    
O8    Zn1   S    
O10   Zn1   S    
