data_mof_unit_16547.cif
_audit_creation_date              2012-12-10T17:48:38-0500
_audit_creation_method            fapswitch 2.2
_symmetry_space_group_name_H-M    P1
_symmetry_Int_Tables_number       1
_space_group_crystal_system       triclinic
_cell_length_a                    15.731448
_cell_length_b                    10.691294
_cell_length_c                    9.983278
_cell_angle_alpha                 88.613085
_cell_angle_beta                  89.436999
_cell_angle_gamma                 94.907206
_cell_volume                      1672.31889939

loop_
_atom_site_label
_atom_site_type_symbol
_atom_type_description
_atom_site_fract_x
_atom_site_fract_y
_atom_site_fract_z
_atom_type_partial_charge
C1    C     C_R   0.505699 0.260400 0.502393 0.929336
C2    C     C_R   0.450158 0.029133 0.863737 -0.344270
C3    C     C_R   0.400772 0.916599 0.839952 0.353646
C4    C     C_R   0.338625 0.499088 0.500493 0.928819
C5    C     C_R   0.401348 0.866977 0.710030 0.428792
C6    C     C_R   0.454423 0.929443 0.608734 -0.041539
C7    C     C_R   0.485673 0.053910 0.625395 -0.054689
C8    C     C_R   0.512481 0.126323 0.508499 -0.153265
C9    C     C_R   0.532095 0.067425 0.388864 0.442195
C10   C     C_R   0.519248 0.938429 0.384643 -0.359971
C11   C     C_R   0.482344 0.869880 0.494081 -0.107602
C12   C     C_3   0.946177 0.424911 0.601765 -0.435198
C13   C     C_R   0.385737 0.337511 0.153239 -0.143732
C14   C     C_R   0.323648 0.258788 0.097215 -0.262940
C15   C     C_R   0.317290 0.251207 0.959467 0.045953
C16   C     C_R   0.492622 0.738170 0.498375 0.956147
C17   C     C_R   0.376674 0.327903 0.876753 0.413799
C18   C     C_R   0.442123 0.414607 0.933124 0.050685
C19   C     C_R   0.443402 0.417527 0.077158 0.108889
C20   C     C_R   0.553336 0.579253 0.070686 -0.113521
C21   C     C_R   0.549086 0.588248 0.928915 0.144047
C22   C     C_R   0.661506 0.500995 0.499337 0.866586
C23   C     C_3   0.918523 0.520331 0.493203 0.092583
C24   C     C_3   0.043343 0.419937 0.599028 0.212474
C25   C     C_3   0.050060 0.491309 0.351218 0.082276
C26   C     C_3   0.950099 0.469456 0.354681 0.718440
C27   C     C_1   0.750706 0.506765 0.497812 -0.169718
C28   C     C_3   0.084541 0.519548 0.495210 0.023132
C29   C     C_3   0.935723 0.748053 0.394007 -0.369565
C30   C     C_3   0.937135 0.891970 0.411118 -0.419966
C31   C     C_3   0.931650 0.960410 0.275783 -0.842911
C32   C     C_3   0.249158 0.158961 0.898468 -0.405000
C33   C     C_3   0.197273 0.069270 0.997829 -0.312758
C34   C     C_3   0.959334 0.662118 0.518960 0.121976
C35   C     C_3   0.139033 0.972556 0.925202 -0.877743
C36   C     C_3   0.579774 0.718527 0.873491 -0.350684
C37   C     C_3   0.665137 0.730851 0.797242 -0.331571
C38   C     C_3   0.699188 0.868887 0.781676 -0.939179
C39   C     C_3   0.121254 0.765259 0.469641 -0.429398
C40   C     C_3   0.151361 0.864576 0.571814 -0.346021
C41   C     C_3   0.207808 0.972748 0.506161 -0.865086
C42   C     C_3   0.920637 0.724005 0.646529 -0.398301
C43   C     C_3   0.921830 0.659532 0.786418 -0.366513
C44   C     C_3   0.915865 0.753480 0.898437 -0.903793
C45   C     C_3   0.060304 0.654514 0.534925 -0.140242
C46   C     C_1   0.826316 0.513059 0.496022 0.044226
C47   C     C_1   0.175592 0.510240 0.498274 0.018685
C48   C     C_1   0.250286 0.503683 0.500577 -0.169065
C49   C     C_R   0.490657 0.098153 0.757697 -0.131044
H1    H     H_    0.915780 0.328952 0.584009 0.200597
H2    H     H_    0.068648 0.575850 0.287071 0.152037
H3    H     H_    0.074435 0.659211 0.643223 0.227967
H4    H     H_    0.128499 0.397196 0.736370 0.333953
H5    H     H_    0.988389 0.946142 0.212546 0.253051
H6    H     H_    0.872912 0.925316 0.222752 0.267148
H7    H     H_    0.929723 0.062625 0.291437 0.271634
H8    H     H_    0.881526 0.913946 0.473129 0.224738
H9    H     H_    0.995511 0.930907 0.461065 0.240064
H10   H     H_    0.976239 0.731140 0.306228 0.220711
H11   H     H_    0.869338 0.719646 0.363285 0.236382
H12   H     H_    0.922558 0.440928 0.703041 0.199337
H13   H     H_    0.575694 0.080497 0.204388 0.322707
H14   H     H_    0.365081 0.896553 0.026966 0.336732
H15   H     H_    0.317461 0.726788 0.758047 0.375161
H16   H     H_    0.094837 0.019759 0.858505 0.253945
H17   H     H_    0.177742 0.911798 0.865231 0.281613
H18   H     H_    0.101019 0.912402 0.000127 0.246567
H19   H     H_    0.240935 0.017826 0.061464 0.229187
H20   H     H_    0.157049 0.123875 0.062895 0.230545
H21   H     H_    0.203307 0.213675 0.842820 0.184064
H22   H     H_    0.280892 0.100655 0.825723 0.224023
H23   H     H_    0.529083 0.182531 0.783023 0.197139
H24   H     H_    0.313728 0.290352 0.713534 0.298887
H25   H     H_    0.714580 0.908836 0.881113 0.267129
H26   H     H_    0.757927 0.877589 0.718651 0.249411
H27   H     H_    0.651061 0.924099 0.732176 0.277501
H28   H     H_    0.712569 0.677251 0.850540 0.224988
H29   H     H_    0.656716 0.696344 0.695188 0.257534
H30   H     H_    0.529184 0.758768 0.817213 0.228144
H31   H     H_    0.586820 0.784963 0.957752 0.170156
H32   H     H_    0.080346 0.316703 0.350397 0.343710
H33   H     H_    0.933912 0.312769 0.254617 0.357941
H34   H     H_    0.455117 0.065772 0.963831 0.167781
H35   H     H_    0.942457 0.507363 0.162183 0.336579
H36   H     H_    0.265249 0.937293 0.459670 0.276913
H37   H     H_    0.171780 0.021209 0.428268 0.250633
H38   H     H_    0.228906 0.041564 0.583172 0.242112
H39   H     H_    0.096103 0.902812 0.621200 0.208622
H40   H     H_    0.188671 0.819752 0.650550 0.249413
H41   H     H_    0.179845 0.730854 0.426990 0.228502
H42   H     H_    0.094657 0.811215 0.381676 0.218276
H43   H     H_    0.971795 0.824052 0.894243 0.261653
H44   H     H_    0.856867 0.802489 0.889409 0.275271
H45   H     H_    0.540892 0.891527 0.297112 0.164197
H46   H     H_    0.914828 0.703464 0.997302 0.276535
H47   H     H_    0.865250 0.590381 0.797964 0.222377
H48   H     H_    0.980928 0.612703 0.802888 0.277563
H49   H     H_    0.955130 0.818051 0.656689 0.212212
H50   H     H_    0.853015 0.739997 0.626447 0.192686
H51   H     H_    0.594543 0.645949 0.125402 0.139727
H52   H     H_    0.056816 0.323666 0.568918 0.106071
H53   H     H_    0.385323 0.333296 0.259045 0.219565
H54   H     H_    0.280912 0.203429 0.165254 0.163593
N1    N     N_R   0.499210 0.498800 0.142780 -0.113191
N2    N     N_R   0.499180 0.498720 0.857170 -0.102807
O1    O     O_R   0.500000 0.316780 0.614690 -0.575696
O2    O     O_3   0.567717 0.136758 0.280242 -0.742504
O3    O     O_3   0.355394 0.851177 0.942258 -0.795135
O4    O     O_3   0.351057 0.759485 0.678452 -0.779770
O5    O     O_3   0.373103 0.311072 0.742387 -0.727254
O6    O     O_3   0.088264 0.391963 0.290336 -0.761722
O7    O     O_3   0.923469 0.340005 0.347254 -0.786123
O8    O     O_3   0.914216 0.532121 0.245698 -0.824888
O9    O     O_R   0.499990 0.316750 0.385360 -0.587265
O10   O     O_R   0.377150 0.500020 0.614720 -0.535062
O11   O     O_R   0.377140 0.499990 0.385380 -0.644141
O12   O     O_R   0.500010 0.683250 0.614640 -0.612392
O13   O     O_R   0.500000 0.683220 0.385310 -0.638386
O14   O     O_R   0.622860 0.500010 0.614620 -0.646074
O15   O     O_R   0.622850 0.499980 0.385280 -0.585136
O16   O     O_3   0.075365 0.440559 0.728700 -0.776764
Zn1   Zn    Zn3+2 0.500010 0.500020 0.653130 0.986023
Zn2   Zn    Zn3+2 0.499990 0.499980 0.346870 0.975903

loop_
_geom_bond_atom_site_label_1
_geom_bond_atom_site_label_2
_ccdc_geom_bond_type
C28   C47   S    
H35   O8    S    
O11   Zn2   S    
C1    C8    S    
C4    O10   A    
C34   C42   S    
C43   C44   S    
C17   O5    S    
H15   O4    S    
C7    C8    A    
C21   C36   S    
C38   H27   S    
C25   C28   S    
C22   O15   A    
C41   H37   S    
C12   C23   S    
C37   C38   S    
C36   C37   S    
C18   C19   A    
C42   H49   S    
C38   H25   S    
C30   C31   S    
C10   H45   S    
C30   H8    S    
C24   H52   S    
C19   N1    A    
C23   C26   S    
C44   H44   S    
C29   H10   S    
C8    C9    A    
C49   H23   S    
C31   H7    S    
C24   C28   S    
C9    C10   A    
C39   H41   S    
C44   H43   S    
O15   Zn2   S    
C33   H20   S    
C1    O1    A    
C39   C45   S    
C23   C46   S    
C13   C14   A    
C2    H34   S    
C39   H42   S    
C17   C18   A    
C32   H22   S    
C38   H26   S    
C22   O14   A    
C41   H38   S    
C28   C45   S    
C13   C19   A    
H32   O6    S    
H24   O5    S    
C7    C49   A    
C36   H31   S    
C39   C40   S    
N1    Zn2   S    
C32   H21   S    
H13   O2    S    
C45   H3    S    
C25   C26   S    
C37   H28   S    
C29   C34   S    
H33   O7    S    
O12   Zn1   S    
C25   H2    S    
C29   C30   S    
C2    C49   A    
C16   O13   A    
C11   C16   S    
C47   C48   T    
C20   H51   S    
C29   H11   S    
C35   H18   S    
C23   C34   S    
O1    Zn1   S    
C43   H47   S    
C34   C45   S    
O9    Zn2   S    
C27   C46   T    
C40   C41   S    
C22   C27   S    
C40   H40   S    
C1    O9    A    
C26   O7    S    
C6    C11   A    
C4    C48   S    
O14   Zn1   S    
C15   C17   A    
C4    O11   A    
C43   H48   S    
C3    C5    A    
C36   H30   S    
C15   C32   S    
C12   H1    S    
C6    C7    A    
C20   N1    A    
C3    O3    S    
C9    O2    S    
C41   H36   S    
C37   H29   S    
C12   C24   S    
C35   H17   S    
C32   C33   S    
C40   H39   S    
C2    C3    A    
H14   O3    S    
C26   O8    S    
C44   H46   S    
H4    O16   S    
C16   O12   A    
C12   H12   S    
C14   H54   S    
C5    C6    A    
C5    O4    S    
C30   H9    S    
C24   O16   S    
C33   C35   S    
N2    Zn1   S    
O13   Zn2   S    
C31   H5    S    
C18   N2    A    
C10   C11   A    
C25   O6    S    
C20   C21   A    
C42   C43   S    
O10   Zn1   S    
C35   H16   S    
C14   C15   A    
C31   H6    S    
C13   H53   S    
C42   H50   S    
C21   N2    A    
C33   H19   S    
