data_mof_unit_21847.cif
_audit_creation_date              2012-10-26T19:16:37-0400
_audit_creation_method            fapswitch 2.2
_symmetry_space_group_name_H-M    P1
_symmetry_Int_Tables_number       1
_space_group_crystal_system       triclinic
_cell_length_a                    13.898242
_cell_length_b                    14.757361
_cell_length_c                    16.006139
_cell_angle_alpha                 89.690829
_cell_angle_beta                  89.856941
_cell_angle_gamma                 84.871938
_cell_volume                      3269.68678292

loop_
_atom_site_label
_atom_site_type_symbol
_atom_type_description
_atom_site_fract_x
_atom_site_fract_y
_atom_site_fract_z
_atom_type_partial_charge
C1    C     C_R   0.500033 0.499739 0.659034 0.547130
C2    C     C_R   0.438070 0.958676 0.445466 -0.004437
C3    C     C_1   0.499978 0.197365 0.500628 0.119335
C4    C     C_1   0.499200 0.802708 0.500530 0.123834
C5    C     C_R   0.683431 0.485467 0.499769 0.545854
C6    C     C_R   0.316545 0.514532 0.500203 0.546079
C7    C     C_1   0.213628 0.523418 0.501022 -0.039991
C8    C     C_1   0.786279 0.476614 0.497529 -0.037706
C9    C     C_2   0.022107 0.538792 0.502705 0.288608
C10   C     C_2   0.977536 0.462411 0.491294 0.288443
C11   C     C_1   0.872912 0.469526 0.494904 -0.016814
C12   C     C_R   0.499809 0.500263 0.340979 0.547868
C13   C     C_1   0.126923 0.530793 0.501848 -0.021988
C14   C     C_R   0.473612 0.422998 0.045243 -0.021580
C15   C     C_R   0.522545 0.577930 0.954809 -0.021294
C16   C     C_R   0.501014 0.500308 0.087484 -0.007071
C17   C     C_R   0.496077 0.500221 0.912549 -0.007473
C18   C     C_R   0.525431 0.577884 0.042957 -0.021470
C19   C     C_R   0.471584 0.422700 0.957113 -0.021650
C20   C     C_1   0.500038 0.501212 0.177353 -0.046823
C21   C     C_1   0.498005 0.498965 0.822683 -0.051568
C22   C     C_3   0.983882 0.311832 0.441852 0.006525
C23   C     C_1   0.499212 0.499067 0.747827 -0.024760
C24   C     C_3   0.939149 0.250906 0.506458 -0.259358
C25   C     C_3   0.884689 0.178633 0.463981 -0.480045
C26   C     C_3   0.018760 0.698461 0.519570 0.008610
C27   C     C_3   0.054176 0.712820 0.608806 -0.262215
C28   C     C_3   0.114240 0.794255 0.613138 -0.486688
C29   C     C_R   0.445776 0.340523 0.911648 0.039516
C30   C     C_R   0.362860 0.344633 0.861243 -0.094063
C31   C     C_R   0.338112 0.267062 0.819492 -0.111446
C32   C     C_R   0.395412 0.184814 0.828248 -0.111082
C33   C     C_R   0.477791 0.180073 0.878497 -0.117570
C34   C     C_1   0.499736 0.500973 0.252204 -0.018351
C35   C     C_R   0.503275 0.257659 0.919772 -0.091788
C36   C     C_R   0.551781 0.659687 0.088725 0.040852
C37   C     C_R   0.635019 0.654898 0.138794 -0.095407
C38   C     C_R   0.659716 0.731725 0.181748 -0.105718
C39   C     C_R   0.602150 0.813984 0.174410 -0.094485
C40   C     C_R   0.519740 0.819500 0.124189 -0.102501
C41   C     C_R   0.494061 0.742573 0.081971 -0.077783
C42   C     C_R   0.443410 0.343803 0.093551 0.041349
C43   C     C_R   0.347202 0.321861 0.090585 -0.079350
C44   C     C_R   0.318572 0.247989 0.136526 -0.107267
C45   C     C_R   0.440774 0.054468 0.446620 -0.133663
C46   C     C_R   0.385584 0.195761 0.185837 -0.102319
C47   C     C_R   0.481479 0.217086 0.189049 -0.107012
C48   C     C_R   0.510493 0.290766 0.143000 -0.092661
C49   C     C_R   0.549610 0.658322 0.906426 0.040030
C50   C     C_R   0.480273 0.709632 0.857783 -0.093859
C51   C     C_R   0.505925 0.784665 0.811780 -0.107092
C52   C     C_R   0.600717 0.809145 0.814211 -0.100745
C53   C     C_R   0.670028 0.758562 0.862619 -0.108032
C54   C     C_R   0.644751 0.683304 0.908523 -0.081331
C55   C     C_R   0.372091 0.918738 0.385974 0.034103
C56   C     C_R   0.556567 0.945738 0.556824 -0.135065
C57   C     C_R   0.304003 0.860715 0.414631 -0.078636
C58   C     C_R   0.241308 0.823940 0.358533 -0.103431
C59   C     C_R   0.245159 0.845618 0.273600 -0.098517
C60   C     C_R   0.311717 0.904111 0.244650 -0.111322
C61   C     C_R   0.375241 0.940355 0.300428 -0.100054
C62   C     C_R   0.623881 0.081833 0.618977 0.025012
C63   C     C_R   0.589639 0.153844 0.671550 -0.078655
C64   C     C_R   0.652565 0.192893 0.725956 -0.103298
C65   C     C_R   0.749595 0.159223 0.729883 -0.109926
C66   C     C_R   0.783940 0.086503 0.679304 -0.123288
C67   C     C_R   0.499846 0.097204 0.502650 -0.020223
C68   C     C_R   0.721553 0.047933 0.624051 -0.110684
C69   C     C_R   0.497178 0.903077 0.500959 -0.020576
C70   C     C_R   0.558438 0.041721 0.558813 -0.005024
Cu1   Cu    Cu3+1 0.499970 0.410780 0.500000 0.987371
Cu2   Cu    Cu3+1 0.500030 0.589220 0.500000 0.992473
H1    H     H_    0.395362 0.096287 0.403842 0.110014
H2    H     H_    0.969012 0.758631 0.501982 0.151042
H3    H     H_    0.078656 0.696486 0.473145 0.116746
H4    H     H_    0.990830 0.724476 0.651166 0.168182
H5    H     H_    0.098888 0.651398 0.631151 0.163473
H6    H     H_    0.179798 0.782126 0.573575 0.149434
H7    H     H_    0.137124 0.804157 0.678625 0.143868
H8    H     H_    0.071195 0.857021 0.591515 0.141381
H9    H     H_    0.317323 0.407745 0.854664 0.101499
H10   H     H_    0.274311 0.270640 0.780567 0.110432
H11   H     H_    0.376159 0.124819 0.795906 0.105031
H12   H     H_    0.601530 0.903799 0.599822 0.108147
H13   H     H_    0.522331 0.116424 0.884950 0.111041
H14   H     H_    0.567711 0.253258 0.958014 0.102725
H15   H     H_    0.680690 0.591748 0.144384 0.100035
H16   H     H_    0.723709 0.727574 0.220464 0.108820
H17   H     H_    0.621523 0.873514 0.207429 0.104109
H18   H     H_    0.475864 0.883475 0.117898 0.097323
H19   H     H_    0.429504 0.747580 0.043868 0.101652
H20   H     H_    0.294503 0.362178 0.052985 0.103425
H21   H     H_    0.244340 0.231397 0.134108 0.101670
H22   H     H_    0.363110 0.138895 0.221609 0.099144
H23   H     H_    0.038058 0.268682 0.405114 0.153787
H24   H     H_    0.533283 0.176555 0.227270 0.103170
H25   H     H_    0.585016 0.306598 0.145807 0.099004
H26   H     H_    0.406530 0.691451 0.855619 0.099752
H27   H     H_    0.452323 0.823853 0.774256 0.104534
H28   H     H_    0.620449 0.867265 0.778573 0.107525
H29   H     H_    0.743425 0.777553 0.864424 0.102836
H30   H     H_    0.699180 0.644353 0.945459 0.103515
H31   H     H_    0.299038 0.844520 0.480435 0.099973
H32   H     H_    0.189379 0.779053 0.380983 0.094950
H33   H     H_    0.196311 0.817396 0.230272 0.102645
H34   H     H_    0.929375 0.340399 0.395563 0.116616
H35   H     H_    0.314012 0.921358 0.178933 0.095310
H36   H     H_    0.427221 0.984725 0.276917 0.090491
H37   H     H_    0.514321 0.179869 0.670514 0.120545
H38   H     H_    0.626057 0.249260 0.765155 0.125162
H39   H     H_    0.798139 0.189423 0.772170 0.104038
H40   H     H_    0.859175 0.060491 0.682338 0.101269
H41   H     H_    0.749848 0.992606 0.584301 0.101223
H42   H     H_    0.997336 0.216893 0.546116 0.168071
H43   H     H_    0.888340 0.292288 0.547702 0.172769
H44   H     H_    0.823906 0.211265 0.426397 0.156904
H45   H     H_    0.854936 0.134402 0.512011 0.157637
H46   H     H_    0.934038 0.135623 0.422721 0.138688
N1    N     N_1   0.499970 0.723290 0.500020 -0.190173
N2    N     N_1   0.500030 0.276710 0.499980 -0.192046
O1    O     O_R   0.499950 0.424680 0.619690 -0.492642
O2    O     O_3   0.965512 0.621142 0.515653 -0.593823
O3    O     O_R   0.500050 0.575320 0.380310 -0.483325
O4    O     O_R   0.500000 0.575360 0.619690 -0.489003
O5    O     O_R   0.500000 0.424640 0.380310 -0.490539
O6    O     O_R   0.637820 0.414010 0.499980 -0.495746
O7    O     O_R   0.362180 0.585990 0.500020 -0.500511
O8    O     O_R   0.637870 0.564690 0.499980 -0.478494
O9    O     O_R   0.362130 0.435310 0.500020 -0.478174
O10   O     O_3   0.033421 0.379265 0.481899 -0.592969

loop_
_geom_bond_atom_site_label_1
_geom_bond_atom_site_label_2
_ccdc_geom_bond_type
C15   C18   A    
C66   C68   A    
C24   H42   S    
C22   H23   S    
C25   H46   S    
C53   C54   A    
C48   H25   S    
C26   C27   S    
C59   H33   S    
C31   H10   S    
Cu1   N2    S    
Cu2   O8    S    
C36   C37   A    
C37   C38   A    
C6    O7    A    
C2    C55   S    
C30   C31   A    
C33   C35   A    
C35   H14   S    
C49   C54   A    
C62   C70   S    
C45   H1    S    
C61   H36   S    
C28   H7    S    
C33   H13   S    
C65   H39   S    
C9    C13   S    
C44   H21   S    
C26   H2    S    
C47   C48   A    
C53   H29   S    
C5    O6    A    
C45   C67   A    
C47   H24   S    
C4    N1    T    
C56   H12   S    
C2    C69   A    
C28   H6    S    
C9    C10   D    
C68   H41   S    
C14   C42   S    
C20   C34   T    
C59   C60   A    
C54   H30   S    
C22   O10   S    
C9    O2    S    
C36   C41   A    
C6    O9    A    
C4    C69   S    
C44   C46   A    
C50   C51   A    
C2    C45   A    
C51   H27   S    
C57   H31   S    
C50   H26   S    
Cu2   O7    S    
C51   C52   A    
C24   C25   S    
C3    N2    T    
C25   H44   S    
C39   C40   A    
C12   O5    A    
C58   C59   A    
C22   H34   S    
C52   H28   S    
C17   C21   S    
C38   H16   S    
C60   C61   A    
C63   H37   S    
C43   C44   A    
C10   O10   S    
C62   C63   A    
Cu1   O9    S    
C64   H38   S    
C31   C32   A    
C46   H22   S    
C16   C20   S    
C26   H3    S    
Cu1   O6    S    
C42   C48   A    
C60   H35   S    
C40   C41   A    
C41   H19   S    
C1    C23   S    
C56   C70   A    
C55   C57   A    
Cu2   O3    S    
C49   C50   A    
C14   C16   A    
C58   H32   S    
C42   C43   A    
C12   C34   S    
C27   H4    S    
C19   C29   S    
C52   C53   A    
C15   C17   A    
C32   H11   S    
C46   C47   A    
C14   C19   A    
C37   H15   S    
C3    C67   S    
C27   H5    S    
C25   H45   S    
C5    C8    S    
C6    C7    S    
C29   C35   A    
C43   H20   S    
C62   C68   A    
C67   C70   A    
C40   H18   S    
C64   C65   A    
C30   H9    S    
C21   C23   T    
C1    O4    A    
Cu1   Cu2   S    
C65   C66   A    
C32   C33   A    
C57   C58   A    
C38   C39   A    
C12   O3    A    
C8    C11   T    
C55   C61   A    
C5    O8    A    
C17   C19   A    
C22   C24   S    
C15   C49   S    
C28   H8    S    
C1    O1    A    
Cu2   N1    S    
C10   C11   S    
C29   C30   A    
C63   C64   A    
Cu1   O1    S    
C7    C13   T    
C24   H43   S    
C16   C18   A    
C56   C69   A    
C27   C28   S    
Cu1   O5    S    
C26   O2    S    
C66   H40   S    
C18   C36   S    
C39   H17   S    
Cu2   O4    S    
