data_mof_unit_68003.cif
_audit_creation_date              2013-03-05T15:46:22-0500
_audit_creation_method            fapswitch 2.2
_symmetry_space_group_name_H-M    P1
_symmetry_Int_Tables_number       1
_space_group_crystal_system       triclinic
_cell_length_a                    11.524818
_cell_length_b                    11.555599
_cell_length_c                    18.650652
_cell_angle_alpha                 89.957296
_cell_angle_beta                  90.132861
_cell_angle_gamma                 57.696483
_cell_volume                      2099.38745569

loop_
_atom_site_label
_atom_site_type_symbol
_atom_site_description
_atom_site_fract_x
_atom_site_fract_y
_atom_site_fract_z
_atom_type_partial_charge
O1    O     O_R   0.748800 0.497470 0.428000 -0.452874
O2    O     O_R   0.476420 0.724060 0.429470 -0.414581
C1    C     C_R   0.386221 0.711797 0.390638 0.552592
O3    O     O_R   0.264580 0.744340 0.416750 -0.493692
O4    O     O_R   0.309380 0.472470 0.418200 -0.540965
C2    C     C_R   0.386105 0.355680 0.387174 0.601922
O5    O     O_R   0.501710 0.260430 0.414300 -0.425569
O6    O     O_R   0.728090 0.305600 0.428960 -0.461712
C3    C     C_R   0.785137 0.373599 0.407467 0.608117
O7    O     O_R   0.738760 0.495930 0.588610 -0.434428
O8    O     O_R   0.467110 0.722640 0.578360 -0.462212
C4    C     C_R   0.346556 0.766043 0.604126 0.623560
O9    O     O_R   0.254530 0.742800 0.577360 -0.407566
O10   O     O_R   0.300070 0.471040 0.567100 -0.462498
C5    C     C_R   0.366357 0.350873 0.593276 0.638988
O11   O     O_R   0.491670 0.258900 0.574910 -0.415441
O12   O     O_R   0.718780 0.304180 0.577850 -0.449889
C6    C     C_R   0.758033 0.378051 0.609978 0.604203
Cr1   Cr    Cr6+3 0.601770 0.606860 0.505860 1.216435
Cr2   Cr    Cr6+3 0.291380 0.601660 0.495070 1.160199
Cr3   Cr    Cr6+3 0.606880 0.291510 0.499120 1.239610
O13   O     O_3   0.500010 0.500010 0.500020 -0.378266
C7    C     C_R   0.792000 0.899068 0.059480 0.166919
C8    C     C_R   0.743843 0.035422 0.046052 0.154907
C9    C     C_R   0.657913 0.137619 0.095554 0.167702
C10   C     C_R   0.600274 0.107028 0.155243 0.075385
C11   C     C_R   0.366728 0.330901 0.159236 0.031898
C12   C     C_R   0.469437 0.224234 0.273839 0.254018
C13   C     C_R   0.480226 0.223185 0.197787 0.028189
C14   C     C_R   0.097742 0.669907 0.342448 0.226022
C15   C     C_R   0.003442 0.713273 0.400364 0.156246
C16   C     C_R   0.638104 0.969554 0.161449 0.210843
C17   C     C_R   0.735368 0.867282 0.115756 0.195494
C18   C     C_R   0.264967 0.451004 0.193497 0.189760
C19   C     C_R   0.252462 0.453799 0.269277 -0.013161
C20   C     C_R   0.889648 0.700953 0.393401 0.196016
C21   C     C_R   0.877130 0.643061 0.329615 0.227326
C22   C     C_R   0.993454 0.570379 0.285016 -0.072981
C23   C     C_R   0.117908 0.556223 0.304974 0.003374
C24   C     C_R   0.361574 0.342357 0.309645 0.033653
H1    H     H_    0.986734 0.526754 0.235597 0.199835
C25   C     C_R   0.871695 0.218363 0.305927 0.184075
C26   C     C_R   0.896498 0.209394 0.231974 0.201173
C27   C     C_R   0.950243 0.283795 0.200815 0.000001
C28   C     C_R   0.031509 0.300742 0.252940 0.111522
C29   C     C_R   0.983376 0.330892 0.326182 0.121038
C30   C     C_R   0.875350 0.316203 0.344324 0.035340
C31   C     C_R   0.455246 0.659200 0.261803 0.185041
C32   C     C_R   0.442182 0.704263 0.190003 0.271197
C33   C     C_R   0.343261 0.841750 0.174882 0.054739
C34   C     C_R   0.262021 0.930068 0.229830 -0.014085
H2    H     H_    0.176099 0.029351 0.217425 0.177465
C35   C     C_R   0.287151 0.890680 0.300563 -0.007404
H3    H     H_    0.225108 0.963486 0.341902 0.199584
C36   C     C_R   0.380403 0.754301 0.316949 0.069010
C37   C     C_R   0.373235 0.203838 0.688912 0.158724
C38   C     C_R   0.387122 0.189170 0.762492 0.170453
C39   C     C_R   0.308054 0.304534 0.807925 -0.034968
C40   C     C_R   0.232518 0.435521 0.778780 0.185490
C41   C     C_R   0.226407 0.450942 0.703950 0.208104
C42   C     C_R   0.309671 0.334477 0.659834 0.013830
C43   C     C_R   0.915778 0.333351 0.707773 0.146870
C44   C     C_R   0.914577 0.373443 0.778208 0.093193
C45   C     C_R   0.844167 0.339799 0.829153 -0.011314
C46   C     C_R   0.727444 0.341960 0.807153 0.232970
C47   C     C_R   0.703177 0.348122 0.733217 0.208811
C48   C     C_R   0.799397 0.340220 0.683793 0.030317
C49   C     C_R   0.191794 0.900189 0.702747 0.186574
C50   C     C_R   0.171975 0.906573 0.777162 0.143694
C51   C     C_R   0.287637 0.850232 0.824165 -0.015765
C52   C     C_R   0.419404 0.771332 0.797657 0.194015
C53   C     C_R   0.440045 0.768064 0.724309 0.149203
C54   C     C_R   0.325947 0.822541 0.676410 -0.015392
O14   O     O_R   0.186690 0.923650 0.086970 -0.433176
O15   O     O_R   0.957250 0.194250 0.084630 -0.454335
C55   C     C_R   0.967195 0.289058 0.119244 0.622054
O16   O     O_R   0.934970 0.407490 0.085330 -0.402376
O17   O     O_R   0.203780 0.365190 0.067090 -0.441557
C56   C     C_R   0.330976 0.296256 0.089349 0.648502
O18   O     O_R   0.417600 0.174890 0.067840 -0.537635
O19   O     O_R   0.375320 0.946260 0.070860 -0.462035
C57   C     C_R   0.306519 0.898550 0.103377 0.615213
O20   O     O_R   0.160600 0.919630 0.926660 -0.436288
O21   O     O_R   0.933060 0.190520 0.936020 -0.447656
C58   C     C_R   0.894378 0.308594 0.902682 0.601319
O22   O     O_R   0.908880 0.403460 0.925020 -0.437311
O23   O     O_R   0.179600 0.361450 0.918490 -0.472000
C59   C     C_R   0.294242 0.283227 0.883955 0.598364
O24   O     O_R   0.391510 0.170860 0.907530 -0.444614
O25   O     O_R   0.351130 0.942530 0.922260 -0.451784
C60   C     C_R   0.270405 0.900491 0.897455 0.584508
Cr4   Cr    Cr6+3 0.062440 0.063090 0.008210 1.201250
Cr5   Cr    Cr6+3 0.062880 0.375170 0.998920 1.226299
Cr6   Cr    Cr6+3 0.374700 0.061720 0.992470 1.159300
O26   O     O_3   0.166667 0.166667 0.999870 -0.388193
N1    N     N_R   0.551915 0.100388 0.315654 0.138429
O27   O     O_R   0.684461 0.036259 0.317281 -0.204000
O28   O     O_R   0.493010 0.060823 0.360432 -0.190140
Br1   Br    Br    0.756609 0.763791 0.470181 -0.157227
N2    N     N_R   0.751983 0.652667 0.311062 0.110522
O29   O     O_R   0.637510 0.743408 0.340954 -0.233367
O30   O     O_R   0.749591 0.576972 0.260619 -0.319831
Br2   Br    Br    0.924561 0.058741 0.361384 -0.270419
N3    N     N_R   0.884401 0.109502 0.195230 0.096210
O31   O     O_R   0.795180 0.088242 0.221626 -0.275057
O32   O     O_R   0.990430 0.005280 0.166258 -0.258703
N4    N     N_R   0.174671 0.238700 0.239400 0.001248
O33   O     O_R   0.258914 0.171826 0.291527 -0.294344
O34   O     O_R   0.219987 0.197471 0.175089 -0.423287
Br3   Br    Br    0.084764 0.339582 0.406757 -0.385695
Br4   Br    Br    0.551763 0.468351 0.282304 -0.474672
N5    N     N_R   0.525998 0.612193 0.133854 0.134016
O35   O     O_R   0.651879 0.515058 0.147378 -0.209521
O36   O     O_R   0.483706 0.633255 0.067587 -0.225987
Br5   Br    Br    0.767825 0.688904 0.118520 -0.232682
Br6   Br    Br    0.455456 0.043949 0.628360 -0.235856
N6    N     N_R   0.498821 0.062042 0.789458 0.151207
O37   O     O_R   0.477359 0.969207 0.811373 -0.301320
O38   O     O_R   0.624153 0.033410 0.785585 -0.111686
N7    N     N_R   0.176799 0.552146 0.825384 0.127480
O39   O     O_R   0.255328 0.561148 0.872364 -0.230016
O40   O     O_R   0.047185 0.646924 0.823116 -0.127629
N8    N     N_R   0.141773 0.585067 0.673494 0.158505
O41   O     O_R   0.055525 0.607389 0.622072 -0.189188
O42   O     O_R   0.144673 0.686971 0.700036 -0.244188
Br7   Br    Br    0.052133 0.307040 0.639358 -0.354747
N9    N     N_R   0.922677 0.493807 0.786952 0.094244
O43   O     O_R   0.941389 0.547341 0.730451 -0.204932
O44   O     O_R   0.864950 0.576525 0.840648 -0.170267
N10   N     N_R   0.629904 0.350480 0.858485 0.135625
O45   O     O_R   0.613420 0.410726 0.919794 -0.212857
O46   O     O_R   0.553210 0.302647 0.843808 -0.227635
N11   N     N_R   0.586067 0.352506 0.707758 0.071553
O47   O     O_R   0.595349 0.236658 0.699391 -0.245036
O48   O     O_R   0.467799 0.467454 0.707490 -0.387716
N12   N     N_R   0.077121 0.967195 0.653412 0.126521
O49   O     O_R   0.084312 0.029966 0.597272 -0.271148
O50   O     O_R   0.975830 0.948080 0.657720 -0.132887
Br8   Br    Br    0.010148 0.811239 0.481699 -0.173801
N13   N     N_R   0.035780 0.963187 0.804415 0.128073
O51   O     O_R   0.934865 0.076230 0.778252 -0.327797
O52   O     O_R   0.007347 0.887056 0.842124 -0.132597
Br9   Br    Br    0.571106 0.677822 0.863971 -0.196849
Br10  Br    Br    0.623253 0.711673 0.695520 -0.184325
Br11  Br    Br    0.921975 0.757874 0.994929 -0.138049
Br12  Br    Br    0.763569 0.080638 0.950694 -0.164060
Br13  Br    Br    0.607178 0.319729 0.074474 -0.225203
N14   N     N_R   0.073392 0.774274 0.292988 0.109851
O53   O     O_R   0.949323 0.847215 0.267818 -0.192257
O54   O     O_R   0.170901 0.749139 0.249216 -0.332488
Br14  Br    Br    0.536524 0.923299 0.218484 -0.304808
N15   N     N_R   0.183832 0.571022 0.149456 0.125822
O55   O     O_R   0.051767 0.649353 0.156157 -0.266135
O56   O     O_R   0.242720 0.596906 0.097901 -0.227627

loop_
_geom_bond_atom_site_label_1
_geom_bond_atom_site_label_2
_geom_bond_distance
_ccdc_geom_bond_type
C31   C36   1.414984 A    
O23   C59   1.306115 A    
C10   C16   1.409375 A    
C40   N7    1.436467 S    
C11   C13   1.425273 A    
N10   O46   1.297295 A    
C51   C60   1.457513 S    
O15   C55   1.328568 A    
C25   Br2   1.906921 S    
N3    O32   1.291014 A    
O19   C57   1.330203 A    
C38   C39   1.425636 A    
N8    O41   1.302125 A    
O4    Cr2   2.000171 S    
C28   C29   1.446625 A    
N7    O39   1.301816 A    
O20   Cr4   2.085330 S    
C7    Br11  1.937639 S    
O8    Cr1   1.954500 S    
C21   C22   1.413262 A    
C43   C48   1.374304 A    
O4    C2    1.290795 A    
C38   N6    1.429283 S    
C20   C21   1.409672 A    
N13   O52   1.297768 A    
C11   C56   1.484463 S    
N6    O38   1.300310 A    
C22   C23   1.403286 A    
N8    O42   1.294476 A    
C12   C24   1.430413 A    
O17   Cr5   2.014133 S    
C5    O11   1.301896 A    
C37   C38   1.381021 A    
C18   C19   1.419644 A    
O14   Cr4   2.079710 S    
O24   Cr6   2.096984 S    
C27   C55   1.539573 S    
C26   N3    1.412172 S    
N5    O35   1.298324 A    
C1    C36   1.448429 S    
O21   C58   1.339519 A    
O6    C3    1.327886 A    
C7    C17   1.386115 A    
N1    O28   1.304270 A    
C7    C8    1.384756 A    
C51   C52   1.380626 A    
C15   C20   1.398511 A    
C50   N13   1.434141 S    
C47   C48   1.408679 A    
C40   C41   1.403657 A    
Cr5   O26   2.038569 S    
Cr3   O13   2.037322 S    
N4    O34   1.294687 A    
Cr6   O26   2.032765 S    
O14   C57   1.286361 A    
N5    O36   1.301633 A    
N3    O31   1.277576 A    
N7    O40   1.297580 A    
O25   Cr6   2.021479 S    
C55   O16   1.365771 A    
C35   C36   1.385472 A    
C11   C18   1.405356 A    
C37   Br6   1.929732 S    
C17   Br5   1.888668 S    
O1    Cr1   2.074294 S    
C34   H2    1.065198 S    
O10   Cr2   1.981873 S    
C49   N12   1.446500 S    
Cr1   O13   2.111644 S    
O1    C3    1.315983 A    
C8    C9    1.408417 A    
C6    C48   1.444635 S    
C22   H1    1.073199 S    
N12   O50   1.301523 A    
C43   Br7   1.920754 S    
C18   N15   1.442626 S    
O17   C56   1.305521 A    
C49   C50   1.402649 A    
C33   C34   1.397551 A    
C49   C54   1.399372 A    
C58   O22   1.264682 A    
Cr4   O26   2.106377 S    
O12   Cr3   2.008487 S    
C56   O18   1.276989 A    
C39   C59   1.462563 S    
C41   C42   1.426204 A    
C34   C35   1.373973 A    
C41   N8    1.434069 S    
C19   C23   1.514292 S    
C26   C27   1.425004 A    
N9    O44   1.297719 A    
C43   C44   1.390912 A    
O22   Cr5   2.127060 S    
C47   N11   1.404842 S    
N10   O45   1.299643 A    
O7    Cr1   2.083350 S    
N4    O33   1.295211 A    
N1    O27   1.293599 A    
N2    O30   1.295311 A    
O12   C6    1.305613 A    
C5    C42   1.462655 S    
C9    Br13  1.899346 S    
N13   O51   1.292177 A    
C14   N14   1.421124 S    
O15   Cr4   1.961031 S    
C32   N5    1.438625 S    
N14   O54   1.292075 A    
C31   C32   1.414660 A    
Cr2   O13   2.037080 S    
C3    C30   1.475655 S    
C29   Br3   1.936814 S    
N11   O47   1.294303 A    
C32   C33   1.401899 A    
C2    C24   1.496471 S    
C39   C40   1.390192 A    
C25   C26   1.401873 A    
C15   Br8   1.919429 S    
N9    O43   1.297036 A    
C45   C58   1.455352 S    
C27   C28   1.432742 A    
C33   C57   1.444873 S    
C52   Br9   1.929453 S    
C53   Br10  1.925183 S    
C29   C30   1.386001 A    
C12   C13   1.423640 A    
O9    Cr2   2.112421 S    
O2    Cr1   1.961491 S    
C37   C42   1.387319 A    
N15   O56   1.301602 A    
C53   C54   1.425645 A    
O6    Cr3   1.985299 S    
O8    C4    1.292866 A    
O11   Cr3   2.108493 S    
C35   H3    1.083561 S    
C2    O5    1.292750 A    
O20   C60   1.285029 A    
C46   N10   1.441097 S    
C12   N1    1.449411 S    
C16   C17   1.403390 A    
O2    C1    1.333916 A    
C9    C10   1.435046 A    
C52   C53   1.386145 A    
O5    Cr3   2.134914 S    
N6    O37   1.289367 A    
C45   C46   1.392867 A    
O19   Cr6   1.975990 S    
O25   C60   1.340489 A    
C14   C15   1.422379 A    
C16   Br14  1.860501 S    
O7    C6    1.318726 A    
O23   Cr5   1.966373 S    
O16   Cr5   2.081661 S    
N2    O29   1.294821 A    
C14   C23   1.394295 A    
C19   C24   1.438707 A    
C20   Br1   1.936627 S    
C25   C30   1.358250 A    
C50   C51   1.426670 A    
C44   C45   1.432709 A    
O3    Cr2   2.097027 S    
C28   N4    1.427556 S    
C31   Br4   1.903168 S    
C59   O24   1.255833 A    
C10   C13   1.538594 S    
C46   C47   1.400571 A    
N11   O48   1.298883 A    
O10   C5    1.270279 A    
N12   O49   1.301100 A    
C8    Br12  1.901345 S    
N15   O55   1.296187 A    
O21   Cr4   1.960977 S    
C4    O9    1.322264 A    
C4    C54   1.461907 S    
O18   Cr6   2.149702 S    
N14   O53   1.297495 A    
C21   N2    1.427859 S    
C44   N9    1.452207 S    
C1    O3    1.335610 A    
