data_mof_unit_68339.cif
_audit_creation_date              2012-12-11T14:19:24-0500
_audit_creation_method            fapswitch 2.2
_symmetry_space_group_name_H-M    P1
_symmetry_Int_Tables_number       1
_space_group_crystal_system       triclinic
_cell_length_a                    8.237689
_cell_length_b                    12.828544
_cell_length_c                    15.0163
_cell_angle_alpha                 95.345506
_cell_angle_beta                  98.814674
_cell_angle_gamma                 97.625549
_cell_volume                      1543.80520349

loop_
_atom_site_label
_atom_site_type_symbol
_atom_type_description
_atom_site_fract_x
_atom_site_fract_y
_atom_site_fract_z
_atom_type_partial_charge
Ba1   Ba    Ba6+2 0.153570 0.551840 0.456200 1.650765
Ba2   Ba    Ba6+2 0.656590 0.448150 0.543720 1.639524
C1    C     C_3   0.334532 0.813280 0.115278 -0.366949
C2    C     C_R   0.730076 0.817047 0.468961 -0.271096
C3    C     C_R   0.690315 0.994699 0.436717 -0.073294
C4    C     C_3   0.895566 0.819355 0.224099 0.259807
C5    C     C_R   0.629571 0.886249 0.431924 -0.018984
C6    C     C_R   0.889172 0.852719 0.516889 0.061852
C7    C     C_R   0.951530 0.964930 0.526271 0.002284
C8    C     C_R   0.850899 0.037321 0.484095 0.033065
C9    C     C_R   0.916515 0.149045 0.489679 0.102138
C10   C     C_R   0.175514 0.115253 0.576307 -0.017460
C11   C     C_R   0.113092 0.007031 0.572844 -0.082761
C12   C     C_3   0.380995 0.785215 0.211197 0.310718
C13   C     C_R   0.233782 0.464240 0.768811 -0.265817
C14   C     C_R   0.138960 0.419434 0.828217 -0.043975
C15   C     C_R   0.209009 0.417887 0.919749 -0.094632
C16   C     C_3   0.829681 0.906484 0.171842 -0.256752
C17   C     C_R   0.366786 0.480341 0.955690 0.013711
C18   C     C_R   0.453520 0.532677 0.893760 -0.134032
C19   C     C_R   0.390286 0.520673 0.800880 0.029170
C20   C     C_R   0.611053 0.531305 0.085420 -0.135062
C21   C     C_R   0.677037 0.549482 0.177814 0.033358
C22   C     C_R   0.414138 0.483751 0.215322 0.079457
C23   C     C_3   0.576312 0.774134 0.670317 0.285210
C24   C     C_R   0.341818 0.478246 0.124180 -0.080649
C25   C     C_R   0.439787 0.496320 0.055893 -0.003291
C26   C     C_R   0.579524 0.525621 0.242422 -0.322977
C27   C     C_3   0.707164 0.298062 0.267887 0.294904
C28   C     C_3   0.647992 0.256460 0.168161 -0.367569
C29   C     C_3   0.081270 0.686399 0.729012 0.282313
C30   C     C_3   0.126428 0.714621 0.832198 -0.140161
C31   C     C_3   0.240648 0.223555 0.329747 0.245826
C32   C     C_3   0.233479 0.109079 0.294893 -0.234692
C33   C     C_2   0.199729 0.047728 0.368469 0.436106
C34   C     C_3   0.571680 0.891811 0.685551 -0.357260
C35   C     C_2   0.119694 0.344445 0.972333 0.446321
C36   C     C_2   0.926511 0.932399 0.097879 0.575713
C37   C     C_3   0.936691 0.167571 0.785222 0.444325
C38   C     C_3   0.946796 0.083600 0.851355 -0.335410
C39   C     C_3   0.450570 0.228052 0.793854 0.346917
C40   C     C_3   0.481760 0.199390 0.890233 -0.353476
C41   C     C_R   0.076151 0.184525 0.537580 -0.259387
H1    H     H_    0.308007 0.706867 0.215275 0.079732
H2    H     H_    0.342535 0.245755 0.389312 0.032660
H3    H     H_    0.197351 0.803678 0.096218 0.147688
H4    H     H_    0.132991 0.087140 0.235125 0.112489
H5    H     H_    0.354131 0.094212 0.275285 0.078613
H6    H     H_    0.515856 0.779078 0.223549 -0.052062
H7    H     H_    0.382656 0.759270 0.066759 0.086324
H8    H     H_    0.703926 0.761200 0.661627 0.003825
H9    H     H_    0.486750 0.742989 0.607252 0.067062
H10   H     H_    0.661280 0.926298 0.747626 0.122636
H11   H     H_    0.605159 0.930019 0.626112 0.071714
H12   H     H_    0.553845 0.184224 0.162255 0.142284
H13   H     H_    0.444213 0.905771 0.694340 0.143283
H14   H     H_    0.388681 0.896286 0.110576 0.125756
H15   H     H_    0.697037 0.879984 0.141776 0.104471
H16   H     H_    0.065410 0.197646 0.777580 -0.020094
H17   H     H_    0.962254 0.006436 0.815560 0.079234
H18   H     H_    0.056767 0.107312 0.906414 0.151494
H19   H     H_    0.831473 0.072579 0.882654 0.161664
H20   H     H_    0.328093 0.255299 0.781763 -0.057814
H21   H     H_    0.547529 0.294019 0.786896 0.113976
H22   H     H_    0.455906 0.264427 0.937788 0.121479
H23   H     H_    0.589962 0.316063 0.130877 0.082922
H24   H     H_    0.613768 0.188049 0.909760 0.138892
H25   H     H_    0.024380 0.846080 0.259661 0.145971
H26   H     H_    0.399515 0.124674 0.896042 0.135812
H27   H     H_    0.609736 0.044672 0.404230 0.080653
H28   H     H_    0.193576 0.956305 0.604457 0.095209
H29   H     H_    0.128000 0.267049 0.540472 0.053123
H30   H     H_    0.680321 0.733881 0.463537 0.059219
H31   H     H_    0.695236 0.545995 0.038339 0.093911
H32   H     H_    0.209638 0.458473 0.108933 0.109812
H33   H     H_    0.568757 0.585349 0.916293 0.081716
H34   H     H_    0.754890 0.236986 0.136161 0.123289
H35   H     H_    0.634590 0.534771 0.313441 0.075906
H36   H     H_    0.812400 0.801192 0.274741 -0.000031
H37   H     H_    0.181306 0.460568 0.697752 0.061602
H38   H     H_    0.836001 0.979289 0.219311 0.076639
H39   H     H_    0.600231 0.320408 0.297452 0.022041
H40   H     H_    0.805864 0.367946 0.273447 0.041099
H41   H     H_    0.933067 0.799564 0.838966 0.226959
H42   H     H_    0.892841 0.673950 0.862467 0.205892
H43   H     H_    0.293686 0.055193 0.427965 0.050183
H44   H     H_    0.893045 0.052000 0.677850 0.105082
H45   H     H_    0.188372 0.658931 0.703006 -0.004685
H46   H     H_    0.723240 0.097460 0.705395 0.238510
H47   H     H_    0.990091 0.349655 0.977960 0.030906
H48   H     H_    0.060027 0.955459 0.113340 -0.013109
H49   H     H_    0.973755 0.621922 0.713620 0.071249
H50   H     H_    0.229034 0.782609 0.848572 0.136475
H51   H     H_    0.171563 0.647135 0.863620 0.056314
H52   H     H_    0.119218 0.237624 0.348810 0.005004
N1    N     N_3   0.984178 0.740772 0.872338 -0.458834
N2    N     N_3   0.845816 0.121218 0.696870 -0.461994
O1    O     O_2   0.168170 0.764170 0.543850 -0.455595
O2    O     O_2   0.810813 0.442842 0.822427 -0.504468
O3    O     O_3   0.852810 0.246764 0.819855 -0.608760
O4    O     O_3   0.898670 0.629780 0.545890 -0.495529
O5    O     O_3   0.409490 0.443300 0.392340 -0.501891
O6    O     O_2   0.674250 0.555830 0.719690 -0.462842
O7    O     O_3   0.533956 0.728409 0.746498 -0.635549
O8    O     O_2   0.511259 0.114845 0.566439 -0.497966
O9    O     O_3   0.455635 0.139015 0.733065 -0.614424
O10   O     O_3   0.365980 0.695510 0.380810 -0.486038
O11   O     O_2   0.296074 0.875827 0.442862 -0.455284
O12   O     O_3   0.270860 0.278365 0.258095 -0.616459
O13   O     O_3   0.044599 0.776511 0.689259 -0.655385
O14   O     O_3   0.343918 0.863301 0.273994 -0.615958
O15   O     O_2   0.136040 0.444100 0.280280 -0.458606
O16   O     O_3   0.934510 0.640480 0.335500 -0.485607
O17   O     O_2   0.012236 0.555654 0.176879 -0.497202
O18   O     O_2   0.066096 0.993804 0.363963 -0.633664
O19   O     O_2   0.189473 0.276810 0.009109 -0.602704
O20   O     O_2   0.855579 0.927785 0.019705 -0.578837
O21   O     O_3   0.901957 0.731796 0.162717 -0.611904
O22   O     O_2   0.642110 0.235770 0.456130 -0.484595
O23   O     O_3   0.911620 0.370210 0.454030 -0.495914
O24   O     O_3   0.444310 0.304480 0.619110 -0.478975
O25   O     O_3   0.770429 0.217125 0.311533 -0.638386
O26   O     O_3   0.400800 0.556680 0.607590 -0.484604
O27   O     O_3   0.875770 0.359510 0.664420 -0.454493
P1    P     P_3+3 0.998660 0.747790 0.570900 0.974014
P2    P     P_3+3 0.306970 0.411860 0.294270 0.998893
P3    P     P_3+3 0.885784 0.616807 0.216122 0.956751
P4    P     P_3+3 0.811620 0.252200 0.429030 0.978039
P5    P     P_3+3 0.920343 0.367824 0.782900 0.946941
P6    P     P_3+3 0.412368 0.831783 0.383055 0.944025
P7    P     P_3+3 0.498831 0.591001 0.720955 0.941064
P8    P     P_3+3 0.395363 0.167951 0.622276 0.931966

loop_
_geom_bond_atom_site_label_1
_geom_bond_atom_site_label_2
_ccdc_geom_bond_type
C30   H51   S    
C41   H29   S    
C38   H17   S    
C31   H2    S    
C39   C40   S    
C17   C18   A    
C2    C6    A    
C23   H8    S    
C37   O3    S    
C35   O19   D    
Ba2   O26   S    
O9    P8    S    
C24   C25   A    
C3    H27   S    
C35   H47   S    
C12   H1    S    
C22   C24   A    
C32   C33   S    
C10   C41   A    
O10   P6    S    
Ba1   O15   S    
C33   H43   S    
C37   N2    S    
C12   H6    S    
Ba2   O5    S    
C13   C14   A    
C16   H38   S    
C38   H19   S    
C18   H33   S    
Ba1   Ba2   S    
H41   N1    S    
C7    C11   A    
C19   P7    S    
C5    P6    S    
C34   H10   S    
C36   O20   D    
C16   H15   S    
O1    P1    D    
C13   H37   S    
C14   C15   A    
O7    P7    S    
C40   H22   S    
O4    P1    S    
C33   O18   D    
C17   C25   S    
C7    C8    A    
O15   P2    D    
O22   P4    D    
C4    H25   S    
C30   H50   S    
C22   P2    S    
C28   H34   S    
Ba1   O16   S    
C2    C5    A    
C31   H52   S    
C1    H7    S    
C31   C32   S    
O8    P8    D    
C12   O14   S    
C4    C16   S    
C39   O9    S    
O2    P5    D    
Ba1   P2    S    
C37   C38   S    
C3    C5    A    
Ba2   O23   S    
O3    P5    S    
C6    C7    A    
C11   H28   S    
Ba2   O4    S    
C36   H48   S    
C40   H26   S    
C38   H18   S    
H46   N2    S    
Ba1   O23   S    
Ba1   O26   S    
C27   C28   S    
C34   H13   S    
C6    P1    S    
O14   P6    S    
C29   C30   S    
C13   C19   A    
C37   H16   S    
C27   O25   S    
C24   H32   S    
C15   C35   S    
C21   C26   A    
C10   C11   A    
C9    C41   A    
C14   P5    S    
C2    H30   S    
C28   H23   S    
C1    C12   S    
Ba1   O10   S    
C1    H14   S    
C30   N1    S    
C20   C25   A    
C40   H24   S    
C32   H5    S    
O21   P3    S    
C39   H20   S    
O24   P8    S    
Ba1   O4    S    
C26   H35   S    
C21   P3    S    
O13   P1    S    
Ba2   O24   S    
C29   H45   S    
C10   P8    S    
O26   P7    S    
O11   P6    D    
C22   C26   A    
Ba1   P1    S    
O5    P2    S    
Ba1   O1    S    
Ba2   O22   S    
O23   P4    S    
C23   O7    S    
C27   H40   S    
O16   P3    S    
Ba2   O27   S    
C28   H12   S    
C1    H3    S    
H42   N1    S    
C9    P4    S    
C16   C36   S    
C23   H9    S    
C3    C8    A    
O17   P3    D    
C4    H36   S    
Ba2   O6    S    
C15   C17   A    
C29   O13   S    
O27   P5    S    
O25   P4    S    
C34   H11   S    
C8    C9    A    
C23   C34   S    
O12   P2    S    
C27   H39   S    
C31   O12   S    
C18   C19   A    
C29   H49   S    
C20   H31   S    
C20   C21   A    
C32   H4    S    
C39   H21   S    
O6    P7    D    
Ba1   O5    S    
C4    O21   S    
H44   N2    S    
Ba2   P4    S    
