data_mof_unit_55627.cif
_audit_creation_date              2012-12-10T17:51:59-0500
_audit_creation_method            fapswitch 2.2
_symmetry_space_group_name_H-M    P1
_symmetry_Int_Tables_number       1
_space_group_crystal_system       triclinic
_cell_length_a                    14.775149
_cell_length_b                    14.793433
_cell_length_c                    19.343015
_cell_angle_alpha                 75.86943
_cell_angle_beta                  103.507146
_cell_angle_gamma                 114.976777
_cell_volume                      3675.36993332

loop_
_atom_site_label
_atom_site_type_symbol
_atom_type_description
_atom_site_fract_x
_atom_site_fract_y
_atom_site_fract_z
_atom_type_partial_charge
C1    C     C_R   0.880398 0.312402 0.511660 0.797698
C2    C     C_R   0.119628 0.687636 0.487755 0.798773
C3    C     C_R   0.812664 0.205323 0.514195 -0.050987
C4    C     C_R   0.187342 0.795117 0.479620 -0.051336
C5    C     C_R   0.782568 0.030995 0.516141 -0.188709
C6    C     C_R   0.216311 0.972397 0.459410 -0.188064
C7    C     C_R   0.849557 0.130579 0.519547 -0.189131
C8    C     C_R   0.149908 0.871418 0.464860 -0.189755
C9    C     C_R   0.708517 0.179113 0.506830 -0.238444
C10   C     C_R   0.291546 0.821011 0.487435 -0.243639
C11   C     C_R   0.639015 0.080121 0.500114 0.091530
C12   C     C_R   0.360125 0.922413 0.480375 0.090530
C13   C     C_R   0.677945 0.005354 0.506077 0.162042
C14   C     C_R   0.320817 0.998347 0.467847 0.162585
C15   C     C_R   0.532443 0.053433 0.487911 0.066233
C16   C     C_R   0.466420 0.950162 0.487292 0.067489
C17   C     C_R   0.508744 0.878454 0.492309 -0.211466
C18   C     C_R   0.489644 0.126712 0.474697 -0.212932
C19   C     C_R   0.612327 0.905880 0.501292 -0.220617
C20   C     C_R   0.385984 0.099439 0.464301 -0.219221
C21   C     C_R   0.714224 0.672720 0.384679 -0.301092
C22   C     C_R   0.285299 0.326639 0.614764 -0.298687
C23   C     C_R   0.000007 0.499378 0.632653 0.797427
C24   C     C_R   0.999981 0.500601 0.367348 0.797444
C25   C     C_R   0.794775 0.642085 0.399759 0.385303
C26   C     C_R   0.204724 0.357233 0.599687 0.383599
C27   C     C_R   0.714545 0.508043 0.489835 -0.037139
C28   C     C_R   0.285764 0.492419 0.510518 -0.035883
C29   C     C_R   0.628795 0.535394 0.474274 -0.023168
C30   C     C_R   0.371407 0.464924 0.525939 -0.023856
C31   C     C_R   0.632118 0.620874 0.421363 0.120243
C32   C     C_R   0.367834 0.379092 0.578553 0.118928
C33   C     C_R   0.540743 0.482461 0.509166 0.088639
C34   C     C_R   0.459509 0.517929 0.491095 0.091473
C35   C     C_R   0.469356 0.605341 0.439163 -0.234109
C36   C     C_R   0.530783 0.394885 0.560940 -0.233408
C37   C     C_R   0.553726 0.655170 0.404803 -0.188265
C38   C     C_R   0.446267 0.344856 0.595134 -0.180898
C39   C     C_R   0.071828 0.471137 0.762372 -0.201265
C40   C     C_R   0.928063 0.528696 0.237638 -0.201049
C41   C     C_R   0.073042 0.468778 0.835159 0.177351
C42   C     C_R   0.926819 0.531011 0.164854 0.177210
C43   C     C_R   0.001837 0.493780 0.855580 0.011217
C44   C     C_R   0.998054 0.506040 0.144435 0.011496
C45   C     C_R   0.929371 0.518458 0.802343 -0.177297
C46   C     C_R   0.070566 0.481425 0.197670 -0.177696
C47   C     C_R   0.928643 0.520501 0.729839 -0.181750
C48   C     C_R   0.071325 0.479432 0.270171 -0.182120
C49   C     C_R   0.000254 0.497416 0.709175 -0.072660
C50   C     C_R   0.999699 0.502506 0.290833 -0.071824
C51   C     C_R   0.998709 0.504397 0.068883 0.423136
C52   C     C_R   0.001178 0.495404 0.931133 0.423196
Cu1   Cu    Cu3+1 0.081740 0.475680 0.518680 0.941976
Cu2   Cu    Cu3+1 0.918260 0.524320 0.481320 0.942444
H1    H     H_    0.126633 0.451277 0.747633 0.176179
H2    H     H_    0.873224 0.548513 0.252376 0.175873
H3    H     H_    0.557719 0.721819 0.364687 0.149553
H4    H     H_    0.442127 0.278009 0.635072 0.149368
H5    H     H_    0.281073 0.554504 0.469200 0.129900
H6    H     H_    0.719545 0.446422 0.531516 0.129772
H7    H     H_    0.715749 0.737877 0.343464 0.152679
H8    H     H_    0.283394 0.260950 0.655528 0.152570
H9    H     H_    0.412980 0.637550 0.423683 0.130009
H10   H     H_    0.587032 0.362512 0.576240 0.132274
H11   H     H_    0.873936 0.537740 0.816812 0.166765
H12   H     H_    0.126017 0.462157 0.183203 0.166421
H13   H     H_    0.872205 0.540521 0.690037 0.160833
H14   H     H_    0.127800 0.459462 0.309971 0.160434
H15   H     H_    0.641272 0.848454 0.504586 0.151661
H16   H     H_    0.356657 0.158165 0.454189 0.150856
H17   H     H_    0.317548 0.760215 0.501047 0.150756
H18   H     H_    0.683765 0.237748 0.506926 0.144501
H19   H     H_    0.069660 0.853113 0.458731 0.155931
H20   H     H_    0.929845 0.149234 0.525287 0.156012
H21   H     H_    0.812529 0.974130 0.520304 0.135806
H22   H     H_    0.185986 0.030339 0.449189 0.135965
H23   H     H_    0.463979 0.800398 0.487468 0.141070
H24   H     H_    0.533792 0.206725 0.470119 0.146550
N1    N     N_R   0.912346 0.461829 0.956484 -0.218302
N2    N     N_R   0.087540 0.537972 0.043532 -0.218341
N3    N     N_R   0.911192 0.465613 0.024269 -0.185470
N4    N     N_R   0.088694 0.534186 0.975748 -0.185478
N5    N     N_R   0.795420 0.560800 0.453240 -0.173479
N6    N     N_R   0.204580 0.439200 0.546760 -0.173737
O1    O     O_R   0.977910 0.338110 0.524620 -0.588277
O2    O     O_R   0.022090 0.661890 0.475380 -0.588298
O3    O     O_R   0.839850 0.379180 0.493080 -0.585063
O4    O     O_R   0.160150 0.620820 0.506920 -0.585919
O5    O     O_R   0.069040 0.479450 0.615630 -0.587834
O6    O     O_R   0.930960 0.520550 0.384370 -0.587551
O7    O     O_R   0.930990 0.520520 0.584090 -0.582004
O8    O     O_R   0.069010 0.479480 0.415910 -0.582247
C53   C     C_3   0.121054 0.292986 0.644152 -0.793130
H25   H     H_    0.061896 0.320451 0.639521 0.268669
H26   H     H_    0.084718 0.215838 0.629908 0.200768
H27   H     H_    0.153498 0.286697 0.702222 0.206527
C54   C     C_3   0.877428 0.705112 0.354212 -0.796040
H28   H     H_    0.938646 0.679867 0.360837 0.269270
H29   H     H_    0.844327 0.706770 0.296318 0.208381
H30   H     H_    0.911489 0.783841 0.365363 0.197550
I1    I     I_    0.179693 0.418654 0.909814 -0.311536
I2    I     I_    0.820059 0.581015 0.090209 -0.311694

loop_
_geom_bond_atom_site_label_1
_geom_bond_atom_site_label_2
_ccdc_geom_bond_type
C1    O3    A    
C15   C18   A    
C53   H25   S    
C29   C33   A    
C28   N6    A    
Cu2   O2    S    
C9    H18   S    
C4    C8    A    
C54   H28   S    
Cu1   O5    S    
C39   C41   A    
Cu1   Cu2   S    
C21   C31   A    
C22   C32   A    
Cu1   N6    S    
C35   C37   A    
C46   H12   S    
C3    C7    A    
C27   H6    S    
Cu2   O3    S    
C43   C52   S    
C23   C49   S    
C27   C29   A    
C15   C16   A    
C24   O8    A    
C33   C36   A    
C34   C35   A    
C51   N2    A    
C38   H4    S    
C11   C15   A    
C39   H1    S    
C12   C16   A    
C41   I1    S    
C16   C17   A    
C40   H2    S    
C23   O5    A    
C2    O4    A    
C32   C38   A    
C52   N1    A    
C51   N3    A    
C21   H7    S    
C10   H17   S    
C26   C53   S    
C40   C42   A    
C53   H26   S    
C1    O1    A    
C41   C43   A    
C20   H16   S    
C42   C44   A    
C42   I2    S    
C47   H13   S    
Cu2   N5    S    
C54   H29   S    
C44   C46   A    
C7    H20   S    
C45   C47   A    
C24   C50   S    
C46   C48   A    
C30   C34   A    
C14   C20   A    
N2    N4    A    
N1    N3    A    
C13   C19   A    
C6    C8    A    
C31   C37   A    
C1    C3    S    
C5    H21   S    
C2    C4    S    
C3    C9    A    
C22   H8    S    
C43   C45   A    
C18   H24   S    
Cu1   O8    S    
C17   H23   S    
C33   C34   A    
C48   H14   S    
C52   N4    A    
C9    C11   A    
C10   C12   A    
Cu2   O6    S    
C44   C51   S    
C25   C54   S    
C39   C49   A    
C12   C14   A    
C53   H27   S    
C45   H11   S    
C23   O7    A    
C19   H15   S    
C4    C10   A    
C54   H30   S    
C5    C7    A    
C28   H5    S    
C21   C25   A    
C26   N6    A    
C5    C13   A    
C24   O6    A    
Cu1   O1    S    
C6    H22   S    
C47   C49   A    
C36   C38   A    
C6    C14   A    
C29   C31   A    
C30   C32   A    
C11   C13   A    
C40   C50   A    
C48   C50   A    
C8    H19   S    
C17   C19   A    
C28   C30   A    
C2    O2    A    
Cu1   O4    S    
C18   C20   A    
C27   N5    A    
Cu2   O7    S    
C22   C26   A    
C25   N5    A    
C35   H9    S    
C36   H10   S    
C37   H3    S    
