data_mof_unit_37373.cif
_audit_creation_date              2012-10-26T18:27:11-0400
_audit_creation_method            fapswitch 2.2
_symmetry_space_group_name_H-M    P1
_symmetry_Int_Tables_number       1
_space_group_crystal_system       triclinic
_cell_length_a                    15.021444
_cell_length_b                    10.84375
_cell_length_c                    9.752696
_cell_angle_alpha                 90.98729
_cell_angle_beta                  90.955046
_cell_angle_gamma                 90.683402
_cell_volume                      1588.02974536

loop_
_atom_site_label
_atom_site_type_symbol
_atom_type_description
_atom_site_fract_x
_atom_site_fract_y
_atom_site_fract_z
_atom_type_partial_charge
C1    C     C_R   0.503259 0.265401 0.498339 0.570813
C2    C     C_R   0.187042 0.403913 0.575977 0.245132
C3    C     C_R   0.232478 0.493742 0.499536 -0.003574
C4    C     C_R   0.329085 0.499333 0.499498 0.546524
C5    C     C_R   0.186075 0.581987 0.426804 -0.186245
C6    C     C_2   0.559502 0.931645 0.412457 0.078319
C7    C     C_2   0.515170 0.867813 0.507673 -0.099276
C8    C     C_2   0.564474 0.068889 0.420295 0.238077
C9    C     C_2   0.503251 0.132344 0.491551 -0.090046
C10   C     C_2   0.457500 0.421251 0.923840 0.397170
C11   C     C_2   0.436307 0.454562 0.072535 0.361173
C12   C     C_R   0.907154 0.580642 0.418969 0.054024
C13   C     C_R   0.504591 0.734746 0.501501 0.567414
C14   C     C_R   0.670974 0.500620 0.500979 0.553188
C15   C     C_R   0.814039 0.577380 0.415359 -0.123354
C16   C     C_R   0.767517 0.501283 0.503632 -0.013694
C17   C     C_R   0.812662 0.426611 0.595737 -0.130205
C18   C     C_R   0.905814 0.423569 0.598036 -0.014405
C19   C     C_R   0.953369 0.500683 0.508643 0.004387
C20   C     C_3   0.625120 0.153642 0.226545 0.018506
C21   C     C_3   0.712292 0.132772 0.151176 -0.268012
C22   C     C_3   0.702565 0.160501 0.998763 -0.486852
C23   C     C_R   0.952287 0.346500 0.688990 0.133613
C24   C     C_3   0.437544 0.211978 0.949874 -0.009913
C25   C     C_3   0.416988 0.092561 0.869745 -0.256424
C26   C     C_3   0.429592 0.979476 0.958695 -0.486977
C27   C     C_3   0.284469 0.451926 0.022939 0.007409
C28   C     C_3   0.194006 0.469940 0.088780 -0.253234
C29   C     C_3   0.164976 0.357224 0.169269 -0.397188
C30   C     C_3   0.264708 0.223607 0.539545 0.016367
C31   C     C_3   0.190369 0.139832 0.478307 -0.295069
C32   C     C_3   0.226927 0.052291 0.369172 -0.485385
C33   C     C_R   0.045284 0.341410 0.686692 0.149040
C34   C     C_R   0.093727 0.413228 0.591606 -0.005713
C35   C     C_R   0.046911 0.497973 0.508434 -0.028337
C36   C     C_R   0.093651 0.580803 0.424740 -0.020967
C37   C     C_R   0.047857 0.662470 0.340425 -0.105227
C38   C     C_R   0.954788 0.662151 0.335098 0.108504
Cu1   Cu    Cu3+1 0.500020 0.500020 0.638630 0.992830
Cu2   Cu    Cu3+1 0.499980 0.499980 0.361370 0.990174
H1    H     H_    0.776904 0.635597 0.346222 0.156814
H2    H     H_    0.765233 0.193647 0.197350 0.183334
H3    H     H_    0.733210 0.035580 0.162301 0.164207
H4    H     H_    0.651814 0.098170 0.949439 0.148718
H5    H     H_    0.767155 0.145371 0.947890 0.164238
H6    H     H_    0.682855 0.257922 0.984332 0.144844
H7    H     H_    0.392271 0.216654 0.038836 0.149925
H8    H     H_    0.507880 0.209722 0.987228 0.102520
H9    H     H_    0.347055 0.093904 0.830794 0.171565
H10   H     H_    0.462120 0.085767 0.781134 0.171419
H11   H     H_    0.500448 0.971658 0.991141 0.140422
H12   H     H_    0.491159 0.912220 0.600082 0.051943
H13   H     H_    0.410235 0.895192 0.898641 0.145982
H14   H     H_    0.387289 0.985450 0.050889 0.149091
H15   H     H_    0.579549 0.642855 0.865748 0.255213
H16   H     H_    0.470088 0.674764 0.870816 0.244411
H17   H     H_    0.279149 0.369676 0.953885 0.180690
H18   H     H_    0.298162 0.535225 0.960705 0.118023
H19   H     H_    0.197241 0.552741 0.156433 0.169848
H20   H     H_    0.143303 0.487620 0.007472 0.122487
H21   H     H_    0.159966 0.274508 0.100716 0.145947
H22   H     H_    0.098796 0.373802 0.214626 0.145991
H23   H     H_    0.447098 0.087200 0.537681 -0.003231
H24   H     H_    0.213503 0.339378 0.253250 0.184472
H25   H     H_    0.868910 0.328898 0.849563 0.225854
H26   H     H_    0.863934 0.209996 0.732607 0.223346
H27   H     H_    0.136346 0.322659 0.841537 0.247115
H28   H     H_    0.116670 0.191521 0.745088 0.256562
H29   H     H_    0.312724 0.163925 0.593325 0.155240
H30   H     H_    0.302001 0.268083 0.456055 0.136825
H31   H     H_    0.160581 0.083595 0.560063 0.158172
H32   H     H_    0.137305 0.196153 0.430691 0.160445
H33   H     H_    0.255619 0.105281 0.283634 0.147023
H34   H     H_    0.561944 0.501785 0.112690 0.194309
H35   H     H_    0.172300 0.992033 0.327386 0.149370
H36   H     H_    0.279300 0.993149 0.414387 0.144257
H37   H     H_    0.879766 0.812971 0.307707 0.222541
H38   H     H_    0.953314 0.790659 0.182589 0.227318
H39   H     H_    0.583025 0.891368 0.212159 0.224841
H40   H     H_    0.674695 0.891035 0.317154 0.243399
H41   H     H_    0.773966 0.369177 0.662836 0.126528
H42   H     H_    0.222477 0.650744 0.369855 0.115289
H43   H     H_    0.084786 0.725767 0.277188 0.094685
H44   H     H_    0.607357 0.251937 0.214867 0.174287
H45   H     H_    0.571202 0.096781 0.176286 0.100247
N1    N     N_2   0.499020 0.498660 0.846910 -0.175009
N2    N     N_2   0.499000 0.498630 0.153040 -0.326151
N3    N     N_3   0.518700 0.614009 0.905269 -0.593893
N4    N     N_3   0.906424 0.271688 0.786014 -0.601221
N5    N     N_3   0.088011 0.268959 0.789895 -0.579420
N6    N     N_3   0.908555 0.745093 0.245877 -0.644083
N7    N     N_3   0.607430 0.866153 0.308363 -0.591430
O1    O     O_R   0.500020 0.321960 0.617040 -0.445562
O2    O     O_3   0.424093 0.313187 0.862782 -0.540262
O3    O     O_3   0.351575 0.435403 0.124954 -0.543117
O4    O     O_3   0.233531 0.309734 0.638463 -0.577717
O5    O     O_R   0.499980 0.321920 0.382900 -0.510670
O6    O     O_R   0.370270 0.499990 0.617090 -0.460991
O7    O     O_R   0.370240 0.499950 0.382940 -0.456301
O8    O     O_R   0.500020 0.678080 0.617100 -0.533335
O9    O     O_R   0.499980 0.678040 0.382960 -0.451322
O10   O     O_R   0.629760 0.500050 0.617060 -0.505557
O11   O     O_R   0.629730 0.500010 0.382910 -0.509289
O12   O     O_3   0.638222 0.129552 0.367766 -0.563765

loop_
_geom_bond_atom_site_label_1
_geom_bond_atom_site_label_2
_ccdc_geom_bond_type
C4    O6    A    
C27   O3    S    
C35   C36   A    
C32   H35   S    
C14   O11   A    
H25   N4    S    
Cu2   N2    S    
C28   C29   S    
C7    H12   S    
C18   C19   A    
C30   C31   S    
N1    N3    S    
C14   O10   A    
C10   O2    S    
C15   C16   A    
C5    C36   A    
C34   C35   A    
H15   N3    S    
C25   H10   S    
Cu1   O1    S    
C30   O4    S    
Cu2   O9    S    
C21   H3    S    
H37   N6    S    
C11   N2    D    
C8    C9    D    
C23   C33   A    
H28   N5    S    
C23   N4    S    
H34   N2    S    
C2    C34   A    
C31   H31   S    
C29   H24   S    
C21   C22   S    
Cu2   O7    S    
C26   H14   S    
C30   H30   S    
C33   C34   A    
H26   N4    S    
C28   H20   S    
C29   H21   S    
C18   C23   A    
C24   H8    S    
C1    C9    S    
C24   C25   S    
C15   H1    S    
C27   H17   S    
C1    O5    A    
Cu2   O5    S    
C16   C17   A    
Cu1   O6    S    
C6    C8    S    
C25   C26   S    
C38   N6    S    
H27   N5    S    
H40   N7    S    
C37   C38   A    
C24   O2    S    
C31   C32   S    
C12   C15   A    
C20   H45   S    
C17   C18   A    
C8    O12   S    
H39   N7    S    
C1    O1    A    
C31   H32   S    
C22   H6    S    
C20   H44   S    
C14   C16   S    
C13   O9    A    
C3    C4    S    
C26   H13   S    
Cu1   Cu2   S    
C30   H29   S    
Cu1   O10   S    
C28   H19   S    
C11   O3    S    
C29   H22   S    
C10   N1    D    
C22   H4    S    
C9    H23   S    
C24   H7    S    
C3    C5    A    
C27   H18   S    
C32   H36   S    
C6    C7    D    
C20   O12   S    
H38   N6    S    
C13   O8    A    
C2    O4    S    
C2    C3    A    
C19   C35   A    
C26   H11   S    
Cu2   O11   S    
C5    H42   S    
Cu1   O8    S    
C6    N7    S    
C12   C19   A    
C17   H41   S    
C12   C38   A    
C25   H9    S    
H16   N3    S    
C10   C11   S    
C21   H2    S    
C7    C13   S    
C22   H5    S    
C20   C21   S    
C36   C37   A    
C4    O7    A    
C27   C28   S    
C37   H43   S    
Cu1   N1    S    
C33   N5    S    
C32   H33   S    
