data_mof_unit_64140.cif
_audit_creation_date              2012-12-10T18:06:50-0500
_audit_creation_method            fapswitch 2.2
_symmetry_space_group_name_H-M    P1
_symmetry_Int_Tables_number       1
_space_group_crystal_system       triclinic
_cell_length_a                    21.628162
_cell_length_b                    21.631484
_cell_length_c                    38.916538
_cell_angle_alpha                 89.828298
_cell_angle_beta                  90.146404
_cell_angle_gamma                 90.000862
_cell_volume                      18206.9315423

loop_
_atom_site_label
_atom_site_type_symbol
_atom_type_description
_atom_site_fract_x
_atom_site_fract_y
_atom_site_fract_z
_atom_type_partial_charge
C1    C     C_R   0.620091 0.000005 0.500019 0.890948
C2    C     C_R   0.999965 0.620045 0.499532 0.889033
C3    C     C_R   0.379921 0.999970 0.499587 0.889837
C4    C     C_R   0.000003 0.379974 0.500054 0.888108
C5    C     C_R   0.119912 0.500003 0.999999 0.862474
C6    C     C_R   0.500003 0.120117 0.000008 0.866935
C7    C     C_R   0.880088 0.500002 0.999999 0.862289
C8    C     C_R   0.500002 0.879886 0.999992 0.866789
C9    C     C_R   0.781380 0.951432 0.483145 0.138245
C10   C     C_R   0.047584 0.781242 0.481551 0.147639
C11   C     C_R   0.218625 0.048747 0.482500 0.147254
C12   C     C_R   0.956403 0.218898 0.479114 0.134722
C13   C     C_R   0.781593 0.048862 0.516465 0.139386
C14   C     C_R   0.044315 0.218606 0.520411 0.136216
C15   C     C_R   0.218470 0.954572 0.519059 0.127725
C16   C     C_R   0.956407 0.781288 0.520164 0.127588
C17   C     C_R   0.280709 0.459423 0.977374 0.136471
C18   C     C_R   0.549786 0.281688 0.984431 0.138345
C19   C     C_R   0.719076 0.540982 0.977527 0.136675
C20   C     C_R   0.450431 0.718515 0.983949 0.138190
C21   C     C_R   0.280923 0.540905 0.022381 0.136642
C22   C     C_R   0.549740 0.718324 0.015756 0.138389
C23   C     C_R   0.719290 0.459355 0.022724 0.136572
C24   C     C_R   0.450392 0.281495 0.015871 0.138192
C25   C     C_R   0.813508 0.000088 0.499845 -0.113125
C26   C     C_R   0.001952 0.813222 0.500698 -0.131967
C27   C     C_R   0.186662 0.001650 0.500625 -0.129287
C28   C     C_R   0.000271 0.186934 0.499808 -0.147988
C29   C     C_R   0.312781 0.500149 0.999884 -0.150657
C30   C     C_R   0.500076 0.313579 0.000145 -0.107996
C31   C     C_R   0.687219 0.500151 0.000117 -0.150608
C32   C     C_R   0.500075 0.686429 0.999857 -0.108142
C33   C     C_R   0.686139 0.000031 0.499972 -0.111948
C34   C     C_R   0.999862 0.686033 0.499306 -0.115262
C35   C     C_R   0.313867 0.999867 0.499372 -0.116425
C36   C     C_R   0.000038 0.314017 0.500019 -0.119332
C37   C     C_R   0.185664 0.500031 0.999961 -0.117143
C38   C     C_R   0.500031 0.186200 0.000068 -0.116168
C39   C     C_R   0.814337 0.500031 0.000038 -0.116969
C40   C     C_R   0.500027 0.813808 0.999935 -0.115968
C41   C     C_R   0.000055 0.120450 0.499943 0.838036
C42   C     C_R   0.879673 0.999970 0.499954 0.843843
C43   C     C_R   0.000960 0.879593 0.500145 0.839215
C44   C     C_R   0.120363 0.000836 0.500127 0.840532
C45   C     C_R   0.499991 0.620303 0.999954 0.845963
C46   C     C_R   0.379447 0.500039 0.999961 0.837230
C47   C     C_R   0.499990 0.379700 0.000046 0.846374
C48   C     C_R   0.620553 0.500038 0.000039 0.836982
C49   C     C_R   0.499997 0.999913 0.567202 0.956310
C50   C     C_R   0.000074 0.500057 0.567226 0.955579
C51   C     C_R   0.500058 0.000087 0.432790 0.954704
C52   C     C_R   0.999926 0.500001 0.432763 0.953892
C53   C     C_R   0.999954 0.499917 0.067116 0.925358
C54   C     C_R   0.500074 0.000029 0.067137 0.926782
C55   C     C_R   0.000021 0.500085 0.932878 0.925040
C56   C     C_R   0.499930 0.999956 0.932858 0.926591
C57   C     C_R   0.532066 0.952616 0.877524 -0.008964
C58   C     C_R   0.048056 0.531411 0.877527 -0.009570
C59   C     C_R   0.467417 0.046442 0.877108 -0.009154
C60   C     C_R   0.952497 0.469352 0.877257 -0.009721
C61   C     C_R   0.532363 0.047475 0.122497 -0.009033
C62   C     C_R   0.047563 0.469095 0.122790 -0.009823
C63   C     C_R   0.468324 0.953231 0.122832 -0.009235
C64   C     C_R   0.951438 0.530273 0.122375 -0.009629
C65   C     C_R   0.032068 0.453183 0.376995 -0.000034
C66   C     C_R   0.548217 0.031447 0.377211 0.000091
C67   C     C_R   0.967225 0.547070 0.376913 0.000515
C68   C     C_R   0.452500 0.969352 0.376911 -0.000053
C69   C     C_R   0.032089 0.547724 0.622850 0.000140
C70   C     C_R   0.548306 0.969101 0.622944 0.000043
C71   C     C_R   0.968593 0.452935 0.623154 -0.000046
C72   C     C_R   0.451893 0.030095 0.622864 -0.000450
C73   C     C_R   0.532595 0.953800 0.841617 0.517813
C74   C     C_R   0.046868 0.532153 0.841622 0.518025
C75   C     C_R   0.466918 0.044848 0.841206 0.518027
C76   C     C_R   0.954030 0.468985 0.841359 0.518270
C77   C     C_R   0.533055 0.046316 0.158405 0.517849
C78   C     C_R   0.046011 0.468560 0.158688 0.518359
C79   C     C_R   0.468018 0.954803 0.158731 0.518139
C80   C     C_R   0.952553 0.530817 0.158276 0.518141
C81   C     C_R   0.032421 0.454796 0.341063 0.508588
C82   C     C_R   0.546934 0.032213 0.341275 0.508977
C83   C     C_R   0.966476 0.545590 0.340981 0.508150
C84   C     C_R   0.454181 0.968988 0.340985 0.509046
C85   C     C_R   0.032844 0.546371 0.658786 0.508886
C86   C     C_R   0.546900 0.968316 0.658876 0.509191
C87   C     C_R   0.968164 0.454656 0.659080 0.508934
C88   C     C_R   0.453446 0.030516 0.658794 0.509603
C89   C     C_R   0.499801 0.999247 0.823712 -0.193144
C90   C     C_R   0.000543 0.500648 0.823790 -0.193334
C91   C     C_R   0.500624 0.000666 0.176267 -0.193176
C92   C     C_R   0.999201 0.499734 0.176181 -0.193386
C93   C     C_R   0.999356 0.500226 0.323361 -0.186006
C94   C     C_R   0.500663 0.000687 0.323463 -0.186721
C95   C     C_R   0.000574 0.500613 0.676598 -0.186417
C96   C     C_R   0.500215 0.999338 0.676506 -0.186983
C97   C     C_R   0.499782 0.999666 0.895399 -0.255839
C98   C     C_R   0.000185 0.500292 0.895451 -0.254202
C99   C     C_R   0.500258 0.000240 0.104588 -0.255566
C100  C     C_R   0.999646 0.499738 0.104532 -0.253816
C101  C     C_R   0.999745 0.500088 0.395132 -0.231832
C102  C     C_R   0.500255 0.000300 0.395204 -0.230913
C103  C     C_R   0.000258 0.500235 0.604839 -0.232072
C104  C     C_R   0.500067 0.999703 0.604774 -0.231116
C105  C     C_R   0.459735 0.958535 0.768257 0.145142
C106  C     C_R   0.040286 0.459418 0.768505 0.145057
C107  C     C_R   0.540470 0.039719 0.768325 0.144973
C108  C     C_R   0.961256 0.542267 0.768248 0.145103
C109  C     C_R   0.460158 0.041155 0.231562 0.144989
C110  C     C_R   0.038116 0.541953 0.231516 0.144918
C111  C     C_R   0.541597 0.960675 0.231804 0.145004
C112  C     C_R   0.960054 0.458188 0.231660 0.145099
C113  C     C_R   0.038958 0.541326 0.267854 0.145866
C114  C     C_R   0.460982 0.041966 0.267899 0.145914
C115  C     C_R   0.959258 0.459105 0.267993 0.145991
C116  C     C_R   0.540812 0.959875 0.268141 0.145794
C117  C     C_R   0.041115 0.460210 0.732168 0.146021
C118  C     C_R   0.460689 0.957728 0.731922 0.145979
C119  C     C_R   0.960434 0.541466 0.731911 0.145929
C120  C     C_R   0.539770 0.040537 0.731984 0.145819
C121  C     C_R   0.500262 0.999163 0.714218 0.133830
C122  C     C_R   0.000735 0.500793 0.714306 0.134005
C123  C     C_R   0.500857 0.000877 0.285754 0.134071
C124  C     C_R   0.999150 0.500256 0.285655 0.134303
C125  C     C_R   0.999116 0.499960 0.213867 0.131831
C126  C     C_R   0.500822 0.000864 0.213959 0.131953
C127  C     C_R   0.000727 0.500806 0.786100 0.131764
C128  C     C_R   0.500003 0.999161 0.786017 0.131894
C129  C     C_R   0.717348 0.953283 0.482844 -0.196354
C130  C     C_R   0.045032 0.717284 0.480897 -0.194500
C131  C     C_R   0.282591 0.046317 0.481815 -0.195081
C132  C     C_R   0.956104 0.283024 0.480561 -0.187424
C133  C     C_R   0.717575 0.046912 0.516953 -0.196609
C134  C     C_R   0.044217 0.282771 0.519288 -0.187174
C135  C     C_R   0.282654 0.954184 0.517531 -0.188163
C136  C     C_R   0.955631 0.717157 0.518394 -0.189194
C137  C     C_R   0.216515 0.460237 0.978052 -0.184761
C138  C     C_R   0.547677 0.217671 0.983702 -0.192497
C139  C     C_R   0.783269 0.540021 0.978115 -0.184298
C140  C     C_R   0.452492 0.782553 0.983314 -0.192808
C141  C     C_R   0.216731 0.539939 0.021798 -0.184324
C142  C     C_R   0.547629 0.782343 0.016476 -0.192595
C143  C     C_R   0.783486 0.460161 0.022038 -0.184904
C144  C     C_R   0.452454 0.217459 0.016517 -0.192879
H1    H     H_    0.691456 0.918047 0.469288 0.167941
H2    H     H_    0.078419 0.691428 0.466017 0.164599
H3    H     H_    0.308391 0.080818 0.467589 0.165357
H4    H     H_    0.923249 0.309888 0.465819 0.170386
H5    H     H_    0.691886 0.082210 0.530508 0.167514
H6    H     H_    0.077031 0.309427 0.534088 0.170223
H7    H     H_    0.309351 0.919657 0.531139 0.173004
H8    H     H_    0.922070 0.690374 0.532583 0.172268
H9    H     H_    0.189484 0.431044 0.961234 0.163652
H10   H     H_    0.583625 0.192064 0.970611 0.165098
H11   H     H_    0.810126 0.569246 0.961206 0.163474
H12   H     H_    0.416581 0.808346 0.970118 0.165001
H13   H     H_    0.189877 0.569099 0.038644 0.163602
H14   H     H_    0.583538 0.807961 0.029696 0.164928
H15   H     H_    0.810520 0.430907 0.038919 0.163442
H16   H     H_    0.416505 0.191675 0.029586 0.165170
O1    O     O_R   0.591570 0.051800 0.500070 -0.627412
O2    O     O_R   0.948200 0.591570 0.500070 -0.628077
O3    O     O_R   0.408430 0.948200 0.500070 -0.628740
O4    O     O_R   0.051800 0.408430 0.500070 -0.626412
O5    O     O_R   0.591570 0.948200 0.499930 -0.627305
O6    O     O_R   0.948200 0.408430 0.499930 -0.626505
O7    O     O_R   0.408430 0.051800 0.499930 -0.625565
O8    O     O_R   0.051800 0.591570 0.499930 -0.624841
O9    O     O_R   0.091570 0.551800 0.000070 -0.624197
O10   O     O_R   0.448200 0.091570 0.000070 -0.626261
O11   O     O_R   0.908430 0.448200 0.000070 -0.624071
O12   O     O_R   0.551800 0.908430 0.000070 -0.626347
O13   O     O_R   0.091570 0.448200 0.999930 -0.623968
O14   O     O_R   0.448200 0.908430 0.999930 -0.626110
O15   O     O_R   0.908430 0.551800 0.999930 -0.624039
O16   O     O_R   0.551800 0.091570 0.999930 -0.626326
O17   O     O_R   0.499930 0.051800 0.550990 -0.630962
O18   O     O_R   0.948200 0.499930 0.550990 -0.630654
O19   O     O_R   0.500070 0.948200 0.550990 -0.630753
O20   O     O_R   0.051800 0.500070 0.550990 -0.630976
O21   O     O_R   0.499930 0.948200 0.449010 -0.631320
O22   O     O_R   0.948200 0.500070 0.449010 -0.631304
O23   O     O_R   0.500070 0.051800 0.449010 -0.631647
O24   O     O_R   0.051800 0.499930 0.449010 -0.631554
O25   O     O_R   0.999930 0.551800 0.050990 -0.619883
O26   O     O_R   0.448200 0.999930 0.050990 -0.619576
O27   O     O_R   0.000070 0.448200 0.050990 -0.619928
O28   O     O_R   0.551800 0.000070 0.050990 -0.619627
O29   O     O_R   0.999930 0.448200 0.949010 -0.619856
O30   O     O_R   0.448200 0.000070 0.949010 -0.619615
O31   O     O_R   0.000070 0.551800 0.949010 -0.619915
O32   O     O_R   0.551800 0.999930 0.949010 -0.619556
O33   O     O_R   0.999990 0.091790 0.471350 -0.632396
O34   O     O_R   0.908210 0.999990 0.471350 -0.624725
O35   O     O_R   0.000010 0.908210 0.471350 -0.626322
O36   O     O_R   0.091790 0.000010 0.471350 -0.626591
O37   O     O_R   0.999990 0.908210 0.528650 -0.630771
O38   O     O_R   0.908210 0.000010 0.528650 -0.624409
O39   O     O_R   0.000010 0.091790 0.528650 -0.631606
O40   O     O_R   0.091790 0.999990 0.528650 -0.630127
O41   O     O_R   0.499990 0.591790 0.971350 -0.624817
O42   O     O_R   0.408210 0.499990 0.971350 -0.632524
O43   O     O_R   0.500010 0.408210 0.971350 -0.624555
O44   O     O_R   0.591790 0.500010 0.971350 -0.632359
O45   O     O_R   0.499990 0.408210 0.028650 -0.624675
O46   O     O_R   0.408210 0.500010 0.028650 -0.632359
O47   O     O_R   0.500010 0.591790 0.028650 -0.624628
O48   O     O_R   0.591790 0.499990 0.028650 -0.632473
Zn1   Zn    Zn3+2 0.500000 0.069140 0.500000 0.935494
Zn2   Zn    Zn3+2 0.930860 0.500000 0.500000 0.935585
Zn3   Zn    Zn3+2 0.500000 0.930860 0.500000 0.935106
Zn4   Zn    Zn3+2 0.069140 0.500000 0.500000 0.936049
Zn5   Zn    Zn3+2 0.000000 0.569140 0.000000 0.936546
Zn6   Zn    Zn3+2 0.430860 0.000000 0.000000 0.934421
Zn7   Zn    Zn3+2 0.000000 0.430860 0.000000 0.936749
Zn8   Zn    Zn3+2 0.569140 0.000000 0.000000 0.934191
Zn9   Zn    Zn3+2 1.000000 0.000000 0.461700 0.936405
Zn10  Zn    Zn3+2 1.000000 0.000000 0.538300 0.930853
Zn11  Zn    Zn3+2 0.500000 0.500000 0.961700 0.932347
Zn12  Zn    Zn3+2 0.500000 0.500000 0.038300 0.932517
C145  C     C_3   0.564097 0.899288 0.895749 -0.308383
C146  C     C_3   0.633846 0.909586 0.897576 -0.770440
H17   H     H_    0.653786 0.912333 0.871347 0.279779
H18   H     H_    0.644476 0.953017 0.911522 0.257498
H19   H     H_    0.655874 0.870408 0.911457 0.230458
H20   H     H_    0.545911 0.891967 0.922078 0.184493
H21   H     H_    0.554625 0.855454 0.881854 0.228033
C147  C     C_3   0.102166 0.561948 0.895726 -0.310195
C148  C     C_3   0.093601 0.631901 0.897496 -0.769038
H22   H     H_    0.091307 0.652082 0.871250 0.279599
H23   H     H_    0.050459 0.643487 0.911469 0.257417
H24   H     H_    0.133336 0.652853 0.911331 0.230903
H25   H     H_    0.108954 0.543427 0.922083 0.182388
H26   H     H_    0.145774 0.551465 0.881850 0.228649
C149  C     C_3   0.435276 0.099905 0.894877 -0.308834
C150  C     C_3   0.365567 0.089399 0.896631 -0.771071
H27   H     H_    0.345587 0.086211 0.870380 0.279772
H28   H     H_    0.355119 0.046131 0.910890 0.257430
H29   H     H_    0.343434 0.128696 0.910161 0.230570
H30   H     H_    0.453500 0.107614 0.921192 0.184301
H31   H     H_    0.444573 0.143589 0.880683 0.228421
C151  C     C_3   0.898257 0.438565 0.895151 -0.310443
C152  C     C_3   0.906865 0.368597 0.896948 -0.769328
H32   H     H_    0.909404 0.348724 0.870710 0.279752
H33   H     H_    0.949896 0.356885 0.911155 0.257447
H34   H     H_    0.867031 0.347450 0.910558 0.230961
H35   H     H_    0.891233 0.456769 0.921478 0.182300
H36   H     H_    0.854762 0.449177 0.881037 0.228768
C153  C     C_3   0.564014 0.100962 0.104301 -0.308504
C154  C     C_3   0.633799 0.091003 0.102539 -0.770860
H37   H     H_    0.653907 0.088325 0.128787 0.279653
H38   H     H_    0.644547 0.047636 0.088588 0.257466
H39   H     H_    0.655556 0.130299 0.088691 0.230596
H40   H     H_    0.545637 0.108179 0.077952 0.184230
H41   H     H_    0.554412 0.144752 0.118184 0.228247
C155  C     C_3   0.102046 0.438828 0.104955 -0.310745
C156  C     C_3   0.093932 0.368816 0.103242 -0.769848
H42   H     H_    0.091461 0.348756 0.129504 0.279618
H43   H     H_    0.051022 0.356905 0.089012 0.257412
H44   H     H_    0.133949 0.348038 0.089692 0.231140
H45   H     H_    0.108955 0.457250 0.078604 0.181892
H46   H     H_    0.145450 0.449657 0.119067 0.229051
C157  C     C_3   0.436411 0.899589 0.105011 -0.308904
C158  C     C_3   0.366618 0.909618 0.103232 -0.771149
H47   H     H_    0.346813 0.912612 0.129475 0.279806
H48   H     H_    0.355767 0.952844 0.088996 0.257478
H49   H     H_    0.344651 0.870199 0.089665 0.230636
H50   H     H_    0.454474 0.892077 0.078695 0.184090
H51   H     H_    0.446121 0.855938 0.119178 0.228443
C159  C     C_3   0.897105 0.560434 0.104087 -0.310301
C160  C     C_3   0.904995 0.630482 0.102268 -0.769127
H52   H     H_    0.906994 0.650474 0.128498 0.279637
H53   H     H_    0.948075 0.642598 0.088335 0.257470
H54   H     H_    0.865111 0.651157 0.088368 0.231020
H55   H     H_    0.890614 0.542077 0.077733 0.182082
H56   H     H_    0.853548 0.549407 0.117918 0.228677
C161  C     C_3   0.063043 0.398936 0.395017 -0.323851
C162  C     C_3   0.015204 0.351451 0.406522 -0.858510
H57   H     H_    0.981080 0.372879 0.424042 0.243933
H58   H     H_    0.990406 0.332418 0.383872 0.270267
H59   H     H_    0.038634 0.312904 0.420236 0.253495
H60   H     H_    0.096246 0.375301 0.377742 0.254475
H61   H     H_    0.091201 0.414263 0.417196 0.214149
C163  C     C_3   0.603029 0.060826 0.395441 -0.324767
C164  C     C_3   0.649371 0.011735 0.406946 -0.859137
H62   H     H_    0.627272 0.978030 0.424587 0.245772
H63   H     H_    0.667690 0.986627 0.384286 0.270925
H64   H     H_    0.688557 0.034148 0.420558 0.251679
H65   H     H_    0.627509 0.093810 0.378290 0.254056
H66   H     H_    0.588132 0.088867 0.417685 0.213646
C165  C     C_3   0.936331 0.601178 0.394852 -0.322620
C166  C     C_3   0.984201 0.648559 0.406452 -0.861524
H67   H     H_    0.018338 0.627052 0.424108 0.243846
H68   H     H_    0.008990 0.667741 0.383842 0.270724
H69   H     H_    0.960777 0.687017 0.420058 0.251214
H70   H     H_    0.903108 0.625004 0.377494 0.254484
H71   H     H_    0.908192 0.585648 0.416969 0.213694
C167  C     C_3   0.397544 0.939701 0.394804 -0.324155
C168  C     C_3   0.351159 0.988617 0.406182 -0.861389
H72   H     H_    0.373171 0.022007 0.423987 0.244976
H73   H     H_    0.332991 0.014117 0.383486 0.271370
H74   H     H_    0.311884 0.966003 0.419569 0.251022
H75   H     H_    0.373150 0.907034 0.377471 0.254596
H76   H     H_    0.412296 0.911275 0.417063 0.212969
C169  C     C_3   0.062133 0.602232 0.604667 -0.324819
C170  C     C_3   0.013557 0.649089 0.593158 -0.857484
H77   H     H_    0.979579 0.627259 0.575599 0.245110
H78   H     H_    0.988686 0.667767 0.615808 0.270156
H79   H     H_    0.036376 0.687967 0.579475 0.253931
H80   H     H_    0.095323 0.626344 0.621842 0.254181
H81   H     H_    0.090104 0.587097 0.582447 0.214277
C171  C     C_3   0.603392 0.940196 0.604893 -0.325094
C172  C     C_3   0.649224 0.989670 0.593383 -0.859951
H82   H     H_    0.626839 0.022927 0.575531 0.246120
H83   H     H_    0.667204 0.015231 0.616018 0.271078
H84   H     H_    0.688691 0.967534 0.579997 0.251418
H85   H     H_    0.628242 0.907568 0.622157 0.254341
H86   H     H_    0.588694 0.911897 0.582665 0.213175
C173  C     C_3   0.938338 0.398285 0.605311 -0.324062
C174  C     C_3   0.986789 0.351416 0.593946 -0.859658
H87   H     H_    0.020498 0.373195 0.576234 0.244147
H88   H     H_    0.011996 0.332861 0.616646 0.270639
H89   H     H_    0.963818 0.312463 0.580475 0.253302
H90   H     H_    0.905441 0.374226 0.622669 0.254730
H91   H     H_    0.910016 0.413283 0.583068 0.213568
C175  C     C_3   0.396639 0.059014 0.604736 -0.326203
C176  C     C_3   0.350745 0.009515 0.593391 -0.857046
H92   H     H_    0.373049 0.976304 0.575660 0.245920
H93   H     H_    0.332982 0.983913 0.616097 0.270775
H94   H     H_    0.311137 0.031619 0.579934 0.253742
H95   H     H_    0.371951 0.091621 0.621905 0.254371
H96   H     H_    0.411102 0.087321 0.582413 0.213613
F1    F     F_    0.563460 0.909465 0.823846 -0.672880
F2    F     F_    0.092026 0.561881 0.823787 -0.672732
F3    F     F_    0.436075 0.088983 0.823037 -0.672485
F4    F     F_    0.909052 0.439429 0.823268 -0.672283
F5    F     F_    0.563683 0.090877 0.176216 -0.672902
F6    F     F_    0.091267 0.439374 0.176848 -0.672244
F7    F     F_    0.437571 0.910453 0.176860 -0.672366
F8    F     F_    0.907087 0.560017 0.176039 -0.672663
F9    F     F_    0.062803 0.410610 0.322920 -0.674086
F10   F     F_    0.592152 0.061487 0.323254 -0.674409
F11   F     F_    0.935871 0.589821 0.322755 -0.674532
F12   F     F_    0.409170 0.939905 0.322678 -0.673836
F13   F     F_    0.062811 0.591099 0.676816 -0.674417
F14   F     F_    0.592353 0.939509 0.677074 -0.674258
F15   F     F_    0.938355 0.410118 0.677398 -0.673937
F16   F     F_    0.408041 0.059109 0.676910 -0.673825
C177  C     C_3   0.414579 0.917669 0.788286 -0.394463
C178  C     C_3   0.352604 0.950245 0.793210 -0.835846
H97   H     H_    0.358576 0.992195 0.809210 0.292565
H98   H     H_    0.332297 0.963958 0.768102 0.267686
H99   H     H_    0.319909 0.918645 0.806455 0.244202
H100  H     H_    0.407222 0.872470 0.775658 0.214156
H101  H     H_    0.432807 0.904536 0.813888 0.216724
C179  C     C_3   0.079947 0.413272 0.788715 -0.394520
C180  C     C_3   0.045736 0.352210 0.793909 -0.835987
H102  H     H_    0.003958 0.359347 0.809895 0.292368
H103  H     H_    0.031480 0.332184 0.768890 0.267700
H104  H     H_    0.076469 0.318745 0.807283 0.244245
H105  H     H_    0.124939 0.404670 0.776109 0.214203
H106  H     H_    0.093572 0.431236 0.814236 0.216618
C181  C     C_3   0.585549 0.080518 0.788444 -0.394373
C182  C     C_3   0.647442 0.047848 0.793778 -0.836370
H107  H     H_    0.641297 0.005892 0.809875 0.292663
H108  H     H_    0.667902 0.034128 0.768814 0.267501
H109  H     H_    0.680090 0.079389 0.807089 0.244224
H110  H     H_    0.593064 0.125708 0.775708 0.214186
H111  H     H_    0.567179 0.093676 0.813915 0.216299
C183  C     C_3   0.921641 0.588458 0.788190 -0.394293
C184  C     C_3   0.955962 0.649447 0.793313 -0.836284
H112  H     H_    0.997726 0.642199 0.809439 0.292748
H113  H     H_    0.970254 0.669490 0.768279 0.267479
H114  H     H_    0.925289 0.682944 0.806506 0.244378
H115  H     H_    0.876686 0.597166 0.775411 0.214294
H116  H     H_    0.907945 0.570494 0.813720 0.216309
C185  C     C_3   0.414735 0.081653 0.211361 -0.394476
C186  C     C_3   0.353036 0.048584 0.206196 -0.836015
H117  H     H_    0.359382 0.006711 0.190197 0.292471
H118  H     H_    0.332773 0.034664 0.231221 0.267635
H119  H     H_    0.320122 0.079942 0.192847 0.244067
H120  H     H_    0.406970 0.126788 0.223963 0.214127
H121  H     H_    0.432946 0.094941 0.185831 0.216683
C187  C     C_3   0.077199 0.588502 0.211351 -0.394329
C188  C     C_3   0.042200 0.649083 0.205944 -0.836492
H122  H     H_    0.000540 0.641315 0.189837 0.292680
H123  H     H_    0.027653 0.669058 0.230882 0.267412
H124  H     H_    0.072510 0.682874 0.192611 0.244243
H125  H     H_    0.122054 0.597774 0.224086 0.214278
H126  H     H_    0.091094 0.570578 0.185905 0.216198
C189  C     C_3   0.587052 0.920232 0.211852 -0.394235
C190  C     C_3   0.648664 0.953428 0.206690 -0.836399
H127  H     H_    0.642176 0.995287 0.190540 0.292868
H128  H     H_    0.668972 0.967389 0.231709 0.267383
H129  H     H_    0.681602 0.922139 0.193509 0.244220
H130  H     H_    0.594954 0.875136 0.224641 0.214238
H131  H     H_    0.568813 0.906864 0.186333 0.216298
C191  C     C_3   0.920871 0.411552 0.211666 -0.394376
C192  C     C_3   0.955757 0.350872 0.206686 -0.835954
H132  H     H_    0.997397 0.358444 0.190627 0.292567
H133  H     H_    0.970323 0.331070 0.231771 0.267594
H134  H     H_    0.925363 0.317028 0.193481 0.244238
H135  H     H_    0.876015 0.402460 0.224345 0.214252
H136  H     H_    0.906978 0.429319 0.186086 0.216693
C193  C     C_3   0.083596 0.582805 0.287843 -0.394843
C194  C     C_3   0.145912 0.550947 0.293148 -0.835997
H137  H     H_    0.140325 0.508942 0.309269 0.292426
H138  H     H_    0.166490 0.537436 0.268179 0.267170
H139  H     H_    0.178184 0.582931 0.306416 0.245457
H140  H     H_    0.090483 0.628014 0.275015 0.214486
H141  H     H_    0.065182 0.595882 0.313315 0.221354
C195  C     C_3   0.420992 0.087849 0.287828 -0.394552
C196  C     C_3   0.454843 0.149097 0.292935 -0.836404
H142  H     H_    0.496742 0.142132 0.308991 0.292843
H143  H     H_    0.468867 0.169299 0.267893 0.266920
H144  H     H_    0.423966 0.182328 0.306189 0.245574
H145  H     H_    0.375977 0.096201 0.275040 0.214575
H146  H     H_    0.407421 0.069819 0.313364 0.220939
C197  C     C_3   0.914628 0.417807 0.288117 -0.394799
C198  C     C_3   0.852384 0.449797 0.293144 -0.836162
H147  H     H_    0.858105 0.491918 0.309033 0.292781
H148  H     H_    0.831725 0.463142 0.268064 0.267057
H149  H     H_    0.820119 0.417965 0.306544 0.245600
H150  H     H_    0.907620 0.372534 0.275511 0.214605
H151  H     H_    0.933104 0.404853 0.313690 0.220915
C199  C     C_3   0.580886 0.914051 0.288324 -0.394808
C200  C     C_3   0.547173 0.852717 0.293516 -0.835909
H152  H     H_    0.505283 0.859556 0.309454 0.292395
H153  H     H_    0.533153 0.832532 0.268497 0.267153
H154  H     H_    0.578142 0.819528 0.306935 0.245442
H155  H     H_    0.625924 0.905822 0.275691 0.214486
H156  H     H_    0.594409 0.932087 0.313844 0.221372
C201  C     C_3   0.086306 0.419422 0.712248 -0.394541
C202  C     C_3   0.148153 0.452184 0.707134 -0.836478
H157  H     H_    0.141929 0.494205 0.691078 0.292756
H158  H     H_    0.168592 0.465829 0.732174 0.267015
H159  H     H_    0.180843 0.420739 0.693876 0.245649
H160  H     H_    0.093850 0.374271 0.725044 0.214622
H161  H     H_    0.068064 0.406172 0.686714 0.220985
C203  C     C_3   0.421189 0.911475 0.711844 -0.394462
C204  C     C_3   0.455615 0.850535 0.706884 -0.836468
H162  H     H_    0.497524 0.857882 0.691006 0.292770
H163  H     H_    0.469703 0.830466 0.731987 0.266997
H164  H     H_    0.425101 0.817026 0.693500 0.245626
H165  H     H_    0.376202 0.902727 0.724453 0.214629
H166  H     H_    0.407552 0.929359 0.686250 0.220997
C205  C     C_3   0.915298 0.582307 0.711723 -0.394773
C206  C     C_3   0.853382 0.549660 0.706569 -0.836048
H167  H     H_    0.859500 0.507632 0.690666 0.292378
H168  H     H_    0.832951 0.536047 0.731604 0.267224
H169  H     H_    0.820732 0.581169 0.693129 0.245528
H170  H     H_    0.907859 0.627489 0.724335 0.214541
H171  H     H_    0.933550 0.595492 0.686190 0.221350
C207  C     C_3   0.579434 0.086779 0.711958 -0.394573
C208  C     C_3   0.545125 0.147782 0.706679 -0.836248
H172  H     H_    0.503313 0.140541 0.690613 0.292414
H173  H     H_    0.530892 0.167805 0.731661 0.267100
H174  H     H_    0.575774 0.181286 0.693362 0.245508
H175  H     H_    0.624367 0.095432 0.724745 0.214515
H176  H     H_    0.593179 0.068922 0.686475 0.221404
C209  C     C_3   0.813103 0.897392 0.465330 -0.398737
C210  C     C_3   0.788755 0.834746 0.477741 -0.893717
H177  H     H_    0.782994 0.834699 0.506060 0.275359
H178  H     H_    0.743518 0.824144 0.465587 0.256919
H179  H     H_    0.821752 0.797621 0.470580 0.261554
H180  H     H_    0.805286 0.901307 0.437177 0.215881
H181  H     H_    0.863707 0.897084 0.469550 0.218797
C211  C     C_3   0.099718 0.813027 0.461975 -0.398234
C212  C     C_3   0.163461 0.787781 0.471920 -0.893043
H182  H     H_    0.166939 0.781587 0.500164 0.275187
H183  H     H_    0.172057 0.742656 0.459303 0.257070
H184  H     H_    0.199986 0.820501 0.463427 0.260752
H185  H     H_    0.092410 0.806212 0.433969 0.215579
H186  H     H_    0.101177 0.863436 0.466587 0.221109
C213  C     C_3   0.186766 0.102330 0.464091 -0.400642
C214  C     C_3   0.211005 0.165198 0.476057 -0.891250
H187  H     H_    0.215759 0.166041 0.504442 0.274650
H188  H     H_    0.256698 0.175255 0.464390 0.257211
H189  H     H_    0.178415 0.202245 0.468022 0.260822
H190  H     H_    0.194516 0.097923 0.435990 0.215176
H191  H     H_    0.136178 0.102690 0.468239 0.219771
C215  C     C_3   0.911269 0.184201 0.455748 -0.359090
C216  C     C_3   0.860310 0.222955 0.438815 -0.918716
H192  H     H_    0.833291 0.248321 0.458481 0.264718
H193  H     H_    0.880502 0.256048 0.420063 0.264271
H194  H     H_    0.828253 0.191988 0.424655 0.261315
H195  H     H_    0.937862 0.162033 0.434753 0.232423
H196  H     H_    0.888378 0.147117 0.470816 0.213788
C217  C     C_3   0.813534 0.103287 0.533877 -0.399665
C218  C     C_3   0.789401 0.165606 0.520781 -0.892597
H197  H     H_    0.784214 0.164965 0.492413 0.274842
H198  H     H_    0.743921 0.176482 0.532444 0.257112
H199  H     H_    0.822250 0.202914 0.527951 0.261513
H200  H     H_    0.805715 0.100265 0.562040 0.215631
H201  H     H_    0.864137 0.103307 0.529785 0.218604
C219  C     C_3   0.090264 0.183520 0.543214 -0.359548
C220  C     C_3   0.141880 0.222008 0.559579 -0.917943
H202  H     H_    0.167926 0.247903 0.539635 0.264649
H203  H     H_    0.122475 0.254605 0.578741 0.264067
H204  H     H_    0.174639 0.190795 0.573166 0.261159
H205  H     H_    0.064479 0.160956 0.564463 0.232346
H206  H     H_    0.112628 0.146732 0.527789 0.212168
C221  C     C_3   0.183448 0.906437 0.540352 -0.361448
C222  C     C_3   0.222134 0.853876 0.555727 -0.915225
H207  H     H_    0.248071 0.829282 0.535323 0.263659
H208  H     H_    0.254730 0.872080 0.575349 0.264226
H209  H     H_    0.191045 0.820126 0.568545 0.260632
H210  H     H_    0.160386 0.930198 0.562084 0.232540
H211  H     H_    0.147015 0.885211 0.524103 0.210240
C223  C     C_3   0.910423 0.815976 0.542899 -0.358757
C224  C     C_3   0.859128 0.777176 0.559340 -0.918295
H212  H     H_    0.832559 0.751767 0.539430 0.264370
H213  H     H_    0.878949 0.744105 0.578284 0.264485
H214  H     H_    0.826733 0.808117 0.573188 0.261111
H215  H     H_    0.936295 0.838304 0.564192 0.233030
H216  H     H_    0.887925 0.852932 0.527503 0.213621
C225  C     C_3   0.315216 0.416179 0.952969 -0.357715
C226  C     C_3   0.276493 0.365697 0.935728 -0.923457
H217  H     H_    0.250799 0.338368 0.955225 0.266728
H218  H     H_    0.243705 0.386322 0.916910 0.261239
H219  H     H_    0.307524 0.333853 0.921552 0.261110
H220  H     H_    0.336720 0.444232 0.932254 0.230846
H221  H     H_    0.352747 0.392552 0.967421 0.216590
C227  C     C_3   0.605488 0.313658 0.968351 -0.403308
C228  C     C_3   0.666525 0.290688 0.983737 -0.892227
H222  H     H_    0.663293 0.287844 0.012149 0.274368
H223  H     H_    0.678393 0.244304 0.973579 0.256592
H224  H     H_    0.704452 0.322984 0.976783 0.261337
H225  H     H_    0.605492 0.304760 0.940245 0.213218
H226  H     H_    0.604507 0.364412 0.971792 0.218465
C229  C     C_3   0.684344 0.584466 0.953108 -0.357654
C230  C     C_3   0.722890 0.635227 0.935938 -0.923257
H227  H     H_    0.748802 0.662229 0.955469 0.266721
H228  H     H_    0.755475 0.614909 0.917070 0.261188
H229  H     H_    0.691716 0.667306 0.921828 0.261178
H230  H     H_    0.662747 0.556642 0.932359 0.230874
H231  H     H_    0.646870 0.607864 0.967537 0.216416
C231  C     C_3   0.394832 0.686736 0.967589 -0.403597
C232  C     C_3   0.333681 0.709572 0.982648 -0.891987
H232  H     H_    0.336749 0.712306 0.011067 0.274507
H233  H     H_    0.321825 0.755988 0.972341 0.256547
H234  H     H_    0.295826 0.677268 0.975585 0.261213
H235  H     H_    0.395049 0.695925 0.939482 0.213253
H236  H     H_    0.395765 0.635947 0.971041 0.218591
C233  C     C_3   0.315647 0.584318 0.046698 -0.357464
C234  C     C_3   0.277096 0.635028 0.063743 -0.923536
H237  H     H_    0.251184 0.662083 0.044145 0.266764
H238  H     H_    0.244513 0.614654 0.082661 0.261208
H239  H     H_    0.308268 0.667070 0.077774 0.261106
H240  H     H_    0.337238 0.556434 0.067516 0.230931
H241  H     H_    0.353123 0.607761 0.032214 0.216455
C235  C     C_3   0.605392 0.686352 0.032050 -0.403178
C236  C     C_3   0.666488 0.709387 0.016938 -0.892199
H242  H     H_    0.663355 0.712371 0.988519 0.274462
H243  H     H_    0.678323 0.755720 0.027213 0.256571
H244  H     H_    0.704387 0.677054 0.023993 0.261261
H245  H     H_    0.605264 0.695187 0.060161 0.213306
H246  H     H_    0.604458 0.635607 0.028567 0.218503
C237  C     C_3   0.684776 0.416049 0.047235 -0.357848
C238  C     C_3   0.723495 0.365526 0.064609 -0.923033
H247  H     H_    0.749185 0.338239 0.045184 0.266637
H248  H     H_    0.756287 0.386107 0.083371 0.261246
H249  H     H_    0.692463 0.333652 0.078870 0.261223
H250  H     H_    0.663266 0.444051 0.067877 0.230888
H251  H     H_    0.647247 0.392458 0.032843 0.216534
C239  C     C_3   0.394745 0.313270 0.032022 -0.403642
C240  C     C_3   0.333648 0.290493 0.016694 -0.892064
H252  H     H_    0.336807 0.287895 0.988282 0.274430
H253  H     H_    0.321765 0.244028 0.026889 0.256572
H254  H     H_    0.295766 0.322759 0.023659 0.261279
H255  H     H_    0.394839 0.304023 0.060123 0.213231
H256  H     H_    0.395721 0.364066 0.028609 0.218555

loop_
_geom_bond_atom_site_label_1
_geom_bond_atom_site_label_2
_ccdc_geom_bond_type
C18   C227  S    
C200  H152  S    
C4    C36   S    
O45   Zn12  S    
C180  H102  S    
C82   C94   A    
C155  H46   S    
C130  H2    S    
C234  H239  S    
O40   Zn10  S    
C32   C45   S    
C12   C215  S    
C165  C166  S    
C77   F5    S    
C240  H252  S    
C214  H188  S    
C116  C199  S    
C57   C145  S    
C212  H182  S    
C235  H246  S    
C163  C164  S    
C50   O18   A    
C52   O22   A    
C225  H221  S    
C51   O23   A    
C210  H178  S    
C198  H147  S    
C154  H38   S    
C160  H52   S    
C83   C93   A    
C67   C165  S    
C13   C217  S    
C236  H242  S    
C41   O33   A    
C229  C230  S    
C227  H225  S    
C175  C176  S    
C144  H16   S    
C177  H101  S    
C129  H1    S    
C237  H251  S    
C138  H10   S    
C154  H39   S    
C163  H66   S    
C50   C103  S    
C196  H143  S    
C219  H206  S    
C111  C189  S    
O38   Zn10  S    
O39   Zn10  S    
C142  H14   S    
C147  C148  S    
C136  H8    S    
C11   C27   A    
C49   O17   A    
C52   C101  S    
C44   O36   A    
C23   C237  S    
C47   O45   A    
O44   Zn11  S    
C174  H89   S    
C191  H136  S    
C42   O38   A    
O7    Zn1   S    
C190  H128  S    
C204  H164  S    
O2    Zn2   S    
C236  H243  S    
C21   C29   A    
C106  C127  A    
C60   C76   A    
C81   F9    S    
C23   C31   A    
C80   C92   A    
C83   F11   S    
C217  H200  S    
C148  H22   S    
C66   C82   A    
C15   C27   A    
C223  H216  S    
C80   F8    S    
C57   C97   A    
C48   O48   A    
C170  H77   S    
C38   C138  A    
C137  H9    S    
C43   O37   A    
C213  H191  S    
C112  C125  A    
C237  H250  S    
C64   C159  S    
C140  H12   S    
C95   C122  S    
C141  H13   S    
C238  H247  S    
C119  C205  S    
C153  H41   S    
C180  H104  S    
C31   C48   S    
O1    Zn1   S    
C236  H244  S    
C194  H138  S    
C105  C118  A    
C218  H197  S    
O37   Zn10  S    
C107  C120  A    
C222  H207  S    
C212  H184  S    
C108  C183  S    
C192  H133  S    
C77   C91   A    
O3    Zn3   S    
C12   C132  A    
C13   C133  A    
C198  H149  S    
C59   C149  S    
C52   O24   A    
C51   O21   A    
C226  H217  S    
C63   C79   A    
O9    Zn5   S    
C145  H21   S    
C60   C98   A    
C233  H240  S    
C206  H167  S    
C74   C90   A    
C166  H68   S    
C185  H120  S    
C164  H63   S    
C193  C194  S    
O6    Zn2   S    
C113  C124  A    
C20   C231  S    
O4    Zn4   S    
C40   C140  A    
C55   C98   S    
C165  H70   S    
C217  H201  S    
C178  H97   S    
C197  H151  S    
C157  H51   S    
C73   C89   A    
C216  H194  S    
C230  H227  S    
C19   C139  A    
C199  C200  S    
C240  H254  S    
C207  H175  S    
C208  H173  S    
C7    C39   S    
C203  H165  S    
C17   C137  A    
C8    C40   S    
C186  H117  S    
O12   Zn8   S    
C169  H80   S    
C49   O19   A    
C161  H60   S    
C231  H236  S    
C177  C178  S    
C116  C123  A    
C181  H110  S    
C197  C198  S    
C58   C98   A    
C65   C101  A    
C92   C125  S    
C2    O2    A    
C226  H219  S    
C183  C184  S    
C90   C127  S    
C3    O7    A    
C199  H156  S    
C209  C210  S    
C51   C102  S    
O33   Zn9   S    
C200  H153  S    
C179  H105  S    
C22   C32   A    
C96   C121  S    
C105  C177  S    
C55   O29   A    
C195  C196  S    
O13   Zn7   S    
C15   C221  S    
C148  H24   S    
C36   C132  A    
C8    O14   A    
C172  H83   S    
C24   C239  S    
C192  H132  S    
O22   Zn2   S    
C182  H107  S    
O18   Zn2   S    
C43   O35   A    
C156  H42   S    
C57   C73   A    
O20   Zn4   S    
C181  H111  S    
C63   C99   A    
C71   C173  S    
C27   C44   S    
C238  H249  S    
C15   C135  A    
C182  H108  S    
C158  H47   S    
C87   C95   A    
C6    C38   S    
C131  H3    S    
C207  C208  S    
C139  H11   S    
C79   C91   A    
C222  H209  S    
C152  H34   S    
C224  H214  S    
C195  H146  S    
C9    C209  S    
C228  H222  S    
C232  H234  S    
C79   F7    S    
C56   C97   S    
O34   Zn9   S    
C239  H255  S    
C69   C103  A    
C56   O30   A    
C206  H169  S    
C84   F12   S    
C8    O12   A    
C74   F2    S    
C35   C135  A    
C176  H93   S    
C107  C181  S    
O19   Zn3   S    
C146  H19   S    
C78   C92   A    
C151  H36   S    
C220  H203  S    
C174  H88   S    
C117  C122  A    
C145  C146  S    
C168  H73   S    
C216  H192  S    
C230  H229  S    
C3    C35   S    
C181  C182  S    
C184  H114  S    
C22   C142  A    
C146  H18   S    
C147  H25   S    
C109  C114  A    
C114  C123  A    
C221  H211  S    
C44   O40   A    
C175  H96   S    
C171  H86   S    
C54   C99   S    
C224  H212  S    
C16   C136  A    
C2    O8    A    
O35   Zn9   S    
C69   C85   A    
C120  C121  A    
C58   C74   A    
C6    O10   A    
C112  C191  S    
C46   O46   A    
C71   C103  A    
C239  C240  S    
C159  C160  S    
C5    O13   A    
C159  H55   S    
C62   C78   A    
C88   F16   S    
C36   C134  A    
C221  C222  S    
C48   O44   A    
C60   C151  S    
C150  H29   S    
C156  H44   S    
C184  H112  S    
C198  H148  S    
C64   C100  A    
C225  H220  S    
C82   F10   S    
C187  H125  S    
C85   C95   A    
C210  H179  S    
C2    C34   S    
C158  H49   S    
C215  H196  S    
O25   Zn5   S    
C162  H58   S    
C167  H75   S    
C168  H74   S    
C106  C179  S    
C75   C89   A    
C113  C193  S    
C109  C126  A    
C208  H172  S    
C211  C212  S    
C61   C153  S    
C86   F14   S    
C228  H224  S    
C227  H226  S    
C232  H232  S    
C162  H57   S    
C188  H123  S    
C177  H100  S    
C160  H54   S    
C14   C219  S    
C88   C96   A    
C196  H142  S    
C7    O11   A    
C17   C29   A    
C78   F6    S    
C41   O39   A    
C19   C31   A    
C202  H157  S    
O28   Zn8   S    
C9    C25   A    
C157  C158  S    
C221  H210  S    
C67   C83   A    
C67   C101  A    
O47   Zn12  S    
C37   C141  A    
C12   C28   A    
C10   C211  S    
C56   O32   A    
C68   C102  A    
C20   C32   A    
C225  C226  S    
C70   C104  A    
C204  H163  S    
C5    C37   S    
C209  H181  S    
C72   C175  S    
C152  H32   S    
C28   C41   S    
C203  C204  S    
C234  H237  S    
C149  H30   S    
C18   C138  A    
O8    Zn4   S    
C205  H170  S    
O29   Zn7   S    
C213  H190  S    
C173  H91   S    
C162  H59   S    
C170  H78   S    
C149  C150  S    
C111  C116  A    
C183  H115  S    
C3    O3    A    
O11   Zn7   S    
C94   C123  S    
C238  H248  S    
C189  H131  S    
C1    O1    A    
C153  H40   S    
C180  H103  S    
C54   O28   A    
C155  H45   S    
C16   C26   A    
C64   C80   A    
C108  C119  A    
C109  C185  S    
C235  H245  S    
C218  H198  S    
C49   C104  S    
C70   C171  S    
C214  H187  S    
C222  H208  S    
O36   Zn9   S    
C212  H183  S    
C53   C100  S    
C17   C225  S    
C157  H50   S    
C39   C139  A    
C23   C143  A    
C170  H79   S    
C205  C206  S    
C68   C84   A    
C205  H171  S    
C210  H177  S    
C226  H218  S    
C72   C104  A    
C178  H99   S    
O46   Zn12  S    
C154  H37   S    
C169  H81   S    
C75   F3    S    
C145  H20   S    
C110  C187  S    
O14   Zn6   S    
C218  H199  S    
C206  H168  S    
C168  H72   S    
C10   C130  A    
C164  H62   S    
C87   F15   S    
C65   C81   A    
C111  C126  A    
C151  C152  S    
C153  C154  S    
C47   O43   A    
C84   C94   A    
C178  H98   S    
O41   Zn11  S    
C86   C96   A    
C71   C87   A    
C216  H193  S    
C230  H228  S    
C163  H65   S    
C196  H144  S    
C240  H253  S    
C106  C117  A    
C207  H176  S    
C219  H205  S    
C203  H166  S    
C186  H118  S    
C35   C131  A    
C188  H122  S    
C33   C129  A    
C173  H90   S    
C115  C124  A    
C38   C144  A    
C191  H135  S    
C19   C229  S    
C190  H127  S    
C63   C157  S    
C25   C42   S    
C182  H109  S    
C143  H15   S    
O10   Zn6   S    
C179  H106  S    
C29   C46   S    
C20   C140  A    
C186  H119  S    
C229  H230  S    
C193  H141  S    
C21   C141  A    
C176  H92   S    
C148  H23   S    
O31   Zn5   S    
C172  H82   S    
C68   C167  S    
C223  H215  S    
C24   C144  A    
C135  H7    S    
C114  C195  S    
C150  H28   S    
C197  H150  S    
C173  C174  S    
C46   O42   A    
C215  H195  S    
C158  H48   S    
C215  C216  S    
C54   O26   A    
C5    O9    A    
C194  H137  S    
C69   C169  S    
C214  H189  S    
C201  H160  S    
C55   O31   A    
C89   C128  S    
O48   Zn12  S    
C192  H134  S    
C224  H213  S    
C231  C232  S    
C91   C126  S    
C40   C142  A    
C232  H233  S    
C66   C102  A    
C93   C124  S    
C193  H140  S    
C187  C188  S    
C1    C33   S    
C189  C190  S    
C239  H256  S    
C150  H27   S    
C62   C155  S    
C233  H241  S    
C169  C170  S    
O15   Zn5   S    
C166  H67   S    
C107  C128  A    
C185  H121  S    
C164  H64   S    
C21   C233  S    
C211  H185  S    
C134  H6    S    
C11   C213  S    
C220  H202  S    
O17   Zn1   S    
C42   O34   A    
C53   O25   A    
C179  C180  S    
C149  H31   S    
C76   F4    S    
C117  C201  S    
C152  H33   S    
C194  H139  S    
C7    O15   A    
C208  H174  S    
O16   Zn8   S    
C18   C30   A    
C34   C136  A    
C217  C218  S    
C147  H26   S    
C188  H124  S    
C10   C26   A    
C161  H61   S    
C22   C235  S    
C231  H235  S    
C45   O47   A    
C37   C137  A    
C13   C25   A    
C61   C99   A    
C190  H129  S    
C229  H231  S    
C72   C88   A    
C26   C43   S    
O24   Zn4   S    
C199  H155  S    
C115  C197  S    
C189  H130  S    
C200  H154  S    
O27   Zn7   S    
C132  H4    S    
C159  H56   S    
C30   C47   S    
C133  H5    S    
C61   C77   A    
C213  C214  S    
C73   F1    S    
O5    Zn3   S    
C172  H84   S    
C14   C134  A    
C184  H113  S    
C201  H161  S    
C156  H43   S    
C118  C121  A    
O42   Zn11  S    
C50   O20   A    
C223  C224  S    
C187  H126  S    
C81   C93   A    
C171  C172  S    
C237  C238  S    
C1    O5    A    
C155  C156  S    
C4    O4    A    
C233  C234  S    
C167  H76   S    
C66   C163  S    
O30   Zn6   S    
C110  C113  A    
C185  C186  S    
C235  C236  S    
C39   C143  A    
C195  H145  S    
C118  C203  S    
C228  H223  S    
C59   C97   A    
C62   C100  A    
C70   C86   A    
C59   C75   A    
C58   C147  S    
C76   C90   A    
C119  C122  A    
C160  H53   S    
C105  C128  A    
C171  H85   S    
C16   C223  S    
C166  H69   S    
C11   C131  A    
C176  H94   S    
C202  H158  S    
C9    C129  A    
O23   Zn1   S    
C151  H35   S    
O43   Zn11  S    
O21   Zn3   S    
C220  H204  S    
C174  H87   S    
C120  C207  S    
C53   O27   A    
C65   C161  S    
C204  H162  S    
C6    O16   A    
C209  H180  S    
O26   Zn6   S    
C219  C220  S    
C4    O6    A    
C234  H238  S    
C108  C127  A    
C146  H17   S    
C165  H71   S    
C24   C30   A    
C211  H186  S    
C202  H159  S    
C110  C125  A    
C33   C133  A    
C227  C228  S    
C34   C130  A    
C45   O41   A    
C201  C202  S    
C167  C168  S    
C175  H95   S    
C85   F13   S    
C191  C192  S    
C14   C28   A    
C161  C162  S    
O32   Zn8   S    
C112  C115  A    
C183  H116  S    
