data_mof_unit_24175.cif
_audit_creation_date              2012-12-10T17:33:02-0500
_audit_creation_method            fapswitch 2.2
_symmetry_space_group_name_H-M    P1
_symmetry_Int_Tables_number       1
_space_group_crystal_system       triclinic
_cell_length_a                    12.364704
_cell_length_b                    13.263003
_cell_length_c                    14.204372
_cell_angle_alpha                 93.604341
_cell_angle_beta                  107.32723
_cell_angle_gamma                 117.14597
_cell_volume                      1923.83551021

loop_
_atom_site_label
_atom_site_type_symbol
_atom_type_description
_atom_site_fract_x
_atom_site_fract_y
_atom_site_fract_z
_atom_type_partial_charge
C1    C     C_R   0.650361 0.713971 0.507624 0.778073
C2    C     C_R   0.862561 0.523882 0.924885 0.078975
C3    C     C_R   0.814971 0.541574 0.000423 0.124857
C4    C     C_R   0.971468 0.504663 0.950578 0.085246
C5    C     C_R   0.036706 0.510817 0.053583 0.061798
C6    C     C_R   0.986221 0.527734 0.126383 -0.225866
C7    C     C_R   0.877961 0.541765 0.100263 -0.122037
C8    C     C_R   0.012885 0.473045 0.876192 -0.164534
C9    C     C_R   0.114325 0.448483 0.902179 -0.187997
C10   C     C_R   0.180592 0.456995 0.003044 0.166119
C11   C     C_R   0.145660 0.492547 0.079912 0.087481
C12   C     C_R   0.616992 0.515700 0.687255 0.826155
C13   C     C_R   0.280763 0.429022 0.028044 -0.169681
C14   C     C_R   0.347129 0.436493 0.129002 -0.187351
C15   C     C_R   0.220614 0.507801 0.181074 -0.241423
C16   C     C_R   0.143275 0.964974 0.359491 -0.001216
C17   C     C_R   0.248409 0.161516 0.461460 -0.077999
C18   C     C_R   0.725107 0.922294 0.564953 -0.165859
C19   C     C_R   0.812045 0.039482 0.578843 -0.133392
C20   C     C_R   0.912984 0.073006 0.542430 -0.177468
C21   C     C_R   0.926644 0.988885 0.487959 0.095134
C22   C     C_R   0.827667 0.870706 0.462532 0.065680
C23   C     C_R   0.345108 0.285052 0.484812 0.829797
C24   C     C_R   0.034817 0.018629 0.457263 0.062577
C25   C     C_R   0.035020 0.933869 0.390453 0.062629
C26   C     C_R   0.928077 0.820455 0.357685 -0.155511
C27   C     C_R   0.825328 0.790338 0.390994 -0.177468
C28   C     C_R   0.144855 0.130034 0.494369 -0.236485
C29   C     C_R   0.249358 0.078718 0.396366 -0.226538
C30   C     C_R   0.733347 0.836744 0.509019 -0.103272
C31   C     C_R   0.256237 0.686783 0.662937 -0.225230
C32   C     C_R   0.655441 0.342468 0.362877 0.076314
C33   C     C_R   0.733592 0.308197 0.332971 -0.246089
C34   C     C_R   0.382466 0.484041 0.313184 0.795393
C35   C     C_R   0.868604 0.367210 0.385319 -0.198410
C36   C     C_R   0.928249 0.462364 0.468967 -0.004786
C37   C     C_R   0.843897 0.494832 0.496226 0.290264
C38   C     C_R   0.067738 0.526567 0.525816 -0.067006
C39   C     C_R   0.119640 0.620530 0.610288 0.127965
C40   C     C_R   0.034445 0.648675 0.638148 -0.075350
C41   C     C_R   0.901356 0.589516 0.579068 -0.295349
C42   C     C_R   0.159062 0.501913 0.502390 0.019976
C43   C     C_R   0.339400 0.657957 0.635914 0.081474
C44   C     C_R   0.680565 0.524340 0.796107 -0.132761
C45   C     C_R   0.317024 0.476147 0.205994 -0.045560
C46   C     C_R   0.700893 0.551988 0.973677 -0.067790
C47   C     C_R   0.628745 0.535335 0.870426 -0.069963
C48   C     C_R   0.798391 0.523846 0.825355 -0.254414
Cu1   Cu    Cu3+1 0.416420 0.526630 0.522910 0.961740
Cu2   Cu    Cu3+1 0.583580 0.473370 0.477090 0.928052
H1    H     H_    0.842137 0.548793 0.159704 0.171746
H2    H     H_    0.306181 0.399595 0.969300 0.142262
H3    H     H_    0.329700 0.104372 0.369802 0.174646
H4    H     H_    0.923211 0.752368 0.307844 0.202448
H5    H     H_    0.153258 0.194872 0.550082 0.161861
H6    H     H_    0.652406 0.898642 0.599567 0.157327
H7    H     H_    0.976361 0.165576 0.555704 0.129342
H8    H     H_    0.803465 0.104863 0.620653 0.146506
H9    H     H_    0.742855 0.703413 0.357379 0.192938
H10   H     H_    0.443791 0.708789 0.677385 0.143266
H11   H     H_    0.207243 0.546367 0.242466 0.157697
H12   H     H_    0.301091 0.762748 0.723784 0.197141
H13   H     H_    0.127667 0.431425 0.440530 0.123199
H14   H     H_    0.550896 0.295807 0.321738 0.126584
H15   H     H_    0.923644 0.336310 0.358748 0.140013
H16   H     H_    0.689219 0.235293 0.268909 0.159151
H17   H     H_    0.844727 0.619135 0.602616 0.202927
H18   H     H_    0.421934 0.411871 0.146769 0.146700
H19   H     H_    0.140378 0.421769 0.842574 0.140228
H20   H     H_    0.838911 0.523702 0.768189 0.163280
H21   H     H_    0.023394 0.524133 0.204212 0.140793
H22   H     H_    0.965671 0.461069 0.796078 0.145516
N1    N     N_R   0.290690 0.566960 0.557640 -0.182574
N2    N     N_R   0.709100 0.433710 0.442970 -0.199458
O1    O     O_R   0.545970 0.684450 0.528810 -0.578673
O2    O     O_R   0.687130 0.639470 0.490120 -0.609934
O3    O     O_R   0.519670 0.535100 0.660030 -0.552004
O4    O     O_R   0.660830 0.490120 0.621340 -0.602004
O5    O     O_R   0.312870 0.360530 0.509880 -0.575652
O6    O     O_R   0.454030 0.315550 0.471190 -0.586038
O7    O     O_R   0.339170 0.509880 0.378660 -0.588276
O8    O     O_R   0.480330 0.464900 0.339970 -0.594535
C49   C     C_2   0.148425 0.884158 0.285996 0.811604
O9    O     O_2   0.054691 0.825282 0.207310 -0.564411
O10   O     O_R   0.263770 0.880021 0.304759 -0.761680
H23   H     H_    0.256139 0.822598 0.249089 0.341927
C50   C     C_2   0.077639 0.738119 0.730095 0.339585
H24   H     H_    0.030203 0.789971 0.728337 0.077653
O11   O     O_2   0.158910 0.749012 0.810160 -0.523906
C51   C     C_2   0.652635 0.576089 0.051830 0.380687
H25   H     H_    0.550089 0.525670 0.040386 0.067022
O12   O     O_2   0.725759 0.656520 0.126602 -0.528766
C52   C     C_2   0.499329 0.528452 0.841625 0.823017
O13   O     O_2   0.491282 0.612058 0.872357 -0.586117
O14   O     O_R   0.386899 0.425712 0.779722 -0.763132
H26   H     H_    0.304950 0.431962 0.763970 0.321197

loop_
_geom_bond_atom_site_label_1
_geom_bond_atom_site_label_2
_ccdc_geom_bond_type
C43   N1    A    
C50   H24   S    
C52   O13   D    
C17   C29   A    
C19   C20   A    
C4    C8    A    
C37   N2    A    
C41   H17   S    
O10   H23   S    
C26   C27   A    
C17   C23   S    
C31   C43   A    
C40   C50   S    
C36   C37   A    
C9    H19   S    
C5    C11   A    
C3    C7    A    
Cu2   N2    S    
C32   N2    A    
C5    C6    A    
C35   H15   S    
C26   H4    S    
C18   C19   A    
Cu1   O7    S    
C11   C15   A    
O14   H26   S    
C31   C39   A    
C8    C9    A    
C12   O4    A    
Cu1   O1    S    
C18   C30   A    
C34   O7    A    
C23   O6    A    
C9    C10   A    
C44   C47   A    
C18   H6    S    
C52   O14   S    
C21   C22   A    
C17   C28   A    
C31   H12   S    
Cu2   O4    S    
C28   H5    S    
C33   H16   S    
C14   C45   A    
C19   H8    S    
C47   C52   S    
C6    H21   S    
C8    H22   S    
C1    O1    A    
C24   C25   A    
C32   H14   S    
C39   C40   A    
C2    C48   A    
C16   C29   A    
C16   C49   S    
Cu1   O5    S    
C35   C36   A    
C2    C4    A    
Cu2   O2    S    
C13   H2    S    
C51   O12   D    
C49   O9    D    
C12   O3    A    
C15   H11   S    
C34   C45   S    
C43   H10   S    
C40   C41   A    
C49   O10   S    
C22   C27   A    
C50   O11   D    
Cu1   N1    S    
C15   C45   A    
Cu2   O8    S    
C16   C25   A    
C46   C47   A    
C42   N1    A    
C22   C30   A    
C1    O2    A    
C24   C28   A    
C48   H20   S    
C4    C5    A    
C10   C13   A    
Cu2   O6    S    
C38   C42   A    
C6    C7    A    
C46   C51   S    
C3    C46   A    
C32   C33   A    
C36   C38   A    
C2    C3    A    
C25   C26   A    
C7    H1    S    
C12   C44   S    
C27   H9    S    
C51   H25   S    
C38   C39   A    
C29   H3    S    
C1    C30   S    
C33   C35   A    
Cu1   O3    S    
C37   C41   A    
C10   C11   A    
C20   C21   A    
Cu1   Cu2   S    
C21   C24   A    
C14   H18   S    
C34   O8    A    
C23   O5    A    
C20   H7    S    
C13   C14   A    
C42   H13   S    
C44   C48   A    
