data_mof_unit_30535.cif
_audit_creation_date              2013-03-05T16:21:44-0500
_audit_creation_method            fapswitch 2.2
_symmetry_space_group_name_H-M    P1
_symmetry_Int_Tables_number       1
_space_group_crystal_system       triclinic
_cell_length_a                    12.996344
_cell_length_b                    15.095187
_cell_length_c                    13.898021
_cell_angle_alpha                 89.24139
_cell_angle_beta                  95.382727
_cell_angle_gamma                 90.505596
_cell_volume                      2714.2050022

loop_
_atom_site_label
_atom_site_type_symbol
_atom_site_description
_atom_site_fract_x
_atom_site_fract_y
_atom_site_fract_z
_atom_type_partial_charge
O1    O     O_R   0.500010 0.371450 0.581430 -0.492832
O2    O     O_R   0.499990 0.628550 0.418570 -0.587395
O3    O     O_R   0.500010 0.371460 0.418560 -0.551902
O4    O     O_R   0.499990 0.628540 0.581440 -0.570190
C1    C     C_R   0.499581 0.329735 0.500554 0.936256
C2    C     C_R   0.499703 0.669501 0.499520 0.987251
O5    O     O_R   0.349000 0.499980 0.568210 -0.585572
O6    O     O_R   0.651000 0.500020 0.431790 -0.539169
O7    O     O_R   0.349000 0.499990 0.405340 -0.595131
O8    O     O_R   0.651000 0.500010 0.594660 -0.577640
C3    C     C_R   0.300696 0.500053 0.482362 0.859820
C4    C     C_R   0.699331 0.500764 0.517558 0.870857
Cu1   Cu    Cu3+1 0.500000 0.499990 0.596430 1.036047
Cu2   Cu    Cu3+1 0.500000 0.500010 0.403570 1.013335
C5    C     C_R   0.811733 0.503709 0.527465 -0.120767
C6    C     C_R   0.188316 0.499208 0.472015 -0.120152
C7    C     C_R   0.027237 0.477102 0.372976 0.396264
C8    C     C_R   0.972800 0.528083 0.625921 0.397242
C9    C     C_R   0.134453 0.480409 0.382612 -0.180563
C10   C     C_R   0.865591 0.523290 0.616675 -0.150750
C11   C     C_R   0.134836 0.516312 0.552142 -0.167018
C12   C     C_R   0.865195 0.488324 0.446849 -0.197231
C13   C     C_R   0.027263 0.512624 0.544760 0.031578
C14   C     C_R   0.972737 0.492568 0.454111 0.022461
H1    H     H_    0.822320 0.472669 0.378621 0.237688
H2    H     H_    0.177760 0.532664 0.620081 0.209729
H3    H     H_    0.824374 0.535792 0.679321 0.195024
H4    H     H_    0.175623 0.467255 0.320109 0.183215
C15   C     C_R   0.547701 0.092460 0.580593 0.383680
C16   C     C_R   0.402873 0.901669 0.507956 0.396453
C17   C     C_R   0.552297 0.185042 0.578595 0.271001
C18   C     C_R   0.403956 0.809152 0.504660 0.239555
C19   C     C_R   0.497924 0.232562 0.501809 -0.349043
C20   C     C_R   0.497906 0.765294 0.498710 -0.342770
C21   C     C_R   0.440710 0.186310 0.426658 0.246922
C22   C     C_R   0.590773 0.812859 0.496806 0.218583
C23   C     C_R   0.442985 0.093878 0.425133 0.393162
C24   C     C_R   0.589443 0.905281 0.494865 0.413443
C25   C     C_R   0.495097 0.046958 0.502933 -0.137275
C26   C     C_R   0.495474 0.949789 0.501780 -0.136672
C27   C     C_R   0.583841 0.527861 0.112196 0.231654
C28   C     C_R   0.462248 0.426378 0.890706 0.221835
C29   C     C_R   0.581931 0.533829 0.213718 0.486407
C30   C     C_R   0.457702 0.429751 0.788262 0.514831
N1    N     N_R   0.500000 0.500020 0.258690 -0.252050
N2    N     N_R   0.500000 0.499980 0.741310 -0.248966
C31   C     C_R   0.414702 0.469851 0.203692 -0.128980
C32   C     C_R   0.534673 0.572303 0.792881 -0.142281
H5    H     H_    0.350071 0.443419 0.238660 0.204160
H6    H     H_    0.565503 0.628656 0.756004 0.201778
C33   C     C_R   0.407745 0.474111 0.101515 0.348673
C34   C     C_R   0.527398 0.576750 0.893416 0.342883
C35   C     C_R   0.494608 0.501333 0.053953 -0.063351
C36   C     C_R   0.493753 0.501822 0.944770 -0.058296
O9    O     O_3   0.318012 0.446706 0.048570 -0.515705
C37   C     C_3   0.241443 0.511766 0.053451 0.036235
H7    H     H_    0.268435 0.577192 0.027045 0.130524
H8    H     H_    0.219616 0.518336 0.128604 0.152801
C38   C     C_3   0.145490 0.484458 0.989318 -0.625685
H9    H     H_    0.114269 0.420930 0.015995 0.254708
H10   H     H_    0.085368 0.536194 0.990195 0.220723
H11   H     H_    0.165185 0.475945 0.913953 0.261609
O10   O     O_3   0.556677 0.653907 0.941230 -0.522575
C39   C     C_3   0.470229 0.710137 0.937848 0.085449
H12   H     H_    0.403669 0.676630 0.968559 0.123466
H13   H     H_    0.446631 0.731790 0.862095 0.167943
C40   C     C_3   0.498472 0.791957 0.997677 -0.737012
H14   H     H_    0.564673 0.827310 0.969070 0.270284
H15   H     H_    0.431406 0.837335 0.994444 0.206659
H16   H     H_    0.519891 0.772478 0.074220 0.219523
Cl1   Cl    Cl    0.965498 0.452471 0.257937 -0.688990
Cl2   Cl    Cl    0.034775 0.553749 0.740667 -0.659267
Cl3   Cl    Cl    0.605209 0.033578 0.682581 -0.458891
Cl4   Cl    Cl    0.286356 0.956641 0.524822 -0.443633
Cl5   Cl    Cl    0.630562 0.239631 0.671285 -0.526398
Cl6   Cl    Cl    0.287846 0.747912 0.510027 -0.528180
Cl7   Cl    Cl    0.360403 0.241422 0.335226 -0.563254
Cl8   Cl    Cl    0.710447 0.757644 0.502027 -0.599166
O11   O     O_3   0.385047 0.049415 0.351884 -0.489805
C41   C     C_3   0.447787 0.031964 0.276793 0.082201
H17   H     H_    0.497823 0.974065 0.296787 0.098514
H18   H     H_    0.496769 0.090139 0.259637 0.139690
C42   C     C_3   0.379149 0.009039 0.185717 -0.684856
H19   H     H_    0.328440 0.065900 0.163100 0.274195
H20   H     H_    0.427738 0.993954 0.126468 0.180704
H21   H     H_    0.330467 0.950169 0.199322 0.253146
O12   O     O_3   0.681972 0.951672 0.497033 -0.484007
C43   C     C_3   0.703528 0.972085 0.401556 0.052484
H22   H     H_    0.656583 0.029600 0.373516 0.105613
H23   H     H_    0.688536 0.914823 0.352025 0.129465
C44   C     C_3   0.816936 0.997720 0.401849 -0.608878
H24   H     H_    0.866271 0.941338 0.429034 0.277663
H25   H     H_    0.834682 0.015162 0.327277 0.184986
H26   H     H_    0.834460 0.055785 0.449040 0.257511
O13   O     O_3   0.672105 0.553490 0.070393 -0.528593
C45   C     C_3   0.736957 0.479492 0.066824 0.102130
H27   H     H_    0.698808 0.427366 0.019981 0.113846
H28   H     H_    0.758223 0.451472 0.140490 0.198309
C46   C     C_3   0.835472 0.508111 0.023644 -0.636465
H29   H     H_    0.875934 0.560313 0.068704 0.260742
H30   H     H_    0.887610 0.450509 0.020746 0.216892
H31   H     H_    0.816592 0.534598 0.949182 0.249307
O14   O     O_3   0.429324 0.351034 0.936999 -0.533522
C47   C     C_3   0.509173 0.287965 0.944205 0.113109
H32   H     H_    0.579274 0.314335 0.986727 0.117093
H33   H     H_    0.529304 0.268072 0.871440 0.212372
C48   C     C_3   0.473075 0.205815 0.996417 -0.707745
H34   H     H_    0.403636 0.176976 0.955223 0.257836
H35   H     H_    0.535368 0.155612 0.003098 0.203419
H36   H     H_    0.453535 0.223308 0.069934 0.261033
O15   O     O_3   0.668175 0.566215 0.267937 -0.549523
C49   C     C_3   0.675852 0.659126 0.255459 0.081307
H37   H     H_    0.627359 0.692590 0.305371 0.173391
H38   H     H_    0.651326 0.682838 0.180643 0.157651
C50   C     C_3   0.787877 0.687426 0.279220 -0.642801
H39   H     H_    0.836905 0.657726 0.227021 0.256047
H40   H     H_    0.794514 0.760738 0.274782 0.199389
H41   H     H_    0.816048 0.664942 0.353322 0.280787
O16   O     O_3   0.414444 0.359605 0.735535 -0.532856
C51   C     C_3   0.305857 0.360425 0.736984 0.082778
H42   H     H_    0.273610 0.428184 0.724462 0.139949
H43   H     H_    0.283355 0.334504 0.807283 0.198493
C52   C     C_3   0.257273 0.300606 0.657643 -0.687039
H44   H     H_    0.285301 0.231712 0.670003 0.263686
H45   H     H_    0.171831 0.301013 0.657642 0.212641
H46   H     H_    0.278029 0.324325 0.585977 0.240750

loop_
_geom_bond_atom_site_label_1
_geom_bond_atom_site_label_2
_geom_bond_distance
_ccdc_geom_bond_type
C16   C18   1.398158 A    
O12   C43   1.411251 S    
C6    C11   1.394947 A    
C48   H35   1.110494 S    
O13   C45   1.409435 S    
C11   H2    1.081019 S    
C28   O14   1.383551 S    
C47   H33   1.113738 S    
C52   H44   1.110822 S    
C31   H5    1.080027 S    
C35   C36   1.516354 S    
O5    C3    1.295024 A    
C23   O11   1.385337 S    
C29   O15   1.380127 S    
C42   H19   1.110778 S    
O1    C1    1.295169 A    
C21   C23   1.396344 A    
Cu1   N2    2.013545 S    
C16   Cl4   1.769339 S    
C52   H45   1.110505 S    
C15   Cl3   1.771256 S    
C50   H39   1.110705 S    
C45   C46   1.521035 S    
C37   H7    1.114254 S    
O4    Cu1   1.948893 S    
C49   H37   1.109266 S    
C19   C21   1.412681 A    
C5    C12   1.395635 A    
O15   C49   1.414721 S    
C51   H43   1.111144 S    
C50   H40   1.110609 S    
C12   H1    1.081656 S    
C1    C19   1.466700 S    
C48   H34   1.111047 S    
C17   C19   1.414201 A    
C33   O9    1.382448 S    
C34   O10   1.381361 S    
C51   C52   1.521724 S    
C34   C36   1.417147 A    
C32   H6    1.080647 S    
C38   H9    1.110703 S    
Cu1   Cu2   2.680368 S    
C27   C29   1.417560 A    
O2    C2    1.291160 A    
C28   C30   1.419700 A    
C41   C42   1.520516 S    
C49   H38   1.113948 S    
C47   H32   1.111997 S    
C30   N2    1.374973 A    
Cu2   N1    2.013543 S    
N1    C31   1.364506 A    
C8    Cl2   1.764060 S    
C5    C10   1.399197 A    
N2    C32   1.363857 A    
C38   H10   1.110590 S    
C7    C14   1.409766 A    
C8    C13   1.409764 A    
C39   C40   1.521021 S    
C41   H18   1.116381 S    
C44   H24   1.110801 S    
C52   H46   1.110077 S    
C31   C33   1.415084 A    
C30   O16   1.380950 S    
O10   C39   1.410960 S    
C21   Cl7   1.770499 S    
C40   H14   1.110646 S    
C45   H28   1.113987 S    
C33   C35   1.415927 A    
C39   H13   1.114167 S    
O7    Cu2   1.964907 S    
C44   H25   1.110487 S    
O7    C3    1.290772 A    
C3    C6    1.454059 S    
C17   Cl5   1.772165 S    
C46   H29   1.110683 S    
C43   C44   1.520172 S    
O5    Cu1   1.964846 S    
O6    C4    1.294333 A    
C50   H41   1.109994 S    
C45   H27   1.111265 S    
C15   C25   1.406059 A    
O9    C37   1.411050 S    
C42   H21   1.110780 S    
C16   C26   1.409123 A    
C9    H4    1.083482 S    
C29   N1    1.375410 A    
C27   C35   1.408811 A    
O3    Cu2   1.948893 S    
O8    C4    1.291806 A    
O4    C2    1.288092 A    
C42   H20   1.110742 S    
C43   H23   1.116516 S    
C7    Cl1   1.762975 S    
C4    C5    1.454712 S    
C11   C13   1.392864 A    
C48   H36   1.111386 S    
C12   C14   1.392774 A    
O1    Cu1   1.954249 S    
C25   C26   1.467140 S    
C51   H42   1.114128 S    
C38   H11   1.110651 S    
O6    Cu2   1.964845 S    
C46   H30   1.110520 S    
C41   H17   1.110705 S    
O3    C1    1.295168 A    
O8    Cu1   1.964905 S    
C18   Cl6   1.769717 S    
O16   C51   1.413433 S    
C10   H3    1.083613 S    
C37   C38   1.520387 S    
C24   O12   1.384309 S    
C40   H16   1.110502 S    
C39   H12   1.114513 S    
C22   C24   1.395252 A    
C23   C25   1.407222 A    
C22   Cl8   1.766098 S    
C28   C36   1.409211 A    
C44   H26   1.110832 S    
C24   C26   1.410775 A    
C27   O13   1.383600 S    
C6    C9    1.398949 A    
C7    C9    1.387796 A    
C20   C22   1.401103 A    
C37   H8    1.113591 S    
C8    C10   1.388527 A    
C49   C50   1.521114 S    
O2    Cu2   1.954246 S    
C13   C14   1.421222 A    
O11   C41   1.412130 S    
C2    C20   1.446295 S    
C32   C34   1.411774 A    
C46   H31   1.110932 S    
C43   H22   1.110698 S    
C15   C17   1.398326 A    
O14   C47   1.410223 S    
C40   H15   1.110551 S    
C47   C48   1.521247 S    
C18   C20   1.403798 A    
