data_mof_unit_22939.cif
_audit_creation_date              2013-03-05T16:05:41-0500
_audit_creation_method            fapswitch 2.2
_symmetry_space_group_name_H-M    P1
_symmetry_Int_Tables_number       1
_space_group_crystal_system       triclinic
_cell_length_a                    8.387848
_cell_length_b                    15.118266
_cell_length_c                    16.419105
_cell_angle_alpha                 112.619004
_cell_angle_beta                  96.8545
_cell_angle_gamma                 81.593804
_cell_volume                      1896.75591447

loop_
_atom_site_label
_atom_site_type_symbol
_atom_site_description
_atom_site_fract_x
_atom_site_fract_y
_atom_site_fract_z
_atom_type_partial_charge
P1    P     P_3+3 0.592580 0.619730 0.703530 0.701854
O1    O     O_2   0.428380 0.595290 0.716080 -0.255474
O2    O     O_3   0.649320 0.571640 0.606850 -0.330705
O3    O     O_3   0.202060 0.415890 0.655600 -0.352873
O4    O     O_2   0.338297 0.519458 0.810996 -0.354628
O5    O     O_3   0.566864 0.750140 0.753113 -0.528544
O6    O     O_3   0.288798 0.346628 0.791983 -0.493914
H1    H     H_    0.117885 0.270175 0.697789 0.068210
C1    C     C_3   0.244862 0.186102 0.769575 -0.833751
H2    H     H_    0.342173 0.154826 0.723012 0.302442
H3    H     H_    0.296213 0.195420 0.837573 0.264990
P2    P     P_3+3 0.156500 0.273340 0.422460 0.483457
P3    P     P_3+3 0.651733 0.239296 0.596897 0.500445
O7    O     O_2   0.338780 0.265250 0.448290 -0.338980
O8    O     O_3   0.612600 0.359160 0.609560 -0.403404
O9    O     O_2   0.511868 0.192078 0.533527 -0.294324
O10   O     O_3   0.147818 0.213320 0.307335 -0.583472
O11   O     O_3   0.609542 0.229024 0.694804 -0.461139
C2    C     C_3   0.746182 0.241916 0.755073 0.506061
H4    H     H_    0.860427 0.211374 0.721490 -0.006848
C3    C     C_3   0.733979 0.188186 0.815466 -0.886641
H5    H     H_    0.626291 0.218976 0.854810 0.263170
H6    H     H_    0.721787 0.111336 0.774966 0.250457
C4    C     C_3   0.710156 0.232307 0.336811 0.414482
H7    H     H_    0.824972 0.265423 0.357030 0.081774
H8    H     H_    0.633859 0.257229 0.394017 0.123335
C5    C     C_3   0.747598 0.123162 0.305116 -0.932682
H9    H     H_    0.827557 0.096940 0.249385 0.257396
H10   H     H_    0.809060 0.101585 0.359128 0.220615
H11   H     H_    0.633831 0.088569 0.282591 0.280899
Ba1   Ba    Ba6+2 0.364200 0.465260 0.540910 1.687804
C6    C     C_3   0.535936 0.816163 0.707159 0.878647
C7    C     C_3   0.660647 0.887486 0.740066 -1.020624
H12   H     H_    0.683990 0.908134 0.812140 0.251671
H13   H     H_    0.617053 0.955163 0.728751 0.260431
H14   H     H_    0.765175 0.858124 0.701898 0.273081
C8    C     C_3   0.147288 0.274898 0.261713 0.170763
H15   H     H_    0.274390 0.283139 0.256220 0.118868
H16   H     H_    0.080561 0.347066 0.294149 0.116563
C9    C     C_3   0.064190 0.226292 0.169598 -0.092933
H17   H     H_    0.087447 0.146499 0.148218 0.174634
H18   H     H_    0.931311 0.245417 0.172633 0.141385
P4    P     P_3+3 0.597130 0.380190 0.296460 0.478665
O12   O     O_2   0.761310 0.404670 0.283870 -0.381754
O13   O     O_3   0.540390 0.428280 0.393140 -0.400842
O14   O     O_3   0.987650 0.584030 0.344390 -0.410543
O15   O     O_3   0.628149 0.255000 0.266856 -0.546948
P5    P     P_3+3 0.524428 0.750718 0.376747 0.545045
O16   O     O_3   0.122140 0.620560 0.549160 -0.277685
O17   O     O_3   0.577110 0.640760 0.390430 -0.354156
O18   O     O_2   0.661267 0.812340 0.429810 -0.305685
O19   O     O_3   0.546877 0.738504 0.268273 -0.524542
Ba2   Ba    Ba6+2 0.825640 0.534660 0.459080 1.665736
P6    P     P_3+3 0.208389 0.449101 0.769711 0.513731
C10   C     C_3   0.170021 0.282774 0.766481 0.361776
H19   H     H_    0.073266 0.311933 0.813493 0.050193
H20   H     H_    0.151165 0.135467 0.750075 0.192456
O20   O     O_3   0.067570 0.379360 0.450830 -0.414302
C11   C     C_3   0.046246 0.808766 0.764876 0.766266
C12   C     C_3   0.029444 0.906861 0.850026 -0.136370
H21   H     H_    0.912544 0.915288 0.877970 0.156898
P7    P     P_3+3 0.036283 0.744516 0.575656 0.569731
O21   O     O_2   0.850910 0.734710 0.551660 -0.317942
O22   O     O_3   0.031951 0.832732 0.687276 -0.696971
H22   H     H_    0.844115 0.193275 0.861225 0.243558
C13   C     C_3   0.494746 0.650890 0.209758 0.438856
H23   H     H_    0.573948 0.589610 0.219333 0.137188
H24   H     H_    0.367736 0.646956 0.219479 0.000018
C14   C     C_3   0.504670 0.643898 0.115419 -0.889094
H25   H     H_    0.627510 0.655800 0.105946 0.282723
H26   H     H_    0.479201 0.571438 0.067716 0.202859
H27   H     H_    0.415233 0.699042 0.101444 0.264805
P8    P     P_3+3 0.980539 0.549842 0.229930 0.445944
C15   C     C_3   0.976756 0.730751 0.263975 0.445585
H28   H     H_    0.110601 0.716342 0.268660 -0.006340
O23   O     O_2   0.850649 0.479485 0.188375 -0.373380
O24   O     O_3   0.906169 0.650094 0.202844 -0.536659
H29   H     H_    0.930531 0.750800 0.330122 0.107953
H30   H     H_    0.976209 0.881446 0.287537 0.179113
C16   C     C_3   0.930953 0.816260 0.235002 -0.609913
H31   H     H_    0.797147 0.830011 0.226502 0.248557
C17   C     C_2   0.290230 0.466992 0.244324 -0.544335
C18   C     C_R   0.884918 0.521002 0.750302 -0.363806
C19   C     C_2   0.484382 0.388180 0.131318 -0.258278
C20   C     C_2   0.451697 0.417190 0.216784 0.294478
C21   C     C_2   0.178738 0.491870 0.188218 0.275533
C22   C     C_3   0.226773 0.485634 0.099631 -0.119399
C23   C     C_3   0.358393 0.401792 0.061350 0.183296
C24   C     C_2   0.088216 0.490531 0.032091 -0.065065
C25   C     C_2   0.107589 0.521916 0.967789 -0.187152
C26   C     C_R   0.821859 0.576608 0.927113 0.037290
C27   C     C_R   0.976447 0.531979 0.900784 -0.004816
C28   C     C_R   0.702298 0.596308 0.866717 -0.227219
C29   C     C_R   0.733686 0.570608 0.777818 0.328555
C30   C     C_R   0.008087 0.505224 0.811313 0.163658
H32   H     H_    0.599030 0.346740 0.109704 0.177565
H33   H     H_    0.587696 0.635277 0.890423 0.188763
H34   H     H_    0.260054 0.479159 0.310513 0.168987
H35   H     H_    0.909903 0.499000 0.681742 0.171594
H36   H     H_    0.973153 0.467226 0.034679 0.189512
H37   H     H_    0.226177 0.539752 0.963408 0.179516
C31   C     C_R   0.845618 0.182316 0.544791 0.131551
H38   H     H_    0.881172 0.313994 0.531011 0.159633
C32   C     C_R   0.072104 0.203319 0.476042 0.326186
C33   C     C_R   0.236023 0.756241 0.452887 -0.396537
C34   C     C_R   0.323117 0.807247 0.420908 0.274365
C35   C     C_R   0.265183 0.902498 0.431019 -0.215557
C36   C     C_R   0.125507 0.950092 0.477718 0.048289
C37   C     C_R   0.047667 0.898216 0.515214 -0.070014
C38   C     C_R   0.060610 0.047701 0.489985 0.038979
C39   C     C_R   0.908625 0.084992 0.528668 -0.154649
C40   C     C_R   0.825503 0.023964 0.551197 0.307337
C41   C     C_R   0.904653 0.939954 0.556279 -0.234762
C42   C     C_R   0.137565 0.108092 0.462188 -0.224208
C43   C     C_R   0.930763 0.240502 0.520345 -0.514270
C44   C     C_R   0.105999 0.802428 0.505439 0.212180
H39   H     H_    0.247447 0.082821 0.428379 0.175906
H40   H     H_    0.275972 0.681401 0.441293 0.182022
H41   H     H_    0.329683 0.936674 0.400641 0.180498
H42   H     H_    0.836782 0.900999 0.580045 0.222612
N1    N     N_3   0.388358 0.880939 0.733850 -0.221557
H43   H     H_    0.358513 0.886811 0.795544 0.159647
H44   H     H_    0.295415 0.869688 0.684080 0.130748
N2    N     N_R   0.531284 0.771357 0.611167 0.222297
O25   O     O_R   0.454987 0.696217 0.569315 -0.376186
O26   O     O_R   0.541086 0.828514 0.570538 -0.397395
N3    N     N_R   0.122440 0.254036 0.103724 0.241160
O27   O     O_R   0.021080 0.294690 0.058797 -0.415154
O28   O     O_R   0.267032 0.220644 0.077333 -0.374777
N4    N     N_R   0.925999 0.746561 0.761020 0.188786
O29   O     O_R   0.879715 0.748211 0.834563 -0.434526
O30   O     O_R   0.914824 0.668798 0.690994 -0.396677
N5    N     N_R   0.200153 0.755921 0.769620 0.203613
O31   O     O_R   0.239327 0.719446 0.830300 -0.335625
O32   O     O_R   0.271265 0.720611 0.697214 -0.385391
N6    N     N_R   0.150229 0.908853 0.923216 0.279789
O33   O     O_R   0.126285 0.867034 0.976112 -0.336735
O34   O     O_R   0.260585 0.968044 0.947304 -0.349789
N7    N     N_3   0.028446 0.993440 0.829621 -0.180578
H45   H     H_    0.132384 0.990236 0.799257 0.150796
H46   H     H_    0.929956 0.997084 0.785333 0.125680
N8    N     N_3   0.751442 0.344072 0.808724 -0.224169
H47   H     H_    0.768676 0.377809 0.766424 0.057023
H48   H     H_    0.638545 0.373323 0.834048 0.177731
N9    N     N_3   0.003073 0.798075 0.152602 -0.163925
H49   H     H_    0.943086 0.745580 0.101269 0.196792
H50   H     H_    0.979125 0.861158 0.139183 0.187154
N10   N     N_R   0.653616 0.029492 0.543168 0.275610
O35   O     O_R   0.582091 0.008704 0.464337 -0.388487
O36   O     O_R   0.576059 0.026663 0.605978 -0.391122

loop_
_geom_bond_atom_site_label_1
_geom_bond_atom_site_label_2
_geom_bond_distance
_ccdc_geom_bond_type
C13   H24   1.109227 S    
C10   H19   1.109946 S    
C11   N4    1.456721 S    
C28   C29   1.405851 A    
C5    H10   1.105842 S    
N7    H46   1.043265 S    
C6    N2    1.454748 S    
C33   C44   1.400029 A    
O5    C6    1.445615 S    
C2    H4    1.111948 S    
C4    C5    1.522885 S    
O6    C10   1.403761 S    
O7    Ba1   2.841740 S    
C22   C23   1.537606 S    
N9    H49   1.046138 S    
C11   O22   1.440483 S    
C8    H15   1.109366 S    
P3    O11   1.754263 S    
C12   H21   1.101873 S    
Ba1   O20   2.941685 S    
C2    C3    1.523722 S    
C4    H8    1.111085 S    
P2    C32   1.865439 S    
C8    C9    1.535111 S    
C13   C14   1.523045 S    
C34   C35   1.402901 A    
C41   H42   1.072871 S    
P1    Ba1   3.397550 S    
C7    H14   1.077898 S    
C36   C37   1.427404 A    
P1    O1    1.533295 D    
C19   H32   1.085134 S    
C14   H26   1.107989 S    
C38   C39   1.433228 A    
Ba2   O21   2.841980 S    
P7    O22   1.805660 S    
C31   C43   1.403101 A    
C37   C44   1.412470 A    
O12   Ba2   2.831958 S    
P4    Ba2   3.398171 S    
P5    O18   1.547251 D    
P5    C34   1.871107 S    
C39   C40   1.409377 A    
P1    C29   1.880236 S    
C15   O24   1.404531 S    
P2    O10   1.751810 S    
C35   C36   1.421907 A    
C1    C10   1.521155 S    
C1    H2    1.110115 S    
C38   C42   1.421869 A    
C37   C41   1.391495 A    
O3    Ba1   2.818161 S    
P2    O20   1.581630 S    
P5    O17   1.748728 S    
C13   H23   1.109728 S    
O13   Ba2   2.941231 S    
C11   C12   1.601532 S    
C18   H35   1.081510 S    
C3    H5    1.111280 S    
C5    H11   1.110771 S    
C17   H34   1.084997 S    
C31   C39   1.421522 A    
Ba1   O16   2.842609 S    
H1    C10   1.113995 S    
C35   H41   1.073703 S    
C40   C41   1.372081 A    
N9    H50   1.045689 S    
O17   Ba2   2.835731 S    
C15   H28   1.111101 S    
C24   H36   1.085429 S    
P1    O5    1.810898 S    
P4    C20   1.869456 S    
O4    P6    1.544735 D    
C4    H7    1.106866 S    
H38   C43   1.082018 S    
N6    O34   1.302537 A    
C26   C27   1.406094 A    
C21   C22   1.519909 S    
O11   C2    1.406075 S    
C17   C21   1.350078 D    
C18   C29   1.404883 A    
C11   N5    1.425907 S    
C27   C30   1.413057 A    
Ba1   Ba2   4.625981 S    
C40   N10   1.425100 S    
O1    Ba1   2.831467 S    
P1    O2    1.570464 S    
C14   H27   1.110698 S    
N4    O30   1.296010 A    
P4    O12   1.533612 D    
N3    O28   1.300650 A    
C25   H37   1.085232 S    
P7    C44   1.877422 S    
P7    O21   1.571974 D    
C26   C28   1.407221 A    
C32   C43   1.395393 A    
P4    O13   1.570461 S    
C25   C27   1.494792 S    
Ba2   O20   2.841957 S    
C18   C30   1.411551 A    
C7    H12   1.102092 S    
P6    C30   1.849481 S    
O10   C8    1.400781 S    
C19   C20   1.349063 D    
O2    Ba1   2.940304 S    
C1    H3    1.110790 S    
N1    H43   1.039939 S    
C32   C42   1.404507 A    
C16   N9    1.460347 S    
P2    O7    1.537178 D    
C2    N8    1.458532 S    
O3    P6    1.739476 S    
P3    O8    1.728399 S    
P2    Ba1   3.400707 S    
C15   H29   1.111172 S    
N5    O31   1.302371 A    
P8    O23   1.545025 D    
N8    H48   1.046557 S    
C33   H40   1.080458 S    
N3    O27   1.300388 A    
C28   H33   1.081645 S    
O19   C13   1.399619 S    
N2    O26   1.294503 A    
C12   N6    1.470346 S    
C9    H17   1.112805 S    
O16   P7    1.809107 S    
C3    H22   1.111063 S    
C4    O15   1.398436 S    
C6    N1    1.458876 S    
C19   C23   1.519001 S    
N10   O36   1.300306 A    
C16   H31   1.113132 S    
N7    H45   1.041052 S    
O8    Ba1   2.835072 S    
C9    N3    1.455851 S    
C17   C20   1.480471 S    
C33   C34   1.404176 A    
C6    C7    1.515128 S    
C3    H6    1.107581 S    
N4    O29   1.302036 A    
P3    C31   1.863973 S    
C8    H16   1.110377 S    
O2    Ba2   2.820977 S    
O16   Ba2   2.940759 S    
O14   Ba2   2.817508 S    
C9    H18   1.111886 S    
C7    H13   1.111600 S    
C36   C38   1.441250 A    
C1    H20   1.110630 S    
N10   O35   1.300339 A    
C14   H25   1.110043 S    
P8    C21   1.839842 S    
N1    H44   1.041283 S    
C42   H39   1.076855 S    
C12   N7    1.469373 S    
H30   C16   1.112064 S    
P5    O19   1.748885 S    
Ba1   O13   2.820327 S    
P3    O9    1.533189 D    
C5    H9    1.110862 S    
N5    O32   1.281453 A    
C22   C24   1.521934 S    
P8    O24   1.749244 S    
N8    H47   1.039921 S    
N6    O33   1.302105 A    
C15   C16   1.526193 S    
O6    P6    1.749300 S    
C24   C25   1.347246 D    
P4    O15   1.750627 S    
O14   P8    1.742898 S    
N2    O25   1.295903 A    
