data_mof_unit_44990.cif
_audit_creation_date              2012-12-11T15:19:57-0500
_audit_creation_method            fapswitch 2.2
_symmetry_space_group_name_H-M    P1
_symmetry_Int_Tables_number       1
_space_group_crystal_system       triclinic
_cell_length_a                    16.630603
_cell_length_b                    16.630721
_cell_length_c                    43.037495
_cell_angle_alpha                 89.881686
_cell_angle_beta                  90.118563
_cell_angle_gamma                 119.835037
_cell_volume                      10325.5922722

loop_
_atom_site_label
_atom_site_type_symbol
_atom_type_description
_atom_site_fract_x
_atom_site_fract_y
_atom_site_fract_z
_atom_type_partial_charge
C1    C     C_R   0.584993 0.426301 0.794943 0.535561
C2    C     C_R   0.426301 0.584993 0.205057 0.535556
C3    C     C_R   0.023121 0.624888 0.433922 0.423539
C4    C     C_R   0.595989 0.974693 0.065032 0.422617
C5    C     C_R   0.371633 0.393636 0.434757 0.428175
C6    C     C_R   0.624848 0.023173 0.566064 0.423544
C7    C     C_R   0.974707 0.595994 0.934967 0.422617
C8    C     C_R   0.393743 0.371532 0.565225 0.428175
C9    C     C_R   0.622203 0.026260 0.935406 0.422654
C10   C     C_R   0.973638 0.588227 0.563208 0.418455
C11   C     C_R   0.404784 0.378326 0.935230 0.422708
C12   C     C_R   0.987741 0.463305 0.065837 0.411168
C13   C     C_R   0.416665 0.843642 0.294605 0.540133
C14   C     C_R   0.422929 0.896268 0.441065 0.403301
C15   C     C_R   0.536965 0.524994 0.065894 0.411145
C16   C     C_R   0.949161 0.460356 0.428912 0.407207
C17   C     C_R   0.475263 0.013001 0.065870 0.411191
C18   C     C_R   0.531987 0.507392 0.434749 0.403043
C19   C     C_R   0.460316 0.949238 0.571072 0.407195
C20   C     C_R   0.013004 0.475260 0.934129 0.411191
C21   C     C_R   0.507431 0.531910 0.565236 0.403045
C22   C     C_R   0.463302 0.987742 0.934162 0.411170
C23   C     C_R   0.896148 0.422967 0.558916 0.403294
C24   C     C_R   0.158586 0.573780 0.205043 0.536343
C25   C     C_R   0.524991 0.536971 0.934105 0.411146
C26   C     C_R   0.992487 0.459656 0.032981 0.021774
C27   C     C_R   0.428618 0.916281 0.473367 0.024897
C28   C     C_R   0.540571 0.533056 0.033013 0.021814
C29   C     C_R   0.943465 0.448379 0.461452 0.025132
C30   C     C_R   0.467190 0.008246 0.032997 0.021778
C31   C     C_R   0.531839 0.520378 0.467246 0.021518
C32   C     C_R   0.448342 0.943559 0.538532 0.025139
C33   C     C_R   0.008247 0.467188 0.967003 0.021777
C34   C     C_R   0.520425 0.531775 0.532739 0.021530
C35   C     C_R   0.104169 0.512842 0.120257 -0.056020
C36   C     C_R   0.459654 0.992487 0.967019 0.021774
C37   C     C_R   0.916170 0.428655 0.526616 0.024929
C38   C     C_R   0.533052 0.540577 0.966986 0.021814
C39   C     C_R   0.001618 0.536981 0.016278 -0.047452
C40   C     C_R   0.516499 0.952015 0.487603 -0.046939
C41   C     C_R   0.463443 0.464829 0.016391 -0.047362
C42   C     C_R   0.964483 0.526121 0.479858 -0.046425
C43   C     C_R   0.535644 0.999227 0.016505 -0.047449
C44   C     C_R   0.453959 0.453430 0.483625 -0.044851
C45   C     C_R   0.526081 0.964563 0.520126 -0.046409
C46   C     C_R   0.425785 0.946782 0.374805 -0.039254
C47   C     C_R   0.999236 0.535647 0.983494 -0.047450
C48   C     C_R   0.453511 0.453874 0.516358 -0.044853
C49   C     C_R   0.536976 0.001611 0.983722 -0.047452
C50   C     C_R   0.951932 0.516538 0.512381 -0.046941
C51   C     C_R   0.464824 0.463449 0.983607 -0.047363
C52   C     C_R   0.007580 0.686581 0.015667 -0.143807
C53   C     C_R   0.681747 0.005953 0.483851 -0.151050
C54   C     C_R   0.314263 0.321474 0.015980 -0.143684
C55   C     C_R   0.019026 0.691318 0.484182 -0.155806
C56   C     C_R   0.679453 0.993526 0.016325 -0.143729
C57   C     C_R   0.487078 0.591704 0.120242 -0.055985
C58   C     C_R   0.304762 0.310919 0.483886 -0.136728
C59   C     C_R   0.691273 0.019070 0.515804 -0.155821
C60   C     C_R   0.993550 0.679463 0.983674 -0.143725
C61   C     C_R   0.311065 0.304619 0.516094 -0.136726
C62   C     C_R   0.686570 0.007556 0.984332 -0.143807
C63   C     C_R   0.005913 0.681792 0.516137 -0.151055
C64   C     C_R   0.321465 0.314272 0.984017 -0.143684
C65   C     C_R   0.991242 0.384119 0.016451 -0.000359
C66   C     C_R   0.351715 0.906677 0.491427 0.003982
C67   C     C_R   0.615917 0.607016 0.016374 -0.000405
C68   C     C_R   0.077565 0.499687 0.378044 -0.042484
C69   C     C_R   0.924788 0.363648 0.475888 0.012217
C70   C     C_R   0.392986 0.009383 0.016252 -0.000357
C71   C     C_R   0.604881 0.597113 0.483555 0.001258
C72   C     C_R   0.363617 0.924901 0.524095 0.012213
C73   C     C_R   0.009377 0.392982 0.983748 -0.000356
C74   C     C_R   0.597133 0.604850 0.516430 0.001292
C75   C     C_R   0.384121 0.991249 0.983549 -0.000358
C76   C     C_R   0.906550 0.351745 0.508556 0.003993
C77   C     C_R   0.607014 0.615921 0.983625 -0.000404
C78   C     C_3   0.026181 0.320948 0.967230 -0.216643
C79   C     C_R   0.408606 0.896612 0.120296 -0.056225
C80   C     C_3   0.937042 0.244131 0.952176 -0.273598
C81   C     C_3   0.952580 0.168681 0.938251 -0.458321
C82   C     C_3   0.298751 0.949779 0.541615 -0.228630
C83   C     C_3   0.213827 0.866053 0.556107 -0.257190
C84   C     C_3   0.145340 0.894810 0.568058 -0.457204
C85   C     C_3   0.678728 0.704418 0.966955 -0.216439
C86   C     C_3   0.755834 0.692078 0.952034 -0.273750
C87   C     C_3   0.830866 0.782720 0.937908 -0.458309
C88   C     C_3   0.887549 0.261080 0.524285 -0.215596
C89   C     C_3   0.971065 0.274143 0.543650 -0.287123
C90   C     C_R   0.502394 0.578814 0.377857 -0.050124
C91   C     C_3   0.950638 0.184566 0.560084 -0.449803
C92   C     C_3   0.295498 0.974398 0.966803 -0.216784
C93   C     C_3   0.307433 0.063574 0.951712 -0.273502
C94   C     C_3   0.216558 0.048107 0.937647 -0.458143
C95   C     C_3   0.675163 0.685535 0.534342 -0.219663
C96   C     C_3   0.657020 0.767268 0.538010 -0.264791
C97   C     C_3   0.728271 0.840975 0.559647 -0.442051
C98   C     C_3   0.261052 0.887685 0.475696 -0.215562
C99   C     C_3   0.274124 0.971193 0.456325 -0.287040
C100  C     C_3   0.184596 0.950692 0.439836 -0.449613
C101  C     C_R   0.499660 0.077599 0.621954 -0.042473
C102  C     C_3   0.974380 0.295494 0.033197 -0.216784
C103  C     C_3   0.063551 0.307420 0.048290 -0.273495
C104  C     C_3   0.048067 0.216548 0.062363 -0.458138
C105  C     C_3   0.685532 0.675176 0.465641 -0.219666
C106  C     C_3   0.767311 0.657108 0.461968 -0.264674
C107  C     C_3   0.840874 0.728222 0.440255 -0.441887
C108  C     C_3   0.320956 0.026193 0.032771 -0.216644
C109  C     C_3   0.244135 0.937057 0.047825 -0.273594
C110  C     C_3   0.168692 0.952601 0.061751 -0.458320
C111  C     C_3   0.949677 0.298786 0.458372 -0.228647
C112  C     C_R   0.843618 0.416648 0.705388 0.540141
C113  C     C_R   0.896612 0.408607 0.879703 -0.056227
C114  C     C_3   0.865966 0.213867 0.443871 -0.257184
C115  C     C_3   0.894741 0.145393 0.431921 -0.457180
C116  C     C_3   0.704417 0.678726 0.033045 -0.216439
C117  C     C_3   0.692081 0.755834 0.047966 -0.273740
C118  C     C_3   0.782722 0.830856 0.062096 -0.458300
C119  C     C_3   0.155830 0.433205 0.159219 -0.244646
C120  C     C_3   0.143610 0.363485 0.133568 -0.319582
C121  C     C_3   0.150199 0.281455 0.146636 -0.439431
C122  C     C_3   0.322798 0.936769 0.329182 -0.236708
C123  C     C_3   0.289240 0.991913 0.348674 -0.321817
C124  C     C_R   0.578861 0.502334 0.622130 -0.050079
C125  C     C_3   0.218165 0.006759 0.330882 -0.454300
C126  C     C_3   0.566401 0.722596 0.159091 -0.244737
C127  C     C_3   0.635946 0.779963 0.133386 -0.319309
C128  C     C_3   0.717955 0.868181 0.146382 -0.438565
C129  C     C_3   0.133734 0.421474 0.340108 -0.243235
C130  C     C_3   0.114859 0.348623 0.365508 -0.317386
C131  C     C_3   0.126023 0.268810 0.353091 -0.439892
C132  C     C_3   0.277338 0.844550 0.159037 -0.244762
C133  C     C_3   0.219958 0.857105 0.133291 -0.319309
C134  C     C_3   0.131465 0.850744 0.146215 -0.439335
C135  C     C_R   0.512845 0.104172 0.879743 -0.056023
C136  C     C_3   0.589605 0.703881 0.337772 -0.241685
C137  C     C_3   0.666811 0.754691 0.362096 -0.326325
C138  C     C_3   0.747713 0.842734 0.348625 -0.456066
C139  C     C_3   0.421446 0.133735 0.659902 -0.243242
C140  C     C_3   0.348580 0.114856 0.634506 -0.317406
C141  C     C_3   0.268766 0.126005 0.646931 -0.439893
C142  C     C_3   0.844545 0.277338 0.840963 -0.244761
C143  C     C_3   0.857098 0.219957 0.866709 -0.319309
C144  C     C_3   0.850737 0.131465 0.853786 -0.439331
C145  C     C_3   0.703948 0.589528 0.662212 -0.241682
C146  C     C_R   0.946624 0.425709 0.625163 -0.039219
C147  C     C_3   0.754795 0.666709 0.637882 -0.326310
C148  C     C_3   0.842896 0.747572 0.651342 -0.456027
C149  C     C_3   0.433210 0.155837 0.840782 -0.244643
C150  C     C_3   0.363493 0.143621 0.866433 -0.319581
C151  C     C_3   0.281461 0.150210 0.853366 -0.439430
C152  C     C_3   0.936254 0.322437 0.670738 -0.236708
C153  C     C_3   0.990929 0.288499 0.651177 -0.321983
C154  C     C_3   0.005350 0.217071 0.668910 -0.454436
C155  C     C_3   0.722596 0.566400 0.840910 -0.244735
C156  C     C_3   0.779962 0.635947 0.866614 -0.319310
C157  C     C_R   0.591702 0.487083 0.879757 -0.055988
C158  C     C_3   0.868183 0.717954 0.853618 -0.438560
C159  C     C_R   0.125067 0.503424 0.151060 -0.024547
C160  C     C_R   0.401506 0.926142 0.343156 -0.016992
C161  C     C_R   0.496492 0.621892 0.151025 -0.024612
C162  C     C_R   0.106993 0.494858 0.347920 -0.023688
C163  C     C_R   0.378220 0.875493 0.151049 -0.024718
C164  C     C_R   0.573780 0.158586 0.794957 0.536349
C165  C     C_R   0.510200 0.609019 0.347018 -0.022437
C166  C     C_R   0.494839 0.107011 0.652081 -0.023679
C167  C     C_R   0.875492 0.378220 0.848951 -0.024721
C168  C     C_R   0.609061 0.510153 0.652970 -0.022434
C169  C     C_R   0.503427 0.125070 0.848940 -0.024548
C170  C     C_R   0.925913 0.401354 0.656804 -0.016968
C171  C     C_R   0.621891 0.496493 0.848975 -0.024614
C172  C     C_R   0.064798 0.604587 0.166357 -0.182442
C173  C     C_R   0.529197 0.895110 0.338110 -0.173142
C174  C     C_R   0.396082 0.460833 0.166482 -0.182545
C175  C     C_R   0.583779 0.426599 0.705140 0.537961
C176  C     C_R   0.073196 0.616941 0.332884 -0.163132
C177  C     C_R   0.539282 0.935862 0.166647 -0.182707
C178  C     C_R   0.384997 0.455368 0.333545 -0.180363
C179  C     C_R   0.616939 0.073223 0.667103 -0.163204
C180  C     C_R   0.935867 0.539281 0.833352 -0.182704
C181  C     C_R   0.455392 0.384981 0.666445 -0.180352
C182  C     C_R   0.604582 0.064794 0.833642 -0.182441
C183  C     C_R   0.895172 0.529224 0.661893 -0.173200
C184  C     C_R   0.460832 0.396086 0.833517 -0.182542
C185  C     C_R   0.030778 0.599803 0.136172 -0.078916
C186  C     C_R   0.841480 0.415019 0.794933 0.534997
C187  C     C_R   0.546606 0.907871 0.369883 -0.082818
C188  C     C_R   0.400871 0.431730 0.136321 -0.079173
C189  C     C_R   0.035027 0.612755 0.362171 -0.067667
C190  C     C_R   0.568507 0.970075 0.136516 -0.079080
C191  C     C_R   0.389368 0.423132 0.363387 -0.086004
C192  C     C_R   0.612739 0.035062 0.637814 -0.067688
C193  C     C_R   0.970083 0.568507 0.863483 -0.079078
C194  C     C_R   0.423172 0.389324 0.636598 -0.085985
C195  C     C_R   0.599797 0.030772 0.863827 -0.078912
C196  C     C_R   0.907933 0.546669 0.630120 -0.082891
C197  C     C_R   0.574047 0.158711 0.704993 0.542787
C198  C     C_R   0.431727 0.400877 0.863678 -0.079169
C199  C     C_R   0.052257 0.555466 0.112570 0.210100
C200  C     C_R   0.492499 0.930276 0.388986 0.215273
C201  C     C_R   0.444823 0.497413 0.112643 0.210067
C202  C     C_R   0.038188 0.554854 0.385198 0.221476
C203  C     C_R   0.502940 0.948590 0.112779 0.209921
C204  C     C_R   0.445798 0.485613 0.386496 0.205328
C205  C     C_R   0.554824 0.038227 0.614792 0.221480
C206  C     C_R   0.948596 0.502941 0.887220 0.209922
C207  C     C_R   0.485664 0.445735 0.613489 0.205358
C208  C     C_R   0.426603 0.583775 0.294859 0.537965
C209  C     C_R   0.555463 0.052254 0.887430 0.210099
C210  C     C_R   0.930228 0.492513 0.610999 0.215221
C211  C     C_R   0.497410 0.444829 0.887356 0.210067
C212  C     C_R   0.887073 0.444478 0.825766 0.005428
C213  C     C_R   0.559138 0.109964 0.674735 0.009453
C214  C     C_R   0.555581 0.442084 0.825834 0.005560
C215  C     C_R   0.892732 0.450657 0.674973 0.005456
C216  C     C_R   0.558184 0.113393 0.825872 0.005671
C217  C     C_R   0.548893 0.443064 0.674946 0.004712
C218  C     C_R   0.450710 0.892796 0.325012 0.005459
C219  C     C_R   0.415019 0.841480 0.205066 0.534972
C220  C     C_R   0.113393 0.558184 0.174128 0.005674
C221  C     C_R   0.443082 0.548870 0.325047 0.004709
C222  C     C_R   0.444478 0.887072 0.174233 0.005429
C223  C     C_R   0.109948 0.559143 0.325261 0.009454
C224  C     C_R   0.442083 0.555582 0.174166 0.005561
C225  C     C_R   0.010826 0.615492 0.032323 0.044853
C226  C     C_R   0.595804 0.976291 0.469314 0.043293
C227  C     C_R   0.385106 0.395818 0.032526 0.044988
C228  C     C_R   0.001020 0.614627 0.465803 0.037465
C229  C     C_R   0.604919 0.990145 0.032766 0.044949
C230  C     C_R   0.158709 0.574048 0.295006 0.542792
C231  C     C_R   0.376435 0.384535 0.467260 0.043556
C232  C     C_R   0.614585 0.001079 0.534182 0.037468
C233  C     C_R   0.990161 0.604925 0.967233 0.044949
C234  C     C_R   0.384646 0.376324 0.532721 0.043562
C235  C     C_R   0.615485 0.010811 0.967676 0.044852
C236  C     C_R   0.976234 0.595845 0.530672 0.043299
C237  C     C_R   0.395811 0.385114 0.967472 0.044989
C238  C     C_R   0.026274 0.622209 0.064593 0.422654
C239  C     C_R   0.588190 0.973682 0.436779 0.418429
C240  C     C_R   0.378318 0.404790 0.064768 0.422707
Cr1   Cr    Cr6+3 0.530290 0.262330 0.750000 0.992793
Cr2   Cr    Cr6+3 0.732040 0.469710 0.750000 0.992895
Cr3   Cr    Cr6+3 0.737670 0.267960 0.750000 0.993727
Cr4   Cr    Cr6+3 0.262330 0.530290 0.250000 0.992792
Cr5   Cr    Cr6+3 0.469710 0.732040 0.250000 0.992885
Cr6   Cr    Cr6+3 0.267960 0.737670 0.250000 0.993756
H1    H     H_    0.948832 0.590736 0.815672 0.112892
H2    H     H_    0.590737 0.948825 0.184327 0.112887
H3    H     H_    0.114167 0.226646 0.072189 0.178048
H4    H     H_    0.119948 0.331359 0.030833 0.160456
H5    H     H_    0.087820 0.360874 0.066659 0.186152
H6    H     H_    0.916609 0.270598 0.049994 0.204592
H7    H     H_    0.945996 0.235295 0.017362 0.118962
H8    H     H_    0.810682 0.725338 0.416955 0.167877
H9    H     H_    0.869450 0.799122 0.449948 0.136674
H10   H     H_    0.898235 0.712931 0.437562 0.172036
H11   H     H_    0.799745 0.660713 0.484864 0.144114
H12   H     H_    0.743506 0.586689 0.452602 0.222976
H13   H     H_    0.073350 0.665317 0.315959 0.118642
H14   H     H_    0.661764 0.686140 0.442736 0.167728
H15   H     H_    0.710645 0.743397 0.476789 0.118254
H16   H     H_    0.197911 0.005153 0.080559 0.163230
H17   H     H_    0.137713 0.976340 0.043553 0.137543
H18   H     H_    0.113060 0.886555 0.071587 0.178184
H19   H     H_    0.211949 0.880644 0.030367 0.160210
H20   H     H_    0.273401 0.912793 0.066276 0.186088
H21   H     H_    0.353420 0.084052 0.049547 0.204501
H22   H     H_    0.288996 0.054430 0.016804 0.118883
H23   H     H_    0.952780 0.180033 0.415116 0.152242
H24   H     H_    0.357814 0.409316 0.184119 0.112229
H25   H     H_    0.916876 0.117466 0.451578 0.133600
H26   H     H_    0.835806 0.086821 0.419887 0.197709
H27   H     H_    0.809185 0.179314 0.460932 0.166567
H28   H     H_    0.836983 0.233977 0.424134 0.240569
H29   H     H_    0.001553 0.336950 0.439915 0.157180
H30   H     H_    0.987911 0.276299 0.474022 0.126956
H31   H     H_    0.805700 0.801297 0.081004 0.163487
H32   H     H_    0.837528 0.861656 0.044035 0.137670
H33   H     H_    0.772321 0.886695 0.071846 0.178167
H34   H     H_    0.668234 0.788361 0.030387 0.159893
H35   H     H_    0.987859 0.733822 0.971716 0.143903
H36   H     H_    0.638432 0.726778 0.066279 0.186210
H37   H     H_    0.729556 0.645993 0.049934 0.204576
H38   H     H_    0.764598 0.710431 0.017202 0.118953
H39   H     H_    0.214897 0.305496 0.160105 0.152350
H40   H     H_    0.090223 0.239118 0.162069 0.143619
H41   H     H_    0.149478 0.236933 0.127359 0.164761
H42   H     H_    0.074038 0.335108 0.122714 0.190550
H43   H     H_    0.197940 0.398777 0.115561 0.196905
H44   H     H_    0.229470 0.470810 0.166667 0.176021
H45   H     H_    0.111805 0.390549 0.178818 0.185125
H46   H     H_    0.759130 0.044241 0.526058 0.137822
H47   H     H_    0.249492 0.047460 0.309383 0.152788
H48   H     H_    0.157140 0.938995 0.324629 0.152145
H49   H     H_    0.194434 0.045603 0.345663 0.145348
H50   H     H_    0.255679 0.953175 0.370312 0.172748
H51   H     H_    0.348974 0.060793 0.354807 0.166177
H52   H     H_    0.346952 0.972934 0.306473 0.163695
H53   H     H_    0.262304 0.866584 0.325202 0.181472
H54   H     H_    0.693882 0.908701 0.159900 0.152998
H55   H     H_    0.760549 0.850351 0.161757 0.143179
H56   H     H_    0.762232 0.911983 0.127063 0.165905
H57   H     H_    0.267304 0.254231 0.972158 0.143869
H58   H     H_    0.664393 0.738803 0.122532 0.190524
H59   H     H_    0.600468 0.799153 0.115381 0.196814
H60   H     H_    0.528556 0.758546 0.166489 0.175853
H61   H     H_    0.609204 0.721185 0.178707 0.184990
H62   H     H_    0.072936 0.230031 0.335008 0.144450
H63   H     H_    0.195780 0.295042 0.342907 0.150643
H64   H     H_    0.116873 0.220471 0.372361 0.161528
H65   H     H_    0.164012 0.381711 0.385140 0.194308
H66   H     H_    0.042584 0.318590 0.374165 0.175038
H67   H     H_    0.092257 0.382512 0.319532 0.178973
H68   H     H_    0.019675 0.742274 0.529515 0.141954
H69   H     H_    0.208598 0.456719 0.334152 0.177141
H70   H     H_    0.090963 0.786028 0.159643 0.152586
H71   H     H_    0.148939 0.910702 0.161653 0.142875
H72   H     H_    0.087785 0.851689 0.126862 0.164961
H73   H     H_    0.260969 0.926701 0.122476 0.190383
H74   H     H_    0.201099 0.802842 0.115265 0.196633
H75   H     H_    0.241659 0.770811 0.166385 0.175610
H76   H     H_    0.278338 0.888278 0.178677 0.184103
H77   H     H_    0.779251 0.825533 0.328848 0.152320
H78   H     H_    0.723920 0.890874 0.340536 0.152506
H79   H     H_    0.746748 0.013358 0.972543 0.143885
H80   H     H_    0.801434 0.878112 0.366816 0.148066
H81   H     H_    0.639416 0.774742 0.382361 0.151949
H82   H     H_    0.693327 0.708584 0.370125 0.188171
H83   H     H_    0.623169 0.694548 0.316840 0.176039
H84   H     H_    0.559617 0.747773 0.331859 0.169296
H85   H     H_    0.230007 0.072920 0.665017 0.144468
H86   H     H_    0.294993 0.195763 0.657114 0.150634
H87   H     H_    0.220409 0.116841 0.627665 0.161497
H88   H     H_    0.381655 0.164015 0.614875 0.194405
H89   H     H_    0.318553 0.042584 0.625846 0.175064
H90   H     H_    0.256707 0.244996 0.528059 0.146966
H91   H     H_    0.382496 0.092248 0.680477 0.178979
H92   H     H_    0.456684 0.208595 0.665860 0.177155
H93   H     H_    0.786023 0.090964 0.840357 0.152588
H94   H     H_    0.910698 0.148938 0.838349 0.142880
H95   H     H_    0.851677 0.087783 0.873139 0.164967
H96   H     H_    0.926694 0.260967 0.877525 0.190387
H97   H     H_    0.802834 0.201099 0.884735 0.196622
H98   H     H_    0.770806 0.241661 0.833615 0.175606
H99   H     H_    0.888273 0.278336 0.821323 0.184112
H100  H     H_    0.825757 0.779162 0.671122 0.152311
H101  H     H_    0.742228 0.019701 0.470474 0.141969
H102  H     H_    0.890994 0.723718 0.659428 0.152455
H103  H     H_    0.878303 0.801277 0.633148 0.148075
H104  H     H_    0.774791 0.639267 0.617615 0.151967
H105  H     H_    0.708730 0.693284 0.629855 0.188154
H106  H     H_    0.694643 0.623130 0.683138 0.176050
H107  H     H_    0.747804 0.559499 0.668131 0.169347
H108  H     H_    0.305501 0.214901 0.839894 0.152351
H109  H     H_    0.239116 0.090228 0.837936 0.143622
H110  H     H_    0.236947 0.149501 0.872644 0.164775
H111  H     H_    0.335115 0.074050 0.877288 0.190553
H112  H     H_    0.665326 0.073378 0.684024 0.118598
H113  H     H_    0.013387 0.746761 0.027455 0.143885
H114  H     H_    0.398788 0.197952 0.884440 0.196897
H115  H     H_    0.470817 0.229477 0.833333 0.176017
H116  H     H_    0.390551 0.111813 0.821182 0.185127
H117  H     H_    0.046219 0.248187 0.690391 0.152786
H118  H     H_    0.937448 0.156298 0.675187 0.152186
H119  H     H_    0.043813 0.193049 0.654078 0.145401
H120  H     H_    0.952021 0.255146 0.629548 0.173103
H121  H     H_    0.059930 0.347993 0.645030 0.166071
H122  H     H_    0.972601 0.346481 0.693421 0.163710
H123  H     H_    0.865988 0.262138 0.674758 0.181639
H124  H     H_    0.245162 0.256533 0.471918 0.146970
H125  H     H_    0.908710 0.693879 0.840106 0.153005
H126  H     H_    0.850357 0.760540 0.838239 0.143181
H127  H     H_    0.911978 0.762238 0.872937 0.165901
H128  H     H_    0.738802 0.664397 0.877466 0.190526
H129  H     H_    0.799150 0.600472 0.884620 0.196804
H130  H     H_    0.758546 0.528554 0.833513 0.175847
H131  H     H_    0.721187 0.609201 0.821293 0.184995
H132  H     H_    0.733809 0.987829 0.028282 0.143901
H133  H     H_    0.044211 0.759177 0.473930 0.137814
H134  H     H_    0.254221 0.267314 0.027839 0.143869
H135  H     H_    0.012100 0.641862 0.868197 0.161211
H136  H     H_    0.655194 0.003962 0.633120 0.150177
H137  H     H_    0.358379 0.369566 0.868453 0.160951
H138  H     H_    0.896982 0.600543 0.620557 0.155737
H139  H     H_    0.631414 0.988849 0.868681 0.160959
H140  H     H_    0.409315 0.357818 0.815880 0.112236
H141  H     H_    0.349953 0.347563 0.631744 0.161515
H142  H     H_    0.600411 0.896831 0.379462 0.155654
H143  H     H_    0.988859 0.631424 0.131318 0.160956
H144  H     H_    0.347613 0.349908 0.368235 0.161528
H145  H     H_    0.641863 0.012088 0.131802 0.161208
H146  H     H_    0.003923 0.655209 0.366859 0.150158
H147  H     H_    0.369558 0.358382 0.131544 0.160946
H148  H     H_    0.124517 0.483116 0.101744 0.115920
H149  H     H_    0.389950 0.971411 0.389375 0.124661
H150  H     H_    0.516548 0.641691 0.101678 0.115915
H151  H     H_    0.881540 0.574428 0.676111 0.118855
H152  H     H_    0.083073 0.458942 0.396596 0.117186
H153  H     H_    0.358723 0.876290 0.101692 0.115910
H154  H     H_    0.542056 0.628222 0.395692 0.128258
H155  H     H_    0.458910 0.083118 0.603406 0.117227
H156  H     H_    0.876288 0.358725 0.898308 0.115907
H157  H     H_    0.628268 0.541983 0.604294 0.128261
H158  H     H_    0.483122 0.124522 0.898257 0.115917
H159  H     H_    0.971200 0.389855 0.610581 0.124621
H160  H     H_    0.641689 0.516552 0.898322 0.115913
H161  H     H_    0.005135 0.197895 0.919444 0.163228
H162  H     H_    0.643134 0.051749 0.816057 0.112360
H163  H     H_    0.976311 0.137699 0.956450 0.137542
H164  H     H_    0.886532 0.113053 0.928414 0.178198
H165  H     H_    0.880627 0.211950 0.969633 0.160213
H166  H     H_    0.912784 0.273398 0.933724 0.186084
H167  H     H_    0.084041 0.353407 0.950454 0.204502
H168  H     H_    0.054414 0.288985 0.983197 0.118880
H169  H     H_    0.179965 0.952835 0.584868 0.152264
H170  H     H_    0.117422 0.916958 0.548401 0.133599
H171  H     H_    0.086762 0.835861 0.580084 0.197667
H172  H     H_    0.179288 0.809285 0.539041 0.166558
H173  H     H_    0.406787 0.336463 0.683142 0.114035
H174  H     H_    0.233932 0.837060 0.575842 0.240578
H175  H     H_    0.336910 0.001639 0.560076 0.157217
H176  H     H_    0.276271 0.988026 0.525968 0.126942
H177  H     H_    0.801315 0.805715 0.919004 0.163486
H178  H     H_    0.861673 0.837515 0.955973 0.137670
H179  H     H_    0.886698 0.772313 0.928156 0.178172
H180  H     H_    0.788352 0.668220 0.969612 0.159897
H181  H     H_    0.726777 0.638437 0.933719 0.186207
H182  H     H_    0.645997 0.729560 0.950066 0.204576
H183  H     H_    0.710434 0.764598 0.982798 0.118953
H184  H     H_    0.574365 0.881397 0.323904 0.118867
H185  H     H_    0.891471 0.162350 0.576307 0.207304
H186  H     H_    0.934028 0.128769 0.542859 0.141133
H187  H     H_    0.012389 0.196190 0.573647 0.140058
H188  H     H_    0.032015 0.296170 0.528225 0.152462
H189  H     H_    0.990163 0.328894 0.561401 0.179181
H190  H     H_    0.823144 0.230986 0.538207 0.227740
H191  H     H_    0.871704 0.205340 0.507430 0.118849
H192  H     H_    0.193526 0.995649 0.918815 0.163258
H193  H     H_    0.161919 0.024285 0.955764 0.137582
H194  H     H_    0.226669 0.114208 0.927817 0.178070
H195  H     H_    0.051756 0.643142 0.183942 0.112358
H196  H     H_    0.331395 0.119974 0.969168 0.160462
H197  H     H_    0.360875 0.087829 0.933339 0.186150
H198  H     H_    0.270596 0.916628 0.950005 0.204589
H199  H     H_    0.235299 0.946017 0.982639 0.118964
H200  H     H_    0.725705 0.810896 0.582940 0.167763
H201  H     H_    0.799062 0.869639 0.549866 0.136714
H202  H     H_    0.712860 0.898251 0.562374 0.172054
H203  H     H_    0.660388 0.799558 0.515104 0.144199
H204  H     H_    0.586684 0.743457 0.547440 0.223067
H205  H     H_    0.686157 0.661802 0.557250 0.167741
H206  H     H_    0.336461 0.406771 0.316850 0.114028
H207  H     H_    0.743386 0.710684 0.523194 0.118282
H208  H     H_    0.162545 0.891584 0.423597 0.207380
H209  H     H_    0.128682 0.933957 0.457027 0.141158
H210  H     H_    0.196211 0.012455 0.426283 0.139999
H211  H     H_    0.296016 0.032112 0.471755 0.152388
H212  H     H_    0.328976 0.990374 0.438605 0.179210
H213  H     H_    0.230950 0.823267 0.461780 0.227737
H214  H     H_    0.205310 0.871858 0.492549 0.118782
H215  H     H_    0.995623 0.193546 0.081198 0.163265
H216  H     H_    0.024217 0.161892 0.044250 0.137588
N1    N     N_R   0.018511 0.547103 0.080878 -0.368496
N2    N     N_R   0.547098 0.018507 0.919122 -0.368494
N3    N     N_R   0.933499 0.501995 0.577240 -0.376758
N4    N     N_R   0.472120 0.453262 0.919022 -0.368522
N5    N     N_R   0.501962 0.933571 0.422745 -0.376769
N6    N     N_R   0.453255 0.472124 0.080976 -0.368524
N7    N     N_R   0.999606 0.547586 0.415969 -0.372088
N8    N     N_R   0.528379 0.982320 0.081108 -0.368471
N9    N     N_R   0.449245 0.458393 0.418652 -0.367427
N10   N     N_R   0.547548 0.999663 0.584017 -0.372075
N11   N     N_R   0.982328 0.528380 0.918891 -0.368471
N12   N     N_R   0.458457 0.449163 0.581331 -0.367432
O1    O     O_R   0.509640 0.171340 0.784000 -0.526693
O2    O     O_R   0.171340 0.509640 0.216000 -0.526696
O3    O     O_R   0.490360 0.661700 0.284000 -0.526331
O4    O     O_R   0.338300 0.828660 0.216000 -0.529267
O5    O     O_R   0.539230 0.345420 0.781810 -0.501917
O6    O     O_R   0.806190 0.460770 0.718190 -0.497232
O7    O     O_R   0.654580 0.193810 0.781810 -0.502184
O8    O     O_R   0.539230 0.345420 0.718190 -0.497376
O9    O     O_R   0.806190 0.460770 0.781810 -0.501288
O10   O     O_R   0.654580 0.193810 0.718190 -0.492939
O11   O     O_R   0.345420 0.539230 0.281810 -0.497369
O12   O     O_R   0.661700 0.490360 0.716000 -0.526332
O13   O     O_R   0.460770 0.806190 0.218190 -0.501297
O14   O     O_R   0.193810 0.654580 0.281810 -0.492887
O15   O     O_R   0.345420 0.539230 0.218190 -0.501919
O16   O     O_R   0.460770 0.806190 0.281810 -0.497238
O17   O     O_R   0.193810 0.654580 0.218190 -0.502191
O18   O     O_3   0.666667 0.333333 0.750000 -0.218545
O19   O     O_3   0.333333 0.666667 0.250000 -0.218537
O20   O     O_2   0.048054 0.694915 0.077973 -0.578191
O21   O     O_2   0.658442 0.008917 0.421005 -0.567933
O22   O     O_2   0.305698 0.354048 0.078187 -0.578232
O23   O     O_R   0.828660 0.338300 0.784000 -0.529241
O24   O     O_2   0.065060 0.702221 0.422425 -0.557834
O25   O     O_2   0.646997 0.953037 0.078591 -0.578523
O26   O     O_2   0.298621 0.345344 0.421185 -0.565522
O27   O     O_2   0.702182 0.065099 0.577562 -0.557893
O28   O     O_2   0.953057 0.647005 0.921407 -0.578516
O29   O     O_2   0.345485 0.298513 0.578796 -0.565537
O30   O     O_2   0.694907 0.048035 0.922026 -0.578192
O31   O     O_2   0.008912 0.658476 0.578983 -0.567931
O32   O     O_2   0.354040 0.305708 0.921811 -0.578239
O33   O     O_2   0.957752 0.393036 0.081474 -0.547162
O34   O     O_R   0.509640 0.171340 0.716000 -0.527620
O35   O     O_2   0.348125 0.843973 0.429210 -0.529180
O36   O     O_2   0.607218 0.565364 0.081509 -0.547420
O37   O     O_2   0.909587 0.393335 0.411833 -0.542383
O38   O     O_2   0.434648 0.042939 0.081345 -0.547337
O39   O     O_2   0.604944 0.538543 0.420576 -0.548457
O40   O     O_2   0.393291 0.909666 0.588150 -0.542403
O41   O     O_2   0.042937 0.434640 0.918655 -0.547333
O42   O     O_2   0.538553 0.604860 0.579411 -0.548479
O43   O     O_2   0.393032 0.957759 0.918526 -0.547163
O44   O     O_2   0.843802 0.348171 0.570765 -0.529213
O45   O     O_R   0.661700 0.490360 0.784000 -0.526972
O46   O     O_2   0.565363 0.607224 0.918491 -0.547417
O47   O     O_R   0.828660 0.338300 0.716000 -0.525644
O48   O     O_R   0.171340 0.509640 0.284000 -0.527621
O49   O     O_R   0.490360 0.661700 0.216000 -0.526977
O50   O     O_R   0.338300 0.828660 0.284000 -0.525568

loop_
_geom_bond_atom_site_label_1
_geom_bond_atom_site_label_2
_ccdc_geom_bond_type
C154  H117  S    
C131  H62   S    
C175  O12   A    
C15   N6    Am   
C176  C223  A    
C138  H78   S    
C29   C42   A    
Cr4   O2    S    
C32   C45   A    
C114  C115  S    
C165  C221  A    
C156  H128  S    
C89   H188  S    
C132  H76   S    
C126  C127  S    
C83   H172  S    
C195  C209  A    
C187  H142  S    
C106  C107  S    
C59   C232  A    
C143  C144  S    
C161  C224  A    
C108  C109  S    
C80   H165  S    
C112  C215  S    
C119  H45   S    
C207  N12   S    
Cr2   O18   S    
C124  C168  A    
Cr4   O19   S    
Cr5   O13   S    
C66   C72   A    
C219  O13   A    
C9    N2    Am   
C5    C231  A    
C21   O42   D    
C177  C222  A    
C196  C210  A    
C58   C61   A    
C5    O26   D    
C219  O4    A    
C17   C30   A    
C175  C217  S    
C120  H43   S    
C19   C32   A    
C203  N8    S    
C125  H49   S    
C91   H186  S    
C128  H54   S    
C29   C69   A    
C144  H93   S    
C183  C215  A    
C8    N12   Am   
C20   O41   D    
C68   C202  A    
C97   H201  S    
C6    N10   Am   
C140  C141  S    
C8    O29   D    
C174  H24   S    
C194  H141  S    
C118  H32   S    
C170  C215  A    
C94   H192  S    
C23   C37   A    
C90   H154  S    
C141  H85   S    
C107  H8    S    
Cr2   O12   S    
C100  H209  S    
C53   H101  S    
C118  H31   S    
C152  C170  S    
C196  H138  S    
C18   N9    Am   
Cr2   O45   S    
C46   C160  A    
C183  C196  A    
C174  C224  A    
C238  N1    Am   
C173  H184  S    
C181  C194  A    
C20   C33   A    
C24   C220  S    
C33   C73   A    
C184  C198  A    
C35   H148  S    
C33   C47   A    
C239  N5    Am   
C30   C43   A    
C34   C48   A    
C39   C47   A    
C19   N10   Am   
C226  C239  A    
C201  N6    S    
Cr1   O1    S    
C184  H140  S    
C60   C233  A    
C189  H146  S    
C85   H183  S    
C139  C140  S    
C176  H13   S    
C104  H216  S    
C22   C36   A    
Cr5   O3    S    
C187  C200  A    
C102  H7    S    
C103  H5    S    
C156  C158  S    
C130  C131  S    
C16   C29   A    
C132  C163  S    
C126  H61   S    
C27   C66   A    
C99   H211  S    
C37   C50   A    
C176  C189  A    
Cr1   O34   S    
C227  C240  A    
C96   H204  S    
C147  H105  S    
C56   C229  A    
C88   H190  S    
C121  H40   S    
C40   C226  A    
C144  H95   S    
C54   C227  A    
C85   H182  S    
C86   H181  S    
C57   C161  A    
C162  C223  A    
C119  C159  S    
C159  C220  A    
C155  C156  S    
C145  H106  S    
C60   H35   S    
C116  H37   S    
C18   C31   A    
C197  O34   A    
Cr2   O9    S    
C109  C110  S    
C3    C228  A    
C41   C51   A    
C157  C171  A    
C44   C48   A    
C62   H79   S    
Cr6   O14   S    
C47   C233  A    
C145  C168  S    
C13   O50   A    
C6    C232  A    
C9    C235  A    
C146  H159  S    
C192  C205  A    
C10   N3    Am   
C147  C148  S    
C67   C77   A    
C188  H147  S    
C199  N1    S    
C128  H55   S    
C142  H98   S    
C130  H66   S    
C85   C86   S    
C194  C207  A    
C131  H63   S    
C149  C169  S    
C93   H197  S    
C164  O1    A    
C115  H25   S    
C177  H2    S    
C136  C165  S    
C69   C76   A    
C122  H53   S    
C82   H176  S    
C117  H36   S    
C180  C212  A    
C54   H134  S    
C182  H162  S    
C52   C60   A    
C63   C236  A    
C171  C214  A    
C136  H84   S    
C160  C218  A    
Cr3   O47   S    
C55   C63   A    
C198  H137  S    
C101  C166  A    
C186  O23   A    
C95   H205  S    
C13   C218  S    
C89   C91   S    
C172  C185  A    
C192  H136  S    
C152  H122  S    
C137  H82   S    
C10   O31   D    
C31   C71   A    
C77   C85   S    
C24   O17   A    
C158  H126  S    
C155  H130  S    
C42   C228  A    
C179  H112  S    
C88   H191  S    
C123  H51   S    
C134  H71   S    
Cr4   O48   S    
C202  N7    S    
C16   N7    Am   
C140  H89   S    
C133  H73   S    
C109  H19   S    
C127  H58   S    
C38   C51   A    
C12   C26   A    
C67   C116  S    
C36   C75   A    
C25   C38   A    
C6    O27   D    
C184  C214  A    
C83   C84   S    
C27   C40   A    
C2    C224  S    
C151  H110  S    
C107  H9    S    
Cr3   O10   S    
C111  H30   S    
C185  C199  A    
C50   C236  A    
C173  C218  A    
C12   O33   D    
C110  H17   S    
Cr5   O16   S    
C42   C50   A    
C14   N5    Am   
C98   H214  S    
C157  C211  A    
C105  H14   S    
C181  C217  A    
C14   C27   A    
C211  N4    S    
C22   O43   D    
C1    C214  S    
C120  C121  S    
C129  C130  S    
C154  H118  S    
C120  H42   S    
C173  C187  A    
C62   C235  A    
C136  C137  S    
Cr1   O18   S    
C115  H23   S    
C129  H67   S    
Cr4   O11   S    
C10   C236  A    
C4    C229  A    
C66   C98   S    
C208  O3    A    
C70   C108  S    
C117  C118  S    
C219  C222  S    
C154  H119  S    
Cr5   O49   S    
C54   C64   A    
C138  H80   S    
C84   H169  S    
C80   H166  S    
C102  C103  S    
C166  C213  A    
C152  C153  S    
C114  H27   S    
C57   C201  A    
C70   C75   A    
C139  C166  S    
C150  C151  S    
Cr1   O5    S    
C182  C195  A    
C23   N3    Am   
C180  C193  A    
C240  O22   D    
C87   H179  S    
Cr4   O15   S    
C186  C212  S    
C2    O15   A    
C95   H207  S    
C41   C227  A    
C125  H48   S    
Cr5   O19   S    
C32   C72   A    
C164  C216  S    
C230  O14   A    
C150  H111  S    
C195  H139  S    
C24   O2    A    
C97   H200  S    
C44   C231  A    
C167  C212  A    
C117  H34   S    
C21   N12   Am   
C118  H33   S    
C26   C39   A    
C123  C125  S    
C94   H193  S    
C153  H121  S    
C98   C99   S    
C28   C41   A    
C151  H108  S    
C92   H199  S    
C181  H173  S    
C78   H167  S    
C30   C70   A    
C145  H107  S    
C149  H115  S    
C87   H178  S    
C190  H145  S    
C106  H11   S    
C148  H103  S    
C178  C221  A    
C177  C190  A    
C45   C232  A    
C168  C217  A    
C3    N7    Am   
C126  C161  S    
C90   C204  A    
C1    O5    A    
C89   H189  S    
C138  H77   S    
C139  H91   S    
C225  C238  A    
C103  H4    S    
C132  H75   S    
C14   O35   D    
C91   H187  S    
Cr6   O19   S    
C145  C147  S    
C129  H69   S    
C40   C45   A    
C35   C199  A    
C7    N11   Am   
C135  H158  S    
C86   C87   S    
C109  H20   S    
C59   H46   S    
C112  O47   A    
C84   H171  S    
C13   O16   A    
C15   O36   D    
C100  H208  S    
C52   H113  S    
C53   C226  A    
C128  H56   S    
C21   C34   A    
C144  H94   S    
C179  C213  A    
C19   O40   D    
C121  H39   S    
C204  N9    S    
C101  H155  S    
C64   C237  A    
C34   C74   A    
C135  C209  A    
C37   C76   A    
C71   C105  S    
C124  C207  A    
C133  C134  S    
C189  C202  A    
C16   O37   D    
C141  H87   S    
C116  H38   S    
C191  C204  A    
C127  C128  S    
C197  C213  S    
C114  H28   S    
C163  C222  A    
C9    O30   D    
C136  H83   S    
C18   O39   D    
C104  H3    S    
Cr2   O6    S    
C148  H100  S    
C78   H168  S    
C97   H202  S    
C87   H177  S    
C205  N10   S    
C113  C167  A    
C71   C74   A    
C119  C120  S    
C43   C229  A    
C142  H99   S    
C68   H152  S    
C164  O7    A    
C183  H151  S    
C38   C77   A    
Cr6   O4    S    
C105  C106  S    
C4    O25   D    
C141  H86   S    
C93   H196  S    
C149  C150  S    
C112  O6    A    
C15   C28   A    
C143  H96   S    
C92   C93   S    
C111  C114  S    
C78   C80   S    
C135  C169  A    
C206  N11   S    
C124  H157  S    
C55   H133  S    
C39   C225  A    
C200  N5    S    
C4    N8    Am   
C180  H1    S    
C49   C235  A    
C82   C83   S    
C103  C104  S    
C157  H160  S    
C25   O46   D    
C142  C143  S    
Cr3   O23   S    
Cr6   O17   S    
C48   C234  A    
C36   C49   A    
C137  H81   S    
C57   H150  S    
C140  H88   S    
C61   H90   S    
C156  H129  S    
C113  H156  S    
C91   H185  S    
C7    C233  A    
C93   C94   S    
C158  H127  S    
C95   C96   S    
C172  H195  S    
C210  N3    S    
C2    O49   A    
C134  H72   S    
C53   C59   A    
C22   N2    Am   
C104  H215  S    
C185  H143  S    
C172  C220  A    
C102  H6    S    
C100  H210  S    
C119  H44   S    
C96   H203  S    
C126  H60   S    
C99   H212  S    
C230  O48   A    
C190  C203  A    
C17   N8    Am   
C127  H59   S    
C191  H144  S    
C188  C201  A    
C65   C73   A    
C116  C117  S    
C108  H22   S    
C121  H41   S    
C58   C231  A    
C174  C188  A    
C142  C167  S    
C86   H180  S    
C179  C192  A    
C149  H116  S    
C132  C133  S    
C107  H10   S    
C151  H109  S    
C73   C78   S    
C92   H198  S    
C111  H29   S    
C76   C88   S    
C110  H18   S    
C88   C89   S    
C155  H131  S    
C182  C216  A    
C61   C234  A    
C148  H102  S    
C65   C102  S    
C209  N2    S    
C123  H50   S    
C146  C210  A    
C130  H65   S    
C25   N4    Am   
C131  H64   S    
C239  O21   D    
C31   C44   A    
C197  O10   A    
C28   C67   A    
C150  H114  S    
C58   H124  S    
C115  H26   S    
C43   C49   A    
C208  C221  S    
C46   H149  S    
C122  H52   S    
C82   H175  S    
C55   C228  A    
C108  H21   S    
C83   H174  S    
C238  O20   D    
C17   O38   D    
C20   N11   Am   
C52   C225  A    
C46   C200  A    
C99   C100  S    
C7    O28   D    
C96   C97   S    
C84   H170  S    
C152  H123  S    
C51   C237  A    
C198  C211  A    
Cr1   O8    S    
C175  O8    A    
C101  C205  A    
C75   C92   S    
C143  H97   S    
C79   C203  A    
C158  H125  S    
C146  C170  A    
C11   N4    Am   
C5    N9    Am   
C134  H70   S    
C81   H163  S    
C169  C216  A    
C193  C206  A    
C1    O45   A    
C26   C65   A    
C74   C95   S    
C79   H153  S    
C186  O9    A    
C133  H74   S    
C79   C163  A    
C80   C81   S    
C193  H135  S    
C125  H47   S    
C223  C230  S    
C68   C162  A    
C11   C237  A    
C137  C138  S    
C208  O11   A    
C63   H68   S    
C113  C206  A    
C122  C123  S    
C90   C165  A    
C178  C191  A    
C69   C111  S    
C147  H104  S    
C94   H194  S    
C153  H120  S    
Cr6   O50   S    
C240  N6    Am   
Cr3   O18   S    
C129  C162  S    
Cr3   O7    S    
C56   C62   A    
C139  H92   S    
C35   C159  A    
C110  H16   S    
C11   O32   D    
C81   H164  S    
C12   N1    Am   
C155  C171  S    
C98   H213  S    
C105  H15   S    
C106  H12   S    
C122  C160  S    
C23   O44   D    
C153  C154  S    
C81   H161  S    
C178  H206  S    
C72   C82   S    
C8    C234  A    
C64   H57   S    
C3    O24   D    
C56   H132  S    
