data_mof_unit_31482.cif
_audit_creation_date              2012-12-11T15:27:26-0500
_audit_creation_method            fapswitch 2.2
_symmetry_space_group_name_H-M    P1
_symmetry_Int_Tables_number       1
_space_group_crystal_system       triclinic
_cell_length_a                    13.875177
_cell_length_b                    13.985456
_cell_length_c                    27.466621
_cell_angle_alpha                 89.901853
_cell_angle_beta                  90.051071
_cell_angle_gamma                 119.945364
_cell_volume                      4618.37537931

loop_
_atom_site_label
_atom_site_type_symbol
_atom_type_description
_atom_site_fract_x
_atom_site_fract_y
_atom_site_fract_z
_atom_type_partial_charge
C1    C     C_R   0.235011 0.786123 0.569093 0.548800
C2    C     C_1   0.702879 0.862007 0.859653 -0.065509
C3    C     C_1   0.114196 0.875148 0.852204 -0.065641
C4    C     C_1   0.121224 0.237488 0.851890 -0.068145
C5    C     C_1   0.614362 0.808142 0.660440 0.025685
C6    C     C_1   0.182388 0.809511 0.658272 0.014953
C7    C     C_1   0.187866 0.376303 0.658776 0.008643
C8    C     C_1   0.591495 0.791161 0.617925 0.069359
C9    C     C_1   0.203765 0.801091 0.616671 0.060534
C10   C     C_1   0.197947 0.405042 0.617039 0.062422
C11   C     C_R   0.071131 0.163189 0.941679 0.517168
C12   C     C_R   0.213640 0.449300 0.569199 0.551113
C13   C     C_R   0.779955 0.887073 0.948960 0.543588
C14   C     C_R   0.091802 0.928111 0.941677 0.514889
C15   C     C_R   0.600767 0.801795 0.382649 0.025934
C16   C     C_R   0.197360 0.798585 0.382686 0.025576
C17   C     C_R   0.200862 0.398664 0.382794 0.025602
C18   C     C_R   0.567927 0.865278 0.354930 -0.120704
C19   C     C_R   0.133651 0.702792 0.354962 -0.120855
C20   C     C_R   0.297400 0.429834 0.355202 -0.120657
C21   C     C_R   0.589369 0.879472 0.305526 -0.118068
C22   C     C_R   0.119766 0.710205 0.305523 -0.118041
C23   C     C_R   0.550472 0.764090 0.569297 0.548600
C24   C     C_R   0.290052 0.407962 0.305846 -0.117828
C25   C     C_R   0.647435 0.833691 0.283045 0.035709
C26   C     C_R   0.166022 0.813668 0.283016 0.035476
C27   C     C_R   0.185860 0.351097 0.283288 0.035651
C28   C     C_R   0.233817 0.786222 0.430963 0.542128
C29   C     C_R   0.213534 0.447574 0.430958 0.543275
C30   C     C_R   0.552175 0.765751 0.430953 0.541893
C31   C     C_R   0.688016 0.777429 0.311493 -0.113395
C32   C     C_R   0.222289 0.909904 0.311484 -0.113637
C33   C     C_R   0.088779 0.312120 0.311668 -0.113294
C34   C     C_3   0.658090 0.735955 0.790008 -0.224581
C35   C     C_R   0.663125 0.759918 0.360951 -0.125509
C36   C     C_R   0.239524 0.902385 0.360971 -0.125700
C37   C     C_R   0.096278 0.337452 0.361052 -0.125707
C38   C     C_R   0.657905 0.752435 0.204367 -0.121533
C39   C     C_R   0.248490 0.905969 0.204377 -0.120787
C40   C     C_R   0.093642 0.340800 0.204408 -0.120743
C41   C     C_R   0.683705 0.763294 0.155314 -0.131389
C42   C     C_R   0.237886 0.921048 0.155293 -0.130148
C43   C     C_R   0.078869 0.315328 0.155341 -0.130349
C44   C     C_R   0.696419 0.942976 0.154040 0.252463
C45   C     C_3   0.247803 0.940116 0.784663 -0.228507
C46   C     C_R   0.057141 0.753868 0.153877 0.250734
C47   C     C_R   0.246621 0.301557 0.154392 0.250613
C48   C     C_R   0.676032 0.933776 0.204045 -0.089788
C49   C     C_R   0.066023 0.742493 0.203895 -0.089752
C50   C     C_R   0.257630 0.321647 0.204415 -0.089969
C51   C     C_R   0.661525 0.840652 0.229868 -0.022178
C52   C     C_R   0.159509 0.821082 0.229811 -0.022336
C53   C     C_R   0.178626 0.336711 0.230094 -0.022180
C54   C     C_R   0.712726 0.862134 0.130717 0.000237
C55   C     C_R   0.138565 0.851097 0.130613 -0.000827
C56   C     C_3   0.054494 0.306995 0.785072 -0.224770
C57   C     C_R   0.149272 0.286224 0.130862 -0.000668
C58   C     C_R   0.107871 0.223929 0.085333 0.596583
C59   C     C_R   0.776262 0.883846 0.085377 0.582839
C60   C     C_R   0.116698 0.892510 0.085225 0.594856
C61   C     C_3   0.546621 0.840305 0.739988 -0.222845
C62   C     C_3   0.137103 0.719121 0.740703 -0.219666
C63   C     C_3   0.276942 0.420587 0.741406 -0.205476
C64   C     C_3   0.753647 0.928839 0.722761 0.139293
C65   C     C_3   0.059116 0.841141 0.714196 0.146085
C66   C     C_3   0.156843 0.222334 0.713605 0.171481
C67   C     C_3   0.634470 0.722219 0.734703 -0.248180
C68   C     C_3   0.777937 0.940815 0.778550 -0.207733
C69   C     C_3   0.043907 0.863480 0.768402 -0.200766
C70   C     C_3   0.131178 0.181833 0.767403 -0.192770
C71   C     C_1   0.732356 0.872513 0.901469 -0.006789
C72   C     C_1   0.103919 0.898079 0.893323 -0.006388
C73   C     C_1   0.100020 0.204401 0.893109 -0.009796
C74   C     C_3   0.637048 0.825954 0.712936 0.038905
C75   C     C_3   0.159890 0.821080 0.709498 0.043948
C76   C     C_3   0.175065 0.341527 0.709805 0.035069
C77   C     C_3   0.572914 0.857829 0.795376 -0.224692
C78   C     C_3   0.265554 0.921364 0.730847 -0.255456
C79   C     C_3   0.114611 0.736773 0.794569 -0.217987
C80   C     C_3   0.259551 0.377646 0.794745 -0.209272
C81   C     C_3   0.677804 0.849593 0.807290 0.026471
C82   C     C_3   0.129339 0.853611 0.801314 0.026393
C83   C     C_3   0.141814 0.275364 0.801132 0.019680
C84   C     C_3   0.072374 0.343317 0.731108 -0.250819
Cr1   Cr    Cr6+3 0.164410 0.584450 0.499910 1.062258
Cr2   Cr    Cr6+3 0.415550 0.579960 0.499910 1.064462
Cr3   Cr    Cr6+3 0.420040 0.835590 0.499910 1.062614
Cr4   Cr    Cr6+3 0.156760 0.076070 0.017830 1.133129
Cr5   Cr    Cr6+3 0.923930 0.080690 0.017830 1.125107
Cr6   Cr    Cr6+3 0.919310 0.843240 0.017830 1.130495
H1    H     H_    0.639001 0.676316 0.222605 0.141662
H2    H     H_    0.736111 0.744121 0.295285 0.117614
H3    H     H_    0.255883 0.990975 0.295274 0.117673
H4    H     H_    0.007082 0.264939 0.295457 0.117563
H5    H     H_    0.540881 0.911119 0.725061 0.163597
H6    H     H_    0.065432 0.642656 0.726112 0.158252
H7    H     H_    0.355118 0.428445 0.726696 0.193062
H8    H     H_    0.689185 0.710895 0.381759 0.135405
H9    H     H_    0.288706 0.977072 0.381783 0.135444
H10   H     H_    0.021000 0.312624 0.381757 0.135175
H11   H     H_    0.816911 0.913442 0.705378 0.168140
H12   H     H_    0.324981 0.963251 0.222683 0.142003
H13   H     H_    0.078988 0.916563 0.693099 0.174248
H14   H     H_    0.082664 0.166939 0.691412 0.165161
H15   H     H_    0.797535 0.022915 0.792486 0.164283
H16   H     H_    0.958455 0.806806 0.781829 0.169966
H17   H     H_    0.186201 0.151052 0.780726 0.173127
H18   H     H_    0.551651 0.647867 0.728233 0.124045
H19   H     H_    0.337682 0.907372 0.728172 0.115369
H20   H     H_    0.084131 0.427954 0.728286 0.120847
H21   H     H_    0.696793 0.707166 0.716370 0.227613
H22   H     H_    0.287959 0.996832 0.709548 0.202624
H23   H     H_    0.036075 0.360026 0.222488 0.141779
H24   H     H_    0.996752 0.288380 0.709848 0.225338
H25   H     H_    0.586478 0.940189 0.806372 0.124058
H26   H     H_    0.028673 0.672901 0.804967 0.135887
H27   H     H_    0.323875 0.355332 0.804166 0.167117
H28   H     H_    0.463549 0.765661 0.734554 0.097221
H29   H     H_    0.210261 0.706638 0.739200 0.098296
H30   H     H_    0.287502 0.504899 0.740856 0.089046
H31   H     H_    0.500376 0.794620 0.816386 0.124753
H32   H     H_    0.172922 0.726383 0.818899 0.126963
H33   H     H_    0.270504 0.444574 0.819951 0.119954
H34   H     H_    0.687114 0.696290 0.137333 0.203706
H35   H     H_    0.732410 0.727969 0.798114 0.158825
H36   H     H_    0.260956 0.024795 0.789229 0.163845
H37   H     H_    0.969109 0.235558 0.789984 0.172925
H38   H     H_    0.517918 0.897200 0.370495 0.144404
H39   H     H_    0.101471 0.621232 0.370551 0.143993
H40   H     H_    0.379600 0.478828 0.370808 0.143929
H41   H     H_    0.555036 0.921308 0.284763 0.118876
H42   H     H_    0.077878 0.634502 0.284761 0.119080
H43   H     H_    0.366452 0.441050 0.285165 0.118903
H44   H     H_    0.620100 0.154324 0.133461 0.379236
H45   H     H_    0.305416 0.991537 0.137334 0.204063
H46   H     H_    0.844778 0.467079 0.133249 0.378899
H47   H     H_    0.535082 0.373974 0.134535 0.378920
H48   H     H_    0.699180 0.113468 0.748916 0.342146
H49   H     H_    0.873366 0.591971 0.737394 0.351111
H50   H     H_    0.415698 0.206463 0.716297 0.377651
H51   H     H_    0.853219 0.933881 0.785738 0.078166
H52   H     H_    0.055846 0.947795 0.771565 0.074509
H53   H     H_    0.044683 0.110984 0.769584 0.078313
H54   H     H_    0.586426 0.668687 0.809964 0.134821
H55   H     H_    0.310755 0.934215 0.807668 0.132948
H56   H     H_    0.008217 0.312465 0.137216 0.203186
H57   H     H_    0.061278 0.375425 0.808174 0.135715
H58   H     H_    0.674246 0.000857 0.222773 0.155650
H59   H     H_    0.998372 0.673473 0.222556 0.155720
H60   H     H_    0.326726 0.322880 0.223263 0.155865
O1    O     O_R   0.137310 0.468260 0.552980 -0.496027
O2    O     O_R   0.139940 0.470480 0.446230 -0.516379
O3    O     O_R   0.529520 0.669460 0.446230 -0.515650
O4    O     O_R   0.330540 0.860060 0.446230 -0.515523
O5    O     O_R   0.176560 0.690850 0.450770 -0.504680
O6    O     O_R   0.309150 0.485710 0.450770 -0.504286
O7    O     O_R   0.514290 0.823440 0.450770 -0.504135
O8    O     O_3   0.333333 0.666667 0.499990 -0.296245
O9    O     O_3   1.000000 0.000000 0.017910 -0.314848
O10   O     O_R   0.149710 0.171070 0.967700 -0.489060
O11   O     O_R   0.828930 0.978640 0.967700 -0.514882
O12   O     O_R   0.531740 0.669050 0.552980 -0.491409
O13   O     O_R   0.021360 0.850290 0.967700 -0.473167
O14   O     O_R   0.178510 0.985930 0.071830 -0.482370
O15   O     O_R   0.014070 0.192580 0.071830 -0.480338
O16   O     O_R   0.807420 0.821490 0.071830 -0.484171
O17   O     O_R   0.147830 0.173300 0.066650 -0.429409
O18   O     O_R   0.826700 0.974530 0.066650 -0.433060
O19   O     O_R   0.025470 0.852170 0.066650 -0.427726
O20   O     O_2   0.812046 0.148776 0.119572 -0.290542
O21   O     O_2   0.649719 0.017233 0.072119 -0.267722
O22   O     O_3   0.615942 0.092581 0.152850 -0.538477
O23   O     O_R   0.330950 0.862690 0.552980 -0.492624
O24   O     O_2   0.849981 0.662694 0.119119 -0.291013
O25   O     O_2   0.983459 0.633940 0.071925 -0.260290
O26   O     O_3   0.906977 0.524523 0.152605 -0.538537
O27   O     O_2   0.336862 0.185571 0.119817 -0.292455
O28   O     O_2   0.368725 0.348128 0.072782 -0.261243
O29   O     O_3   0.477340 0.378943 0.153738 -0.538052
O30   O     O_2   0.880041 0.108235 0.667807 -0.280510
O31   O     O_2   0.680986 0.033891 0.659872 -0.263302
O32   O     O_3   0.776814 0.145029 0.737381 -0.551370
O33   O     O_2   0.871463 0.783421 0.663493 -0.276947
O34   O     O_R   0.180530 0.983530 0.965090 -0.491840
O35   O     O_2   0.951826 0.665808 0.651097 -0.259923
O36   O     O_3   0.846671 0.644798 0.731761 -0.556503
O37   O     O_2   0.223525 0.102533 0.661438 -0.311710
O38   O     O_2   0.340134 0.301494 0.653673 -0.259348
O39   O     O_3   0.355440 0.211529 0.733256 -0.581311
O40   O     O_R   0.016470 0.197000 0.965090 -0.482798
O41   O     O_R   0.803000 0.819470 0.965090 -0.510053
O42   O     O_R   0.174120 0.688790 0.549730 -0.484938
O43   O     O_R   0.311210 0.485330 0.549730 -0.482662
O44   O     O_R   0.514670 0.825880 0.549730 -0.483666
S1    S     S_3+6 0.695583 0.053050 0.122593 0.015366
S2    S     S_3+6 0.946725 0.643143 0.122329 0.017261
S3    S     S_3+6 0.358023 0.301542 0.123139 0.016043
S4    S     S_3+6 0.772224 0.055500 0.695346 -0.028040
S5    S     S_3+6 0.930548 0.731658 0.688396 -0.026507
S6    S     S_3+6 0.271290 0.209590 0.688656 -0.040492

loop_
_geom_bond_atom_site_label_1
_geom_bond_atom_site_label_2
_ccdc_geom_bond_type
C24   H43   S    
C19   H39   S    
C30   O7    A    
H46   O26   S    
C26   C32   A    
C62   H6    S    
C15   C18   A    
C18   C21   A    
C17   C29   S    
C12   O43   A    
C45   C82   S    
O32   S4    S    
C24   C27   A    
C33   H4    S    
C76   C84   S    
C6    C9    T    
C25   C51   S    
C78   H19   S    
C6    C75   S    
C27   C33   A    
Cr1   O42   S    
O24   S2    D    
C46   C49   A    
C1    O23   A    
C70   H53   S    
C56   C83   S    
C45   H55   S    
C60   O19   A    
C64   C68   S    
C41   H34   S    
Cr2   O3    S    
C64   S4    S    
C70   H17   S    
C16   C19   A    
Cr2   O43   S    
O20   S1    D    
C67   H18   S    
Cr4   O9    S    
C63   C76   S    
O38   S6    D    
Cr6   O9    S    
C17   C20   A    
C79   C82   S    
Cr1   O5    S    
C56   H37   S    
Cr5   O11   S    
C14   O13   A    
C58   O15   A    
Cr2   O6    S    
C5    C74   S    
C21   H41   S    
C69   C82   S    
C18   H38   S    
C65   S5    S    
C30   O3    A    
C20   C24   A    
C61   C77   S    
C78   H22   S    
C46   C55   A    
C28   O5    A    
C15   C30   S    
Cr5   O40   S    
C56   C84   S    
C45   C78   S    
Cr2   O12   S    
C34   C81   S    
C47   C50   A    
H49   O36   S    
C8    C23   S    
C44   C54   A    
Cr6   O41   S    
C23   O12   A    
C68   C81   S    
Cr4   O17   S    
C39   C52   A    
H44   O22   S    
C55   C60   S    
Cr6   O16   S    
C28   O4    A    
H50   O39   S    
C12   O1    A    
C80   C83   S    
O31   S4    D    
C15   C35   A    
C11   O10   A    
Cr5   O9    S    
C39   C42   A    
C54   C59   S    
C40   C43   A    
C64   H11   S    
Cr3   O23   S    
C79   H32   S    
C48   C51   A    
C50   C53   A    
O30   S4    D    
C66   H14   S    
C62   C79   S    
C19   C22   A    
C1    C9    S    
C38   C41   A    
O21   S1    D    
C11   C73   S    
C38   C51   A    
C13   C71   S    
C69   H52   S    
Cr4   O14   S    
Cr6   O19   S    
C38   H1    S    
C84   H20   S    
Cr3   O7    S    
C42   H45   S    
Cr1   O1    S    
Cr5   O18   S    
C66   S6    S    
C70   C83   S    
C26   C52   S    
C42   C55   A    
C47   C57   A    
C50   H60   S    
C40   H23   S    
H47   O29   S    
C77   C81   S    
C45   H36   S    
C49   C52   A    
C66   C76   S    
C3    C82   S    
C61   H5    S    
C4    C73   T    
Cr3   O4    S    
C68   H51   S    
C67   C74   S    
C17   C37   A    
O26   S2    S    
C13   O11   A    
C58   O17   A    
Cr2   O8    S    
Cr5   O15   S    
C62   H29   S    
C59   O16   A    
C10   C12   S    
Cr4   O34   S    
C29   O6    A    
O39   S6    S    
C67   H21   S    
O28   S3    D    
C40   C53   A    
C59   O18   A    
C22   C26   A    
C31   C35   A    
O36   S5    S    
C68   H15   S    
C65   H13   S    
C2    C71   T    
C35   H8    S    
C32   C36   A    
O25   S2    D    
C39   H12   S    
C21   C25   A    
C80   H27   S    
C44   S1    S    
C84   H24   S    
C22   H42   S    
C61   H28   S    
C14   C72   S    
C25   C31   A    
Cr3   O44   S    
C20   H40   S    
C2    C81   S    
C65   C75   S    
C34   C67   S    
C5    C8    T    
C14   O34   A    
C69   H16   S    
C27   C53   S    
C46   S2    S    
C7    C76   S    
C61   C74   S    
C63   C80   S    
O29   S3    S    
O37   S6    D    
O35   S5    D    
C13   O41   A    
Cr3   O8    S    
C49   H59   S    
Cr6   O13   S    
C11   O40   A    
C7    C10   T    
C56   H57   S    
C3    C72   T    
Cr1   O2    S    
C63   H7    S    
C43   H56   S    
C77   H25   S    
C34   H54   S    
C29   O2    A    
C63   H30   S    
C57   C58   S    
C66   C70   S    
C4    C83   S    
C34   H35   S    
C65   C69   S    
C48   H58   S    
C23   O44   A    
C60   O14   A    
C32   H3    S    
C36   H9    S    
Cr4   O10   S    
H48   O32   S    
C75   C78   S    
C33   C37   A    
C41   C54   A    
C77   H31   S    
C43   C57   A    
C1    O42   A    
O33   S5    D    
C31   H2    S    
Cr1   O8    S    
C64   C74   S    
C16   C28   S    
C47   S3    S    
O22   S1    S    
O27   S3    D    
C79   H26   S    
C37   H10   S    
C16   C36   A    
C62   C75   S    
C44   C48   A    
C80   H33   S    
