data_mof_unit_14172.cif
_audit_creation_date              2012-12-10T16:51:15-0500
_audit_creation_method            fapswitch 2.2
_symmetry_space_group_name_H-M    P1
_symmetry_Int_Tables_number       1
_space_group_crystal_system       triclinic
_cell_length_a                    27.772085
_cell_length_b                    8.660123
_cell_length_c                    7.444281
_cell_angle_alpha                 102.94883
_cell_angle_beta                  93.931383
_cell_angle_gamma                 92.318103
_cell_volume                      1737.91592026

loop_
_atom_site_label
_atom_site_type_symbol
_atom_type_description
_atom_site_fract_x
_atom_site_fract_y
_atom_site_fract_z
_atom_type_partial_charge
C1    C     C_R   0.498545 0.199724 0.453248 0.886756
C2    C     C_R   0.501455 0.800276 0.546752 0.886851
C3    C     C_R   0.102278 0.498172 0.513876 -0.042601
C4    C     C_R   0.897805 0.499172 0.486555 -0.042993
C5    C     C_R   0.125250 0.355617 0.454412 -0.024716
C6    C     C_R   0.874788 0.642871 0.536177 -0.023018
C7    C     C_R   0.097386 0.213653 0.391139 -0.153037
C8    C     C_R   0.902579 0.785892 0.587494 -0.153980
C9    C     C_R   0.130751 0.640691 0.579121 -0.023068
C10   C     C_R   0.869378 0.355694 0.431148 -0.023296
C11   C     C_R   0.354934 0.501925 0.510336 -0.121603
C12   C     C_R   0.645067 0.497555 0.489668 -0.120876
C13   C     C_R   0.971650 0.352544 0.442494 0.042526
C14   C     C_R   0.028456 0.644167 0.562767 0.041078
C15   C     C_R   0.977159 0.644935 0.550645 0.043788
C16   C     C_R   0.022898 0.352688 0.445202 0.042377
C17   C     C_R   0.949097 0.498890 0.493123 0.071419
C18   C     C_R   0.050984 0.498320 0.507382 0.071128
C19   C     C_R   0.941853 0.210497 0.391199 -0.214563
C20   C     C_R   0.058324 0.784679 0.629904 -0.213390
C21   C     C_R   0.891832 0.212514 0.384740 -0.148488
C22   C     C_R   0.108354 0.782574 0.637717 -0.148173
C23   C     C_R   0.407602 0.500255 0.502998 0.829675
C24   C     C_R   0.592399 0.499669 0.496997 0.829701
C25   C     C_R   0.047322 0.211779 0.386685 -0.214096
C26   C     C_R   0.952654 0.787377 0.593405 -0.214712
C27   C     C_2   0.497841 0.031743 0.426905 -0.369610
C28   C     C_2   0.502159 0.968257 0.573095 -0.369701
C29   C     C_R   0.175859 0.358703 0.457902 0.565497
C30   C     C_R   0.824194 0.640082 0.533555 0.561969
C31   C     C_R   0.181283 0.637977 0.583921 0.572481
C32   C     C_R   0.818841 0.358645 0.425318 0.576920
C33   C     C_R   0.276043 0.551092 0.377351 0.504328
C34   C     C_R   0.723884 0.448039 0.623040 0.505236
C35   C     C_R   0.326335 0.546090 0.369620 -0.335556
C36   C     C_R   0.673599 0.453680 0.630719 -0.337460
C37   C     C_R   0.333026 0.458606 0.657383 -0.216117
C38   C     C_R   0.667029 0.539832 0.342180 -0.216998
C39   C     C_R   0.282700 0.454596 0.661824 0.100671
C40   C     C_R   0.717354 0.543273 0.337663 0.100989
C41   C     C_R   0.254254 0.499978 0.520241 0.286970
C42   C     C_R   0.745775 0.498444 0.479822 0.285438
Cu1   Cu    Cu3+1 0.505380 0.517380 0.684380 0.949434
Cu2   Cu    Cu3+1 0.494620 0.482620 0.315620 0.949487
H1    H     H_    0.355052 0.423782 0.765961 0.162229
H2    H     H_    0.645041 0.574229 0.233200 0.162332
H3    H     H_    0.462189 0.378250 0.948792 0.223771
H4    H     H_    0.537811 0.621750 0.051208 0.223770
H5    H     H_    0.114193 0.102482 0.344246 0.188149
H6    H     H_    0.885699 0.898232 0.622944 0.186948
H7    H     H_    0.656741 0.423114 0.745921 0.169760
H8    H     H_    0.343130 0.577274 0.254617 0.170130
H9    H     H_    0.870775 0.100376 0.344236 0.189896
H10   H     H_    0.129469 0.893598 0.689711 0.190304
H11   H     H_    0.955807 0.094360 0.356727 0.139994
H12   H     H_    0.044422 0.899189 0.680335 0.142695
H13   H     H_    0.028995 0.097105 0.333579 0.141315
H14   H     H_    0.970908 0.903359 0.630624 0.138850
H15   H     H_    0.493770 0.960031 0.286103 0.179984
H16   H     H_    0.506231 0.039969 0.713897 0.179952
N1    N     N_R   0.202650 0.498475 0.522646 -0.441226
N2    N     N_R   0.797408 0.499380 0.477493 -0.441886
N3    N     N_2   0.486510 0.456430 0.038510 -0.218213
N4    N     N_2   0.513490 0.543570 0.961490 -0.218266
O1    O     O_R   0.503500 0.286120 0.619780 -0.585478
O2    O     O_R   0.496500 0.713880 0.380220 -0.585406
O3    O     O_R   0.494410 0.256780 0.308360 -0.583986
O4    O     O_R   0.505590 0.743220 0.691640 -0.583961
O5    O     O_R   0.434810 0.514700 0.655690 -0.592030
O6    O     O_R   0.565190 0.485300 0.344310 -0.592187
O7    O     O_R   0.425720 0.485350 0.344280 -0.582285
O8    O     O_R   0.574280 0.514650 0.655720 -0.582413
O9    O     O_2   0.198169 0.223521 0.396160 -0.546761
O10   O     O_2   0.801912 0.776535 0.587881 -0.545745
O11   O     O_2   0.791268 0.222086 0.368506 -0.551757
O12   O     O_2   0.208917 0.773534 0.648616 -0.554376
C43   C     C_3   0.259499 0.401784 0.816368 -0.743610
H17   H     H_    0.286834 0.384102 0.924972 0.234356
H18   H     H_    0.235019 0.492594 0.880786 0.261474
H19   H     H_    0.238100 0.287969 0.761195 0.254360
C44   C     C_3   0.740509 0.594403 0.181976 -0.743881
H20   H     H_    0.713160 0.609025 0.071843 0.234067
H21   H     H_    0.761355 0.709506 0.235058 0.257750
H22   H     H_    0.765467 0.504172 0.120070 0.259330
O13   O     O_3   0.753212 0.405504 0.760444 -0.594063
C45   C     C_3   0.737759 0.254787 0.785090 -0.259628
H23   H     H_    0.728389 0.167678 0.651149 0.195337
H24   H     H_    0.706875 0.264384 0.873397 0.156806
H25   H     H_    0.767873 0.207691 0.858670 0.214332
O14   O     O_3   0.246644 0.593431 0.240060 -0.594721
C46   C     C_3   0.261465 0.745551 0.218093 -0.260696
H26   H     H_    0.231362 0.791319 0.142971 0.215611
H27   H     H_    0.292834 0.738947 0.132362 0.158527
H28   H     H_    0.269824 0.832071 0.353160 0.193883

loop_
_geom_bond_atom_site_label_1
_geom_bond_atom_site_label_2
_ccdc_geom_bond_type
C38   C40   A    
Cu1   O8    S    
C8    C26   A    
C23   O5    A    
Cu2   O2    S    
C34   C42   A    
C41   N1    S    
C20   H12   S    
C32   O11   S    
C44   H20   S    
C31   O12   S    
C24   O6    A    
C39   C41   A    
C43   H17   S    
C3    C18   A    
C39   C43   S    
C19   C21   A    
C2    O4    A    
H3    N3    S    
C30   O10   S    
C45   H24   S    
C9    C22   A    
H4    N4    S    
C29   O9    S    
Cu2   O7    S    
C11   C37   A    
C31   N1    A    
C1    O3    A    
Cu1   O4    S    
C1    O1    A    
Cu2   O6    S    
C12   C36   A    
C42   N2    S    
C40   C42   A    
Cu2   N3    S    
C22   H10   S    
C25   H13   S    
C44   H21   S    
Cu1   N4    S    
C5    C29   A    
C43   H18   S    
C10   C21   A    
C29   N1    A    
C13   C19   A    
C14   C20   A    
C7    H5    S    
C4    C6    A    
C46   H26   S    
C5    C7    A    
C45   H23   S    
C15   C26   A    
C6    C8    A    
C3    C5    A    
O13   C45   S    
C34   O13   S    
Cu1   Cu2   S    
C3    C9    A    
C23   O7    A    
C46   H27   S    
Cu1   O1    S    
C26   H14   S    
C36   H7    S    
C4    C17   A    
C6    C30   A    
C20   C22   A    
C30   N2    A    
C4    C10   A    
C8    H6    S    
C35   H8    S    
C44   H22   S    
C24   O8    A    
C43   H19   S    
C19   H11   S    
C16   C25   A    
C15   C17   A    
C40   C44   S    
C2    O2    A    
C45   H25   S    
C12   C24   S    
C7    C25   A    
C13   C17   A    
C33   C41   A    
C11   C35   A    
C32   N2    A    
C37   C39   A    
C27   H15   S    
C33   O14   S    
C46   H28   S    
C21   H9    S    
O14   C46   S    
C11   C23   S    
C33   C35   A    
C14   C18   A    
C34   C36   A    
C12   C38   A    
C38   H2    S    
C9    C31   A    
N3    N4    D    
C10   C32   A    
C28   H16   S    
C16   C18   A    
C13   C16   A    
C27   C28   D    
C1    C27   S    
C14   C15   A    
Cu2   O3    S    
C2    C28   S    
Cu1   O5    S    
C37   H1    S    
