data_mof_unit_51475.cif
_audit_creation_date              2012-12-10T18:52:56-0500
_audit_creation_method            fapswitch 2.2
_symmetry_space_group_name_H-M    P1
_symmetry_Int_Tables_number       1
_space_group_crystal_system       triclinic
_cell_length_a                    9.868677
_cell_length_b                    10.64158
_cell_length_c                    16.995725
_cell_angle_alpha                 90.753671
_cell_angle_beta                  86.133209
_cell_angle_gamma                 90.941716
_cell_volume                      1780.42890488

loop_
_atom_site_label
_atom_site_type_symbol
_atom_type_description
_atom_site_fract_x
_atom_site_fract_y
_atom_site_fract_z
_atom_type_partial_charge
C1    C     C_R   0.500612 0.739777 0.501887 0.907798
C2    C     C_R   0.070224 0.596895 0.533777 -0.171878
C3    C     C_R   0.071331 0.400761 0.468589 0.153557
C4    C     C_R   0.926092 0.596479 0.534815 0.171664
C5    C     C_R   0.482519 0.495579 0.652256 0.910603
C6    C     C_R   0.517731 0.499584 0.346928 0.873877
C7    C     C_R   0.474725 0.472693 0.736403 -0.108929
C8    C     C_R   0.529998 0.482507 0.260878 -0.141814
C9    C     C_R   0.563183 0.385313 0.767224 -0.070845
C10   C     C_R   0.433398 0.407654 0.222697 -0.045714
C11   C     C_R   0.555820 0.364272 0.847458 -0.252340
C12   C     C_R   0.499399 0.260293 0.497580 0.899865
C13   C     C_R   0.467935 0.361159 0.147754 -0.258782
C14   C     C_R   0.464778 0.430853 0.897940 0.157304
C15   C     C_R   0.581700 0.407272 0.103847 0.149926
C16   C     C_R   0.372806 0.514542 0.867854 0.079598
C17   C     C_R   0.675770 0.486725 0.138630 0.092984
C18   C     C_R   0.377764 0.535670 0.786275 0.030951
C19   C     C_R   0.650520 0.524770 0.218237 0.048955
C20   C     C_2   0.467747 0.416137 0.982868 -0.208782
C21   C     C_2   0.583281 0.395950 0.017977 -0.214657
C22   C     C_R   0.663646 0.312472 0.717598 0.149234
C23   C     C_R   0.597766 0.933909 0.452729 -0.314400
C24   C     C_R   0.797326 0.358439 0.704187 -0.093061
C25   C     C_R   0.892751 0.288975 0.658087 -0.146232
C26   C     C_R   0.855775 0.172744 0.626031 -0.118500
C27   C     C_R   0.723527 0.125513 0.640437 -0.115163
C28   C     C_R   0.627369 0.195267 0.685899 -0.169671
C29   C     C_R   0.287902 0.393669 0.250479 0.146561
C30   C     C_R   0.209885 0.501642 0.266364 -0.097076
C31   C     C_R   0.068923 0.491830 0.279651 -0.157059
C32   C     C_R   0.003508 0.374867 0.274571 -0.110846
C33   C     C_R   0.079554 0.266925 0.258285 -0.137617
C34   C     C_R   0.401741 0.066190 0.545876 -0.322748
C35   C     C_R   0.221050 0.275946 0.246441 -0.198155
C36   C     C_R   0.596446 0.063012 0.448708 0.104773
C37   C     C_R   0.403417 0.937224 0.550158 0.106631
C38   C     C_R   0.498150 0.127859 0.495999 -0.023871
C39   C     C_R   0.501481 0.872278 0.502754 -0.039254
C40   C     C_R   0.928806 0.402789 0.467310 -0.082592
H1    H     H_    0.680188 0.390369 0.983957 0.172398
H2    H     H_    0.995315 0.325280 0.647177 0.130012
H3    H     H_    0.929700 0.119111 0.590296 0.113494
H4    H     H_    0.695471 0.034954 0.616218 0.142940
H5    H     H_    0.525086 0.158046 0.696571 0.120505
H6    H     H_    0.257993 0.593855 0.266750 0.123262
H7    H     H_    0.010606 0.575308 0.293338 0.140883
H8    H     H_    0.894086 0.367730 0.284006 0.153596
H9    H     H_    0.028870 0.176265 0.254730 0.129265
H10   H     H_    0.278305 0.191626 0.232613 0.130811
H11   H     H_    0.687166 0.695507 0.266363 0.167313
H12   H     H_    0.374704 0.436121 0.018340 0.182258
H13   H     H_    0.826100 0.635356 0.219605 0.164918
H14   H     H_    0.304756 0.712332 0.779113 0.171777
H15   H     H_    0.188077 0.595145 0.767888 0.179970
H16   H     H_    0.295888 0.676818 0.915079 0.181920
H17   H     H_    0.179544 0.559066 0.905067 0.179058
H18   H     H_    0.879987 0.504593 0.116667 0.189123
H19   H     H_    0.788860 0.630185 0.089310 0.180543
H20   H     H_    0.679507 0.094712 0.338638 0.172326
H21   H     H_    0.790014 0.104450 0.410317 0.177937
H22   H     H_    0.323207 0.906297 0.660883 0.171691
H23   H     H_    0.396005 0.300922 0.119019 0.152013
H24   H     H_    0.210675 0.896000 0.590331 0.171196
H25   H     H_    0.162601 0.236808 0.486113 0.194007
H26   H     H_    0.223472 0.316645 0.403625 0.253482
H27   H     H_    0.876734 0.699083 0.632683 0.152223
H28   H     H_    0.885312 0.780767 0.547832 0.156187
H29   H     H_    0.622203 0.295515 0.870469 0.150008
H30   H     H_    0.671668 0.881786 0.415737 0.154985
H31   H     H_    0.328210 0.118275 0.583154 0.148387
H32   H     H_    0.875204 0.324778 0.441542 0.157812
H33   H     H_    0.123223 0.673745 0.561187 0.159403
H34   H     H_    0.826989 0.448344 0.728829 0.116068
N1    N     N_R   0.142790 0.500030 0.500020 -0.101017
N2    N     N_3   0.852126 0.696188 0.573802 -0.399318
N3    N     N_R   0.857210 0.499970 0.499980 -0.091636
N4    N     N_3   0.740067 0.612028 0.255614 -0.448257
N5    N     N_3   0.288537 0.623739 0.753858 -0.447433
N6    N     N_3   0.278036 0.580188 0.920754 -0.486103
N7    N     N_3   0.791769 0.532125 0.091232 -0.485396
N8    N     N_3   0.692283 0.127847 0.395898 -0.462362
N9    N     N_3   0.308889 0.872701 0.603897 -0.450611
N10   N     N_3   0.137159 0.290446 0.438445 -0.468490
O1    O     O_R   0.385380 0.683250 0.500010 -0.604960
O2    O     O_R   0.614620 0.316750 0.499990 -0.596700
O3    O     O_R   0.614710 0.683220 0.500000 -0.607925
O4    O     O_R   0.385290 0.316780 0.500000 -0.664516
O5    O     O_R   0.371780 0.500040 0.615800 -0.595521
O6    O     O_R   0.628220 0.499960 0.384200 -0.589657
O7    O     O_R   0.601110 0.500010 0.615800 -0.607492
O8    O     O_R   0.398890 0.499990 0.384200 -0.633699
Zn1   Zn    Zn3+2 0.346870 0.500020 0.500000 0.938988
Zn2   Zn    Zn3+2 0.653130 0.499980 0.500000 0.976036

loop_
_geom_bond_atom_site_label_1
_geom_bond_atom_site_label_2
_ccdc_geom_bond_type
C1    O3    A    
H22   N9    S    
C34   C37   A    
C23   H30   S    
C26   C27   A    
H21   N8    S    
C30   C31   A    
C11   C14   A    
C6    O8    A    
C9    C22   S    
C33   H9    S    
O3    Zn2   S    
N3    Zn2   S    
C7    C9    A    
O2    Zn2   S    
C17   C19   A    
H20   N8    S    
C27   H4    S    
C36   N8    S    
C18   N5    S    
C3    N1    A    
C17   N7    S    
C22   C28   A    
C12   C38   S    
C32   H8    S    
H17   N6    S    
O1    Zn1   S    
C26   H3    S    
O6    Zn2   S    
C1    O1    A    
C37   C39   A    
C28   H5    S    
C8    C19   A    
C12   O4    A    
C14   C20   S    
C24   C25   A    
H18   N7    S    
C5    C7    S    
H25   N10   S    
C6    C8    S    
C25   C26   A    
C6    O6    A    
C16   N6    S    
C19   N4    S    
C2    C4    A    
H24   N9    S    
C29   C30   A    
H15   N5    S    
C31   C32   A    
C13   H23   S    
C7    C18   A    
C35   H10   S    
C9    C11   A    
C5    O7    A    
C2    H33   S    
C21   H1    S    
C8    C10   A    
C3    C40   A    
C13   C15   A    
C14   C16   A    
C3    N10   S    
N1    Zn1   S    
H14   N5    S    
C15   C17   A    
O4    Zn1   S    
C40   H32   S    
C34   C38   A    
C30   H6    S    
H19   N7    S    
C10   C13   A    
C25   H2    S    
C11   H29   S    
H28   N2    S    
C29   C35   A    
H16   N6    S    
C12   O2    A    
C32   C33   A    
C36   C38   A    
H13   N4    S    
H11   N4    S    
C4    N3    A    
C20   H12   S    
O7    Zn2   S    
C10   C29   S    
C24   H34   S    
C23   C39   A    
O8    Zn1   S    
C33   C35   A    
C22   C24   A    
O5    Zn1   S    
C4    N2    S    
C1    C39   S    
H26   N10   S    
C15   C21   S    
C20   C21   D    
C16   C18   A    
C23   C36   A    
C27   C28   A    
C40   N3    A    
C37   N9    S    
C31   H7    S    
H27   N2    S    
C34   H31   S    
C5    O5    A    
C2    N1    A    
