data_mof_unit_59848.cif
_audit_creation_date              2012-12-10T18:42:34-0500
_audit_creation_method            fapswitch 2.2
_symmetry_space_group_name_H-M    P1
_symmetry_Int_Tables_number       1
_space_group_crystal_system       triclinic
_cell_length_a                    8.587983
_cell_length_b                    10.711127
_cell_length_c                    9.886448
_cell_angle_alpha                 89.630319
_cell_angle_beta                  98.339134
_cell_angle_gamma                 90.733662
_cell_volume                      899.725608662

loop_
_atom_site_label
_atom_site_type_symbol
_atom_type_description
_atom_site_fract_x
_atom_site_fract_y
_atom_site_fract_z
_atom_type_partial_charge
Br1   Br    Br    0.735836 0.695684 0.185984 -0.516559
Br2   Br    Br    0.264164 0.304316 0.814016 -0.516559
C1    C     C_R   0.499569 0.260018 0.500164 0.881495
C2    C     C_R   0.532809 0.063543 0.624371 -0.139720
C3    C     C_R   0.500736 0.872505 0.499727 -0.022174
C4    C     C_R   0.499264 0.127495 0.500273 -0.022174
C5    C     C_R   0.596301 0.579933 0.081916 0.324266
C6    C     C_R   0.403699 0.420067 0.918084 0.324266
C7    C     C_R   0.595773 0.579518 0.938671 -0.160057
C8    C     C_R   0.404227 0.420482 0.061329 -0.160057
C9    C     C_R   0.500431 0.739982 0.499836 0.881496
C10   C     C_R   0.201347 0.499734 0.464336 0.974538
C11   C     C_R   0.798653 0.500266 0.535664 0.974538
C12   C     C_2   0.036330 0.498729 0.445131 -0.343367
C13   C     C_2   0.963670 0.501271 0.554869 -0.343367
C14   C     C_R   0.466331 0.064344 0.375897 -0.177992
C15   C     C_R   0.533669 0.935656 0.624103 -0.177992
C16   C     C_R   0.467191 0.936457 0.375629 -0.139720
H1    H     H_    0.975075 0.495501 0.340864 0.206683
H2    H     H_    0.024925 0.504499 0.659136 0.206684
H3    H     H_    0.439096 0.113356 0.279285 0.168535
H4    H     H_    0.560904 0.886644 0.720715 0.168535
H5    H     H_    0.440485 0.888062 0.278971 0.182835
H6    H     H_    0.559514 0.111938 0.721029 0.182835
H7    H     H_    0.672213 0.643003 0.892715 0.173491
H8    H     H_    0.327787 0.356997 0.107285 0.173491
N1    N     N_R   0.499960 0.499970 0.857200 -0.121268
N2    N     N_R   0.500040 0.500030 0.142800 -0.121268
O1    O     O_R   0.499990 0.316750 0.614620 -0.587147
O2    O     O_R   0.500010 0.683250 0.385380 -0.587147
O3    O     O_R   0.499990 0.316780 0.385290 -0.636718
O4    O     O_R   0.500010 0.683220 0.614710 -0.636718
O5    O     O_R   0.271750 0.499990 0.587840 -0.580392
O6    O     O_R   0.728250 0.500010 0.412160 -0.580392
O7    O     O_R   0.271750 0.500010 0.358510 -0.624211
O8    O     O_R   0.728250 0.499990 0.641490 -0.624211
Zn1   Zn    Zn3+2 0.500000 0.499980 0.653120 0.997760
Zn2   Zn    Zn3+2 0.500000 0.500020 0.346880 0.997760

loop_
_geom_bond_atom_site_label_1
_geom_bond_atom_site_label_2
_ccdc_geom_bond_type
C14   H3    S    
C15   H4    S    
O3    Zn2   S    
N2    Zn2   S    
C1    C4    S    
O1    Zn1   S    
C8    H8    S    
C7    H7    S    
C11   O6    A    
O6    Zn2   S    
O4    Zn1   S    
C10   O7    A    
C1    O3    A    
C7    N1    A    
N1    Zn1   S    
C2    C15   A    
C2    C4    A    
O8    Zn1   S    
C10   C12   S    
C9    O4    A    
C3    C9    S    
C11   C13   S    
C13   H2    S    
C2    H6    S    
Br2   C6    S    
C3    C15   A    
C4    C14   A    
C16   H5    S    
O7    Zn2   S    
O2    Zn2   S    
C11   O8    A    
C14   C16   A    
C8    N2    A    
C5    C7    A    
C6    N1    A    
C12   C13   D    
C1    O1    A    
C3    C16   A    
C10   O5    A    
Br1   C5    S    
C12   H1    S    
C6    C8    A    
O5    Zn1   S    
C5    N2    A    
C9    O2    A    
