data_mof_unit_27519.cif
_audit_creation_date              2012-10-26T19:24:17-0400
_audit_creation_method            fapswitch 2.2
_symmetry_space_group_name_H-M    P1
_symmetry_Int_Tables_number       1
_space_group_crystal_system       triclinic
_cell_length_a                    27.742179
_cell_length_b                    10.865245
_cell_length_c                    9.647992
_cell_angle_alpha                 91.056551
_cell_angle_beta                  90.080462
_cell_angle_gamma                 96.648975
_cell_volume                      2888.08228208

loop_
_atom_site_label
_atom_site_type_symbol
_atom_type_description
_atom_site_fract_x
_atom_site_fract_y
_atom_site_fract_z
_atom_type_partial_charge
Br1   Br    Br    0.356830 0.584568 0.206252 -0.184114
Br2   Br    Br    0.992257 0.906949 0.633608 -0.083260
Br3   Br    Br    0.756365 0.515007 0.204409 -0.254048
Br4   Br    Br    0.383161 0.222655 0.500952 -0.339899
Br5   Br    Br    0.323035 0.101062 0.773417 -0.095135
Br6   Br    Br    0.421478 0.304117 0.155622 -0.223693
Br7   Br    Br    0.667642 0.803221 0.170265 -0.174687
Br8   Br    Br    0.119025 0.191837 0.740908 -0.111021
Br9   Br    Br    0.004399 0.226597 0.784023 -0.185174
C1    C     C_R   0.496488 0.262066 0.498709 0.611581
C2    C     C_R   0.971387 0.419689 0.556211 -0.009389
C3    C     C_R   0.980010 0.645931 0.539519 -0.004890
C4    C     C_R   0.407951 0.508796 0.499996 0.610414
C5    C     C_R   0.950263 0.531112 0.541652 -0.076349
C6    C     C_R   0.942339 0.306226 0.529991 0.456373
C7    C     C_R   0.892352 0.302494 0.511798 0.482772
C8    C     C_R   0.870121 0.412536 0.515988 -0.019770
C9    C     C_R   0.899322 0.527530 0.529479 -0.161580
C10   C     C_R   0.877720 0.638820 0.531125 0.013227
C11   C     C_R   0.826886 0.632524 0.519976 0.500866
C12   C     C_R   0.277757 0.547087 0.393826 0.431826
C13   C     C_R   0.819530 0.411471 0.505135 0.493233
C14   C     C_R   0.721601 0.514314 0.628972 0.433083
C15   C     C_R   0.671189 0.508685 0.627489 -0.080516
C16   C     C_R   0.498027 0.736914 0.501933 0.674198
C17   C     C_R   0.671803 0.506215 0.376054 -0.073440
C18   C     C_R   0.722369 0.512045 0.377230 0.175618
C19   C     C_R   0.747386 0.516000 0.504199 0.223167
C20   C     C_R   0.021593 0.426315 0.587126 0.034132
C21   C     C_R   0.051644 0.535145 0.553335 -0.060969
C22   C     C_R   0.030715 0.644112 0.520917 -0.015331
C23   C     C_R   0.254161 0.529958 0.521734 0.180816
C24   C     C_R   0.042641 0.330982 0.654250 0.231725
C25   C     C_R   0.110677 0.742166 0.455661 0.477173
C26   C     C_R   0.957723 0.756034 0.558682 0.251615
C27   C     C_R   0.907209 0.752313 0.550537 0.458134
C28   C     C_R   0.592506 0.500726 0.500178 0.633088
C29   C     C_R   0.060561 0.742869 0.461213 0.444025
C30   C     C_R   0.410042 0.099444 0.604734 0.146946
C31   C     C_R   0.378330 0.032859 0.696461 0.209034
C32   C     C_R   0.385034 0.911948 0.727094 0.450602
C33   C     C_R   0.421752 0.855221 0.662937 0.374669
C34   C     C_R   0.102550 0.534264 0.549580 -0.135963
C35   C     C_R   0.457012 0.923880 0.578429 -0.139939
C36   C     C_R   0.453248 0.052157 0.560670 -0.128373
C37   C     C_R   0.491775 0.126741 0.494441 -0.009259
C38   C     C_R   0.529659 0.072502 0.432534 0.400475
C39   C     C_R   0.530751 0.946058 0.436759 0.432979
C40   C     C_R   0.174072 0.427212 0.572466 0.502876
C41   C     C_R   0.494931 0.870367 0.507478 -0.025262
C42   C     C_R   0.574772 0.653616 0.144618 0.415536
C43   C     C_R   0.614422 0.710421 0.073698 0.151407
C44   C     C_R   0.613752 0.711353 0.932546 -0.115719
C45   C     C_R   0.123492 0.427713 0.590445 0.012232
C46   C     C_R   0.573900 0.655415 0.860461 0.353498
C47   C     C_R   0.535921 0.576377 0.926437 0.030766
C48   C     C_R   0.536100 0.575997 0.076279 0.017915
C49   C     C_R   0.467368 0.424143 0.070480 0.296273
C50   C     C_R   0.467166 0.425563 0.923440 0.522751
C51   C     C_R   0.182760 0.637315 0.499342 0.513155
C52   C     C_R   0.281157 0.510317 0.640256 0.422656
C53   C     C_R   0.330781 0.503741 0.630521 -0.049923
C54   C     C_R   0.328045 0.544844 0.383725 0.167753
C55   C     C_R   0.093272 0.328345 0.651006 0.214633
C56   C     C_R   0.132272 0.639468 0.502537 -0.022272
C57   C     C_R   0.355058 0.519270 0.502780 -0.080446
C58   C     C_R   0.645785 0.504632 0.501080 -0.044741
Cu1   Cu    Cu3+1 0.500000 0.499990 0.640660 1.218598
Cu2   Cu    Cu3+1 0.500000 0.500010 0.359340 1.190275
F1    F     F_    0.259196 0.496901 0.765575 -0.497664
F2    F     F_    0.575154 0.688580 0.277388 -0.522381
F3    F     F_    0.573846 0.693069 0.729519 -0.583358
F4    F     F_    0.433745 0.348247 0.851788 -0.570876
F5    F     F_    0.745530 0.517898 0.752014 -0.546509
F6    F     F_    0.866137 0.190495 0.488470 -0.443293
F7    F     F_    0.962647 0.199541 0.509118 -0.488910
F8    F     F_    0.137566 0.840527 0.398119 -0.460160
F9    F     F_    0.887174 0.859966 0.567273 -0.456518
F10   F     F_    0.041157 0.833748 0.393080 -0.504819
F11   F     F_    0.566815 0.143372 0.370473 -0.552929
F12   F     F_    0.251549 0.565887 0.278684 -0.492118
F13   F     F_    0.353355 0.844949 0.811669 -0.496443
F14   F     F_    0.421612 0.733681 0.688070 -0.595166
F15   F     F_    0.569161 0.898692 0.378662 -0.482318
H1    H     H_    0.653028 0.503273 0.277365 0.181956
H2    H     H_    0.642838 0.765195 0.877862 0.214961
H3    H     H_    0.652160 0.507660 0.725451 0.170250
H4    H     H_    0.350150 0.485879 0.724226 0.249169
N1    N     N_R   0.202438 0.531696 0.531386 -0.375131
N2    N     N_R   0.799216 0.520235 0.507839 -0.391130
N3    N     N_R   0.500460 0.501210 0.147910 -0.279191
N4    N     N_R   0.500480 0.501290 0.852040 -0.239815
O1    O     O_R   0.500000 0.319640 0.618810 -0.478476
O2    O     O_R   0.569730 0.499970 0.618800 -0.472508
O3    O     O_R   0.569740 0.499990 0.381230 -0.450434
O4    O     O_2   0.195001 0.322952 0.591642 -0.336627
O5    O     O_2   0.790627 0.303020 0.493275 -0.315987
O6    O     O_2   0.212165 0.739836 0.464850 -0.299482
O7    O     O_2   0.805049 0.737219 0.521491 -0.301846
O8    O     O_R   0.500000 0.319660 0.381240 -0.452185
O9    O     O_R   0.430260 0.500010 0.618770 -0.419002
O10   O     O_R   0.430270 0.500030 0.381200 -0.468099
O11   O     O_R   0.500000 0.680340 0.618760 -0.374832
O12   O     O_R   0.500000 0.680360 0.381190 -0.425062

loop_
_geom_bond_atom_site_label_1
_geom_bond_atom_site_label_2
_ccdc_geom_bond_type
C52   F1    S    
Br2   C26   S    
C46   C47   A    
C7    F6    S    
C32   C33   A    
Br6   C49   S    
C26   C27   A    
Cu1   O11   S    
C51   N1    A    
C35   C36   A    
C17   C18   A    
C42   F2    S    
C17   C58   A    
C23   C52   A    
C51   O6    S    
C10   C27   A    
C24   C55   A    
C25   F8    S    
C21   C22   A    
C2    C5    A    
C29   F10   S    
C6    C7    A    
C20   C24   A    
C47   C48   A    
C28   O3    A    
C9    C10   A    
C5    C9    A    
C16   C41   S    
C15   C58   A    
C2    C6    A    
C38   C39   A    
Cu1   Cu2   S    
C1    C37   S    
C14   C15   A    
C44   H2    S    
C42   C48   A    
C49   N3    A    
C50   F4    S    
C46   F3    S    
C30   C36   A    
C39   C41   A    
C6    F7    S    
C54   C57   A    
C13   O5    S    
Br9   C24   S    
C33   C35   A    
C38   F11   S    
Br1   C54   S    
C25   C56   A    
C4    C57   S    
C44   C46   A    
C12   C23   A    
C53   C57   A    
C42   C43   A    
Cu1   O9    S    
C30   C31   A    
Cu2   O10   S    
C16   O11   A    
C1    O1    A    
C49   C50   A    
C36   C37   A    
C11   N2    A    
Cu1   O2    S    
C39   F15   S    
C20   C21   A    
C34   C45   A    
C23   N1    S    
Br4   C30   S    
C34   C56   A    
C8    C9    A    
C13   N2    A    
C14   C19   A    
C3    C26   A    
C1    O8    A    
C2    C20   A    
Br8   C55   S    
C31   C32   A    
C3    C5    A    
C51   C56   A    
C3    C22   A    
C21   C34   A    
C14   F5    S    
C4    O9    A    
C43   C44   A    
Cu2   O12   S    
C35   C41   A    
C37   C38   A    
C48   N3    A    
C25   C29   A    
C33   F14   S    
C8    C13   A    
C40   N1    A    
Cu2   O3    S    
Br7   C43   S    
C12   F12   S    
C16   O12   A    
Cu1   O1    S    
C22   C29   A    
C10   C11   A    
Br3   C18   S    
C27   F9    S    
C7    C8    A    
C11   O7    S    
C53   H4    S    
C17   H1    S    
C32   F13   S    
C28   C58   S    
Cu1   N4    S    
C28   O2    A    
C50   N4    A    
C40   O4    S    
C52   C53   A    
C15   H3    S    
C12   C54   A    
Cu2   O8    S    
C47   N4    A    
C45   C55   A    
Br5   C31   S    
C18   C19   A    
C19   N2    S    
C4    O10   A    
Cu2   N3    S    
C40   C45   A    
