data_mof_unit_68427.cif
_audit_creation_date              2012-12-10T16:46:02-0500
_audit_creation_method            fapswitch 2.2
_symmetry_space_group_name_H-M    P1
_symmetry_Int_Tables_number       1
_space_group_crystal_system       triclinic
_cell_length_a                    10.843632
_cell_length_b                    8.89599
_cell_length_c                    7.542131
_cell_angle_alpha                 101.766654
_cell_angle_beta                  93.433973
_cell_angle_gamma                 92.903883
_cell_volume                      709.509868525

loop_
_atom_site_label
_atom_site_type_symbol
_atom_type_description
_atom_site_fract_x
_atom_site_fract_y
_atom_site_fract_z
_atom_type_partial_charge
C1    C     C_R   0.495616 0.200853 0.455553 0.877628
C2    C     C_3   0.880761 0.495361 0.513022 0.046498
C3    C     C_3   0.938041 0.662375 0.527972 -0.478476
C4    C     C_3   0.921664 0.390774 0.337928 0.274179
C5    C     C_2   0.491066 0.034019 0.435913 -0.443577
C6    C     C_2   0.520654 0.966238 0.575714 -0.087849
C7    C     C_R   0.261379 0.498310 0.502998 0.772918
C8    C     C_R   0.508268 0.799041 0.545934 0.850412
C9    C     C_R   0.740264 0.496131 0.500397 0.792779
C10   C     C_3   0.082844 0.434104 0.673062 -0.416508
C11   C     C_3   0.939664 0.428871 0.678016 0.001185
C12   C     C_3   0.082513 0.667615 0.524278 -0.058469
C13   C     C_3   0.063964 0.399605 0.330666 -0.496816
C14   C     C_3   0.125298 0.500607 0.509735 0.062880
Cu1   Cu    Cu3+1 0.514070 0.517380 0.684380 0.904413
Cu2   Cu    Cu3+1 0.485930 0.482620 0.315620 0.922766
H1    H     H_    0.128196 0.502107 0.802214 0.183880
H2    H     H_    0.884560 0.441368 0.225212 0.130900
H3    H     H_    0.104433 0.704482 0.396494 0.134827
H4    H     H_    0.900405 0.707691 0.411262 0.148139
H5    H     H_    0.462004 0.965164 0.302232 0.165765
H6    H     H_    0.408911 0.373717 0.950130 0.220543
H7    H     H_    0.584337 0.631476 0.051224 0.225295
H8    H     H_    0.116976 0.317853 0.666332 0.137804
H9    H     H_    0.905808 0.307661 0.652218 0.155675
H10   H     H_    0.905435 0.738466 0.647882 0.192956
H11   H     H_    0.087755 0.452582 0.215010 0.149106
H12   H     H_    0.104723 0.286323 0.298230 0.163668
N1    N     N_2   0.464720 0.456420 0.038520 -0.235614
N2    N     N_2   0.535280 0.543580 0.961480 -0.243953
O1    O     O_R   0.509140 0.286130 0.619770 -0.606395
O2    O     O_R   0.485380 0.256770 0.308360 -0.584247
O3    O     O_R   0.329570 0.514650 0.655700 -0.595506
O4    O     O_R   0.305810 0.485300 0.344290 -0.588185
O5    O     O_R   0.514620 0.743230 0.691640 -0.597404
O6    O     O_R   0.490860 0.713870 0.380230 -0.600438
O7    O     O_R   0.694190 0.514700 0.655710 -0.601534
O8    O     O_R   0.670430 0.485350 0.344300 -0.588958
C15   C     C_3   0.566868 0.062506 0.762628 -0.344038
C16   C     C_3   0.621371 0.983917 0.905294 -0.454217
C17   C     C_3   0.688104 0.102397 0.054270 -0.756201
H13   H     H_    0.782561 0.125528 0.012320 0.263230
H14   H     H_    0.641570 0.212162 0.080175 0.297560
H15   H     H_    0.689745 0.055661 0.178559 0.288980
H16   H     H_    0.547384 0.923242 0.965279 0.258151
H17   H     H_    0.689929 0.906120 0.842133 0.240880
H18   H     H_    0.643576 0.143170 0.741403 0.224833
H19   H     H_    0.489392 0.126033 0.824373 0.218163
C18   C     C_3   0.903436 0.475507 0.876919 -0.356447
C19   C     C_3   0.939497 0.641581 0.977654 -0.347654
C20   C     C_3   0.826785 0.728073 0.031524 -0.904894
H20   H     H_    0.756725 0.706784 0.916843 0.290420
H21   H     H_    0.786977 0.689018 0.147324 0.245150
H22   H     H_    0.852198 0.852519 0.066916 0.245015
H23   H     H_    0.999139 0.642795 0.102257 0.185785
H24   H     H_    0.993847 0.705072 0.896887 0.237830
H25   H     H_    0.805552 0.440302 0.891718 0.230632
H26   H     H_    0.954344 0.399135 0.950921 0.141625
C21   C     C_3   0.159242 0.787421 0.677510 -0.360243
C22   C     C_3   0.108372 0.947094 0.722237 -0.392282
C23   C     C_3   0.198982 0.062395 0.850104 -0.873643
H27   H     H_    0.230201 0.015917 0.970131 0.258296
H28   H     H_    0.279980 0.089294 0.776604 0.250714
H29   H     H_    0.153214 0.170563 0.898774 0.234945
H30   H     H_    0.092685 0.987997 0.594448 0.219723
H31   H     H_    0.020975 0.942441 0.790458 0.217351
H32   H     H_    0.174150 0.744795 0.804324 0.197010
H33   H     H_    0.253246 0.803128 0.630241 0.198823
O9    O     O_3   0.861933 0.240933 0.307254 -0.610446
C24   C     C_3   0.924759 0.121101 0.364577 0.066634
H34   H     H_    0.005654 0.159565 0.459600 0.134048
H35   H     H_    0.959838 0.045752 0.245330 0.155769
C25   C     C_3   0.834301 0.029947 0.457286 -0.896324
H36   H     H_    0.793206 0.925130 0.363564 0.233668
H37   H     H_    0.879370 0.996071 0.576814 0.206368
H38   H     H_    0.758213 0.102221 0.505373 0.264503

loop_
_geom_bond_atom_site_label_1
_geom_bond_atom_site_label_2
_ccdc_geom_bond_type
C7    C14   S    
C2    C9    S    
C23   H29   S    
C2    C4    S    
C13   H12   S    
Cu1   O1    S    
N1    N2    D    
C11   C18   S    
H6    N1    S    
C21   H33   S    
Cu2   O2    S    
C7    O3    A    
C17   H13   S    
C20   H21   S    
C19   H23   S    
C20   H22   S    
C10   H8    S    
C25   H38   S    
Cu2   O4    S    
C24   C25   S    
C9    O7    A    
C2    C3    S    
C22   H31   S    
C21   C22   S    
C3    H4    S    
C13   C14   S    
Cu2   O6    S    
C16   H17   S    
C17   H14   S    
C5    C6    D    
C9    O8    A    
C1    C5    S    
C2    C11   S    
C6    C8    S    
C12   H3    S    
Cu1   O5    S    
C4    O9    S    
C7    O4    A    
C12   C14   S    
C22   H30   S    
C19   C20   S    
O9    C24   S    
C1    O2    A    
C8    O6    A    
C23   H27   S    
C17   H15   S    
C19   H24   S    
C24   H35   S    
C10   C11   S    
C25   H37   S    
C10   H1    S    
Cu1   Cu2   S    
H7    N2    S    
C18   H25   S    
C1    O1    A    
C24   H34   S    
C5    H5    S    
C16   H16   S    
Cu1   N2    S    
C15   H18   S    
C18   C19   S    
C25   H36   S    
Cu2   O8    S    
C15   C16   S    
C23   H28   S    
C11   H9    S    
C6    C15   S    
Cu1   O7    S    
C16   C17   S    
C3    C12   S    
C21   H32   S    
Cu2   N1    S    
C12   C21   S    
C4    H2    S    
Cu1   O3    S    
C3    H10   S    
C13   H11   S    
C18   H26   S    
C20   H20   S    
C4    C13   S    
C10   C14   S    
C22   C23   S    
C15   H19   S    
C8    O5    A    
