data_mof_unit_55074.cif
_audit_creation_date              2012-12-10T17:17:29-0500
_audit_creation_method            fapswitch 2.2
_symmetry_space_group_name_H-M    P1
_symmetry_Int_Tables_number       1
_space_group_crystal_system       triclinic
_cell_length_a                    10.189557
_cell_length_b                    10.586887
_cell_length_c                    12.524504
_cell_angle_alpha                 89.958003
_cell_angle_beta                  111.286446
_cell_angle_gamma                 94.956403
_cell_volume                      1253.52384096

loop_
_atom_site_label
_atom_site_type_symbol
_atom_type_description
_atom_site_fract_x
_atom_site_fract_y
_atom_site_fract_z
_atom_type_partial_charge
C1    C     C_R   0.047694 0.733447 0.487773 0.943668
C2    C     C_R   0.405154 0.392286 0.980587 -0.006734
C3    C     C_R   0.327977 0.388179 0.862184 0.039686
C4    C     C_R   0.554208 0.413040 0.017227 0.107376
C5    C     C_R   0.619708 0.417940 0.934733 0.050341
C6    C     C_R   0.541675 0.374595 0.822742 -0.228245
C7    C     C_R   0.395876 0.349182 0.788713 0.139061
C8    C     C_R   0.638659 0.438415 0.131550 -0.287268
C9    C     C_R   0.841560 0.503046 0.078729 0.459091
C10   C     C_R   0.189451 0.427572 0.823477 -0.201640
C11   C     C_2   0.064058 0.867842 0.465525 -0.148792
C12   C     C_R   0.127682 0.482742 0.709277 0.906178
C13   C     C_2   0.946512 0.929016 0.417635 0.454326
C14   C     C_2   0.903847 0.131424 0.481284 -0.377350
C15   C     C_2   0.961150 0.066591 0.420281 -0.237535
C16   C     C_2   0.433308 0.511512 0.509667 -0.151755
C17   C     C_2   0.566621 0.488673 0.490114 -0.120930
C18   C     C_R   0.945533 0.266174 0.501323 0.909502
C19   C     C_R   0.863872 0.492488 0.286100 0.873583
C20   C     C_R   0.761517 0.464533 0.965582 -0.233615
C21   C     C_R   0.781988 0.479746 0.163532 -0.176938
C22   C     C_R   0.113849 0.415795 0.897307 -0.293409
C23   C     C_R   0.181856 0.381091 0.011340 0.549450
C24   C     C_R   0.328817 0.380605 0.054949 -0.194814
H1    H     H_    0.830172 0.085131 0.516862 0.165697
H2    H     H_    0.562842 0.415767 0.427923 0.158723
H3    H     H_    0.437059 0.584431 0.571824 0.172696
H4    H     H_    0.685912 0.621674 0.603646 0.170550
H5    H     H_    0.314104 0.378028 0.396593 0.184891
H6    H     H_    0.593774 0.357257 0.763206 0.148064
H7    H     H_    0.807656 0.476953 0.900547 0.148252
H8    H     H_    0.593987 0.427881 0.197252 0.171109
H9    H     H_    0.003114 0.431461 0.866077 0.157587
H10   H     H_    0.378979 0.365014 0.145330 0.142463
H11   H     H_    0.035085 0.113035 0.384940 0.185740
N1    N     N_2   0.313640 0.446500 0.454900 -0.198883
N2    N     N_2   0.686360 0.553430 0.545150 -0.183301
O1    O     O_R   0.936910 0.692950 0.509080 -0.536556
O2    O     O_R   0.138320 0.658600 0.480130 -0.620936
O3    O     O_R   0.002900 0.525670 0.675280 -0.606532
O4    O     O_R   0.204310 0.491320 0.646330 -0.620093
O5    O     O_R   0.861680 0.341400 0.519870 -0.618891
O6    O     O_R   0.063090 0.307050 0.490920 -0.623870
O7    O     O_R   0.795690 0.508680 0.353670 -0.593958
O8    O     O_R   0.997100 0.474330 0.324720 -0.579028
Zn1   Zn    Zn3+2 0.865520 0.522940 0.519330 0.967137
Zn2   Zn    Zn3+2 0.134480 0.477060 0.480670 0.940956
O9    O     O_3   0.974392 0.564551 0.101722 -0.731286
H12   H     H_    0.002003 0.615969 0.173763 0.340999
O10   O     O_3   0.813388 0.863287 0.375282 -0.752701
H13   H     H_    0.742410 0.924855 0.341956 0.338906
N3    N     N_3   0.202951 0.935189 0.501561 -0.477594
H14   H     H_    0.279025 0.876086 0.548848 0.197507
H15   H     H_    0.224221 0.956996 0.427685 0.187734
O11   O     O_3   0.108918 0.350433 0.082606 -0.736342
H16   H     H_    0.007483 0.332861 0.034397 0.337873
N4    N     N_3   0.324666 0.262508 0.693168 -0.436586
H17   H     H_    0.327222 0.304258 0.618662 0.230984
H18   H     H_    0.219840 0.239123 0.685417 0.195456

loop_
_geom_bond_atom_site_label_1
_geom_bond_atom_site_label_2
_ccdc_geom_bond_type
C12   O3    A    
C2    C4    A    
O11   H16   S    
C19   O8    A    
C23   O11   S    
C6    C7    A    
C14   C18   S    
C9    C20   A    
C1    C11   S    
C4    C8    A    
C23   C24   A    
C10   C22   A    
C16   H3    S    
C13   C15   S    
O10   H13   S    
O4    Zn2   S    
C3    C10   A    
C17   N2    D    
C18   O6    A    
C16   N1    D    
N3    H14   S    
O3    Zn1   S    
C11   C13   D    
H5    N1    S    
C9    C21   A    
N4    H17   S    
C12   O4    A    
C10   C12   S    
H4    N2    S    
N1    Zn2   S    
C17   H2    S    
C1    O1    A    
C15   H11   S    
O9    H12   S    
C6    H6    S    
N3    H15   S    
C2    C3    A    
C3    C7    A    
O8    Zn2   S    
C14   H1    S    
C2    C24   A    
C5    C6    A    
O1    Zn1   S    
N4    H18   S    
C1    O2    A    
C13   O10   S    
C8    H8    S    
C19   O7    A    
C9    O9    S    
O2    Zn2   S    
O5    Zn1   S    
C5    C20   A    
C22   H9    S    
C14   C15   D    
C16   C17   S    
C11   N3    S    
C18   O5    A    
C19   C21   S    
N2    Zn1   S    
C22   C23   A    
O6    Zn2   S    
C7    N4    S    
C24   H10   S    
O7    Zn1   S    
C4    C5    A    
C20   H7    S    
C8    C21   A    
