data_mof_unit_59407.cif
_audit_creation_date              2012-12-11T14:13:25-0500
_audit_creation_method            fapswitch 2.2
_symmetry_space_group_name_H-M    P1
_symmetry_Int_Tables_number       1
_space_group_crystal_system       triclinic
_cell_length_a                    11.585717
_cell_length_b                    18.584773
_cell_length_c                    10.000545
_cell_angle_alpha                 89.874728
_cell_angle_beta                  110.917
_cell_angle_gamma                 90.060051
_cell_volume                      2011.38637739

loop_
_atom_site_label
_atom_site_type_symbol
_atom_type_description
_atom_site_fract_x
_atom_site_fract_y
_atom_site_fract_z
_atom_type_partial_charge
C1    C     C_R   0.070296 0.647116 0.139084 0.528488
C2    C     C_2   0.624389 0.059947 0.004107 -0.015465
C3    C     C_2   0.626095 0.439958 0.992974 -0.023062
C4    C     C_2   0.373909 0.560045 0.007038 -0.022391
C5    C     C_2   0.472088 0.963258 0.990933 -0.121707
C6    C     C_2   0.518398 0.038181 0.018175 -0.125547
C7    C     C_2   0.523977 0.462692 0.014969 -0.134373
C8    C     C_2   0.476023 0.537312 0.985030 -0.135186
C9    C     C_2   0.020043 0.926450 0.117112 -0.125835
C10   C     C_2   0.005446 0.082665 0.892975 -0.142680
C11   C     C_2   0.992142 0.422392 0.887230 -0.140737
C12   C     C_R   0.929712 0.352881 0.860919 0.525923
C13   C     C_2   0.007898 0.577595 0.112785 -0.141072
C14   C     C_2   0.028399 0.966498 0.009542 -0.179583
C15   C     C_2   0.011954 0.044192 0.008559 -0.178827
C16   C     C_2   0.992206 0.461195 0.999670 -0.175572
C17   C     C_2   0.007852 0.538790 0.000354 -0.176265
C18   C     C_R   0.435925 0.637806 0.373353 0.528741
C19   C     C_R   0.564087 0.362192 0.626677 0.529160
C20   C     C_R   0.566550 0.139686 0.634997 0.550074
C21   C     C_R   0.465275 0.855272 0.432849 0.546774
C22   C     C_R   0.352557 0.637949 0.011822 0.565517
C23   C     C_R   0.934774 0.149710 0.862860 0.526027
C24   C     C_R   0.647444 0.362052 0.988178 0.567239
C25   C     C_R   0.646050 0.137378 0.991654 0.561386
C26   C     C_R   0.351299 0.861121 0.015804 0.584983
C27   C     C_R   0.543495 0.439244 0.586815 -0.050240
C28   C     C_R   0.456535 0.560763 0.413271 -0.049534
C29   C     C_R   0.493173 0.924918 0.499780 -0.024373
C30   C     C_R   0.551521 0.061098 0.618996 -0.044644
C31   C     C_R   0.364063 0.451462 0.668791 -0.069406
C32   C     C_R   0.635969 0.548538 0.331298 -0.069681
C33   C     C_R   0.643374 0.953698 0.372820 -0.077443
C34   C     C_R   0.074291 0.854655 0.140385 0.547140
C35   C     C_R   0.365326 0.054208 0.695419 -0.071413
C36   C     C_R   0.243688 0.475535 0.639973 -0.108742
C37   C     C_R   0.756362 0.524486 0.360161 -0.109148
C38   C     C_R   0.761382 0.980715 0.395084 -0.110591
C39   C     C_R   0.263830 0.016639 0.701483 -0.135246
C40   C     C_R   0.187970 0.518690 0.521175 -0.102457
C41   C     C_R   0.812087 0.481352 0.478992 -0.101540
C42   C     C_R   0.821153 0.020305 0.518015 -0.094412
C43   C     C_R   0.251562 0.944594 0.667722 -0.108489
C44   C     C_R   0.257504 0.542508 0.441577 -0.070570
C45   C     C_R   0.432085 0.472685 0.581849 0.020721
C46   C     C_R   0.742541 0.457526 0.558570 -0.070172
C47   C     C_R   0.753878 0.040955 0.602464 -0.062415
C48   C     C_R   0.338704 0.911131 0.623415 -0.073348
C49   C     C_R   0.382845 0.526878 0.480679 0.004745
C50   C     C_R   0.617193 0.473139 0.519433 0.004763
C51   C     C_R   0.630270 0.024048 0.565442 -0.012403
C52   C     C_R   0.427676 0.951805 0.586711 -0.010881
C53   C     C_3   0.710878 0.007909 0.973289 -0.423184
C54   C     C_3   0.318513 0.984807 0.106367 -0.421031
C55   C     C_3   0.300046 0.510473 0.064414 -0.424109
C56   C     C_R   0.567947 0.527324 0.418246 0.020641
C57   C     C_3   0.699994 0.489535 0.935658 -0.425222
C58   C     C_R   0.585515 0.967201 0.474861 0.004563
C59   C     C_R   0.447810 0.023840 0.633336 0.013182
C60   C     C_2   0.374426 0.939169 0.021201 -0.026884
Cr1   Cr    Cr6+3 0.187610 0.750000 0.979860 1.002733
Cr2   Cr    Cr6+3 0.812390 0.250000 0.020140 1.012893
Cr3   Cr    Cr6+3 0.245810 0.750000 0.341640 1.011408
Cr4   Cr    Cr6+3 0.754190 0.250000 0.658360 1.035766
Cr5   Cr    Cr6+3 0.485760 0.750000 0.219910 0.997497
Cr6   Cr    Cr6+3 0.514240 0.250000 0.780090 0.989225
H1    H     H_    0.191902 0.457484 0.704884 0.101553
H2    H     H_    0.598542 0.584846 0.242629 0.157341
H3    H     H_    0.600424 0.923184 0.276361 0.163932
H4    H     H_    0.377834 0.105295 0.748203 0.170619
H5    H     H_    0.213696 0.567287 0.341733 0.139338
H6    H     H_    0.786338 0.432751 0.658424 0.137939
H7    H     H_    0.795773 0.062119 0.705367 0.127267
H8    H     H_    0.334624 0.853314 0.622858 0.165106
H9    H     H_    0.459168 0.078560 0.038875 0.149598
H10   H     H_    0.518920 0.925455 0.945183 0.150433
H11   H     H_    0.529762 0.577149 0.953174 0.152569
H12   H     H_    0.808154 0.542536 0.295255 0.101338
H13   H     H_    0.470223 0.422853 0.046797 0.154159
H14   H     H_    0.988592 0.068054 0.094865 0.170076
H15   H     H_    0.056913 0.942829 0.926811 0.163529
H16   H     H_    0.033193 0.562835 0.915392 0.170929
H17   H     H_    0.966866 0.437151 0.084634 0.171281
H18   H     H_    0.027047 0.057687 0.806810 0.088327
H19   H     H_    0.994616 0.950962 0.201319 0.102728
H20   H     H_    0.984914 0.552585 0.198454 0.090271
H21   H     H_    0.015127 0.447401 0.801562 0.090155
H22   H     H_    0.754197 0.972042 0.066443 0.134566
H23   H     H_    0.808496 0.967396 0.322532 0.105783
H24   H     H_    0.662374 0.975320 0.876809 0.127263
H25   H     H_    0.782488 0.037918 0.948636 0.130547
H26   H     H_    0.391626 0.011064 0.197194 0.141482
H27   H     H_    0.259146 0.026821 0.036425 0.143946
H28   H     H_    0.265452 0.951219 0.155392 0.137827
H29   H     H_    0.243217 0.473962 0.978633 0.143626
H30   H     H_    0.360656 0.478496 0.156348 0.134229
H31   H     H_    0.241457 0.542253 0.107928 0.120141
H32   H     H_    0.639411 0.521519 0.843717 0.133066
H33   H     H_    0.756805 0.526039 0.021465 0.143626
H34   H     H_    0.201249 0.041884 0.745359 0.100012
H35   H     H_    0.758605 0.457758 0.892173 0.119673
H36   H     H_    0.091335 0.532894 0.489544 0.106013
H37   H     H_    0.908731 0.467164 0.510652 0.106379
H38   H     H_    0.917272 0.035208 0.546714 0.112839
H39   H     H_    0.178228 0.913761 0.683597 0.140891
H40   H     H_    0.401474 0.415133 0.757424 0.156932
O1    O     O_R   0.267710 0.668200 0.902110 -0.489328
O2    O     O_R   0.883280 0.330790 0.732340 -0.532120
O3    O     O_R   0.883280 0.169210 0.732340 -0.526493
O4    O     O_R   0.116720 0.830790 0.267660 -0.509713
O5    O     O_R   0.366710 0.675440 0.427590 -0.476458
O6    O     O_R   0.633290 0.324560 0.572410 -0.465771
O7    O     O_R   0.633290 0.175440 0.572410 -0.458583
O8    O     O_R   0.366710 0.824560 0.427590 -0.510569
O9    O     O_R   0.534870 0.669390 0.371760 -0.512483
O10   O     O_R   0.465130 0.330610 0.628240 -0.507992
O11   O     O_R   0.465130 0.169390 0.628240 -0.521892
O12   O     O_R   0.732290 0.331800 0.097890 -0.482697
O13   O     O_R   0.534870 0.830610 0.371760 -0.525696
O14   O     O_R   0.453080 0.674480 0.075160 -0.527192
O15   O     O_R   0.546920 0.325520 0.924840 -0.525718
O16   O     O_R   0.546920 0.174480 0.924840 -0.532286
O17   O     O_R   0.453080 0.825520 0.075160 -0.508276
O18   O     O_3   0.306390 0.750000 0.180470 -0.311784
O19   O     O_3   0.693610 0.250000 0.819530 -0.335026
O20   O     O_R   0.732290 0.168200 0.097890 -0.482390
O21   O     O_R   0.267710 0.831800 0.902110 -0.522672
O22   O     O_R   0.099480 0.674460 0.038850 -0.512057
O23   O     O_R   0.900520 0.325540 0.961150 -0.512466
O24   O     O_R   0.900520 0.174460 0.961150 -0.514965
O25   O     O_R   0.099480 0.825540 0.038850 -0.513714
O26   O     O_R   0.116720 0.669210 0.267660 -0.532690

loop_
_geom_bond_atom_site_label_1
_geom_bond_atom_site_label_2
_ccdc_geom_bond_type
C44   C49   A    
C30   C51   A    
C33   C58   A    
Cr2   O24   S    
C1    O22   A    
C4    C8    D    
C1    O26   A    
Cr3   O18   S    
C28   C56   A    
C36   H1    S    
C7    C8    S    
C54   C60   S    
C19   O6    A    
C22   O14   A    
C38   H23   S    
Cr6   O10   S    
Cr1   O18   S    
C38   C42   A    
C3    C7    D    
C10   C15   D    
C43   H39   S    
C20   O7    A    
Cr4   O6    S    
C22   O1    A    
C57   H33   S    
C44   H5    S    
C35   C59   A    
C17   H16   S    
C11   C16   D    
Cr5   O18   S    
C39   H34   S    
C54   H27   S    
C9    H19   S    
Cr3   O8    S    
C35   H4    S    
C11   H21   S    
C16   C17   S    
Cr6   O11   S    
C13   H20   S    
C53   H25   S    
C41   C46   A    
Cr6   O16   S    
C53   H22   S    
C19   C27   S    
C25   O16   A    
C40   C44   A    
C46   H6    S    
C27   C50   A    
C33   H3    S    
C32   H2    S    
C27   C45   A    
C12   O2    A    
Cr3   O5    S    
Cr5   O9    S    
Cr2   O23   S    
C3    C24   S    
C2    C6    D    
C20   O11   A    
Cr4   O2    S    
C23   O3    A    
Cr2   O12   S    
C12   O23   A    
C48   H8    S    
C6    H9    S    
C18   C28   S    
C18   O5    A    
C47   H7    S    
C55   H29   S    
Cr2   O20   S    
C9    C14   D    
C55   H30   S    
C39   C43   A    
C8    H11   S    
Cr1   O22   S    
Cr3   O26   S    
C21   C29   S    
C16   H17   S    
C50   C56   A    
C41   H37   S    
C23   O24   A    
C35   C39   A    
C25   O20   A    
C54   H26   S    
C52   C59   A    
C4    C22   S    
C28   C49   A    
C15   H14   S    
C45   C49   A    
C30   C59   A    
C55   H31   S    
Cr5   O13   S    
Cr6   O15   S    
Cr1   O21   S    
C51   C58   A    
C32   C37   A    
C3    C57   S    
C34   O25   A    
C4    C55   S    
C9    C34   S    
C34   O4    A    
C31   H40   S    
C1    C13   S    
C26   O17   A    
C36   C40   A    
C7    H13   S    
C43   C48   A    
Cr4   O7    S    
C5    C60   D    
C14   C15   S    
C21   O8    A    
C2    C53   S    
C42   H38   S    
C18   O9    A    
Cr2   O19   S    
C47   C51   A    
C11   C12   S    
C10   C23   S    
C57   H35   S    
C37   H12   S    
C46   C50   A    
C24   O12   A    
C33   C38   A    
Cr6   O19   S    
C13   C17   D    
Cr3   O4    S    
C21   O13   A    
C20   C30   S    
Cr4   O3    S    
C5    C6    S    
C19   O10   A    
C5    H10   S    
C57   H32   S    
C10   H18   S    
C24   O15   A    
Cr5   O14   S    
C2    C25   S    
C26   O21   A    
Cr5   O17   S    
C37   C41   A    
Cr1   O1    S    
C54   H28   S    
Cr1   O25   S    
C40   H36   S    
C48   C52   A    
C42   C47   A    
C29   C58   A    
Cr4   O19   S    
C31   C45   A    
C53   H24   S    
C31   C36   A    
C14   H15   S    
C26   C60   S    
C32   C56   A    
C29   C52   A    
