data_mof_unit_46029.cif
_audit_creation_date              2012-12-10T17:06:38-0500
_audit_creation_method            fapswitch 2.2
_symmetry_space_group_name_H-M    P1
_symmetry_Int_Tables_number       1
_space_group_crystal_system       triclinic
_cell_length_a                    15.835863
_cell_length_b                    11.038904
_cell_length_c                    9.984925
_cell_angle_alpha                 111.026394
_cell_angle_beta                  99.288261
_cell_angle_gamma                 92.44115
_cell_volume                      1598.28883799

loop_
_atom_site_label
_atom_site_type_symbol
_atom_type_description
_atom_site_fract_x
_atom_site_fract_y
_atom_site_fract_z
_atom_type_partial_charge
C1    C     C_R   0.493047 0.254140 0.440802 0.712283
C2    C     C_3   0.028490 0.610344 0.483973 -0.303737
C3    C     C_3   0.011870 0.392998 0.385407 -0.309843
C4    C     C_3   0.987996 0.605774 0.614163 -0.307443
C5    C     C_1   0.250019 0.499735 0.497215 -0.163080
C6    C     C_1   0.749936 0.499844 0.502718 -0.172099
C7    C     C_3   0.042226 0.494907 0.622265 0.611648
C8    C     C_3   0.957619 0.503858 0.377306 0.614936
C9    C     C_3   0.082327 0.499419 0.494578 0.049748
C10   C     C_3   0.917545 0.499370 0.505024 0.052044
C11   C     C_1   0.174166 0.499564 0.495084 0.004093
C12   C     C_R   0.510389 0.745171 0.559769 0.763229
C13   C     C_1   0.825751 0.499561 0.504711 0.007913
C14   C     C_2   0.482429 0.113469 0.411279 0.227522
C15   C     C_2   0.533798 0.883823 0.593953 0.247966
C16   C     C_3   0.957313 0.508795 0.149101 -0.357535
C17   C     C_3   0.042156 0.489093 0.849979 -0.358203
C18   C     C_3   0.343015 0.917405 0.509487 -0.355847
C19   C     C_3   0.661051 0.152288 0.581595 -0.279465
C20   C     C_3   0.675974 0.883791 0.695632 -0.284515
C21   C     C_3   0.353174 0.053434 0.244892 -0.224194
C22   C     C_3   0.392000 0.321270 0.760374 -0.134299
C23   C     C_2   0.519378 0.070486 0.515551 0.313893
C24   C     C_3   0.526953 0.745160 0.181055 -0.178588
C25   C     C_3   0.663828 0.480930 0.909944 -0.123569
C26   C     C_3   0.344635 0.307044 0.070335 -0.117240
C27   C     C_2   0.486575 0.942951 0.515997 0.326482
C28   C     C_2   0.501547 0.521758 0.084641 0.576370
C29   C     C_2   0.483315 0.502951 0.922169 0.509389
C30   C     C_R   0.340004 0.499852 0.499294 0.783610
C31   C     C_R   0.659993 0.500255 0.500726 0.784661
C32   C     C_3   0.971355 0.388426 0.515587 -0.307427
Cu1   Cu    Cu3+1 0.514700 0.521810 0.644910 1.007944
Cu2   Cu    Cu3+1 0.485300 0.478190 0.355090 1.023055
H1    H     H_    0.946964 0.299361 0.530758 0.149420
H2    H     H_    0.083808 0.483178 0.947538 0.189715
H3    H     H_    0.280368 0.868070 0.438904 0.190700
H4    H     H_    0.339387 0.024622 0.546111 0.141911
H5    H     H_    0.352152 0.886560 0.605021 0.158707
H6    H     H_    0.676491 0.052371 0.519626 0.157698
H7    H     H_    0.713764 0.197342 0.677832 0.178525
H8    H     H_    0.660320 0.212764 0.513389 0.131796
H9    H     H_    0.686007 0.837236 0.581014 0.124836
H10   H     H_    0.671685 0.809862 0.746497 0.199602
H11   H     H_    0.733732 0.953579 0.758143 0.184186
H12   H     H_    0.052851 0.699396 0.468744 0.149204
H13   H     H_    0.343738 0.066607 0.138809 0.167140
H14   H     H_    0.334268 0.140242 0.329300 0.078594
H15   H     H_    0.308190 0.968009 0.230589 0.194715
H16   H     H_    0.338542 0.270385 0.785227 0.154321
H17   H     H_    0.451135 0.272448 0.775067 0.177566
H18   H     H_    0.370740 0.305215 0.643709 0.143220
H19   H     H_    0.457350 0.746141 0.186784 0.198715
H20   H     H_    0.538166 0.765427 0.084059 0.188222
H21   H     H_    0.563468 0.826644 0.277688 0.173042
H22   H     H_    0.733043 0.510896 0.919994 0.149926
H23   H     H_    0.022961 0.307660 0.291405 0.147993
H24   H     H_    0.641028 0.404826 0.799595 0.194797
H25   H     H_    0.657969 0.437945 0.993369 0.153223
H26   H     H_    0.307341 0.391801 0.077918 0.154287
H27   H     H_    0.348549 0.284110 0.169590 0.177658
H28   H     H_    0.308358 0.220419 0.979560 0.101112
H29   H     H_    0.976914 0.691101 0.708187 0.149967
H30   H     H_    0.987927 0.416641 0.112181 0.153576
H31   H     H_    0.006914 0.594822 0.193652 0.158422
H32   H     H_    0.915564 0.514973 0.051767 0.185737
H33   H     H_    0.992962 0.402543 0.804966 0.152258
H34   H     H_    0.011011 0.580770 0.886672 0.157159
N1    N     N_2   0.463210 0.445420 0.137360 -0.018647
N2    N     N_2   0.536790 0.554580 0.862640 -0.028931
O1    O     O_R   0.507840 0.332340 0.577400 -0.595818
O2    O     O_3   0.094122 0.489785 0.748515 -0.559521
O3    O     O_3   0.408552 0.879732 0.427418 -0.582688
O4    O     O_3   0.582564 0.149952 0.631468 -0.562823
O5    O     O_3   0.602937 0.953458 0.704912 -0.539346
O6    O     O_3   0.438433 0.024553 0.277460 -0.569559
O7    O     O_3   0.399534 0.456228 0.846934 -0.588406
O8    O     O_3   0.557942 0.627357 0.182675 -0.583233
O9    O     O_3   0.618884 0.592558 0.936268 -0.501546
O10   O     O_3   0.426852 0.327500 0.040963 -0.531986
O11   O     O_R   0.492160 0.667660 0.422600 -0.539504
O12   O     O_R   0.483020 0.295500 0.332650 -0.542005
O13   O     O_R   0.516980 0.704500 0.667350 -0.559375
O14   O     O_R   0.391490 0.518400 0.622350 -0.525045
O15   O     O_R   0.608510 0.481600 0.377650 -0.529143
O16   O     O_R   0.366660 0.481570 0.377600 -0.609667
O17   O     O_R   0.633340 0.518430 0.622400 -0.578643
O18   O     O_3   0.905593 0.508997 0.251168 -0.561764

loop_
_geom_bond_atom_site_label_1
_geom_bond_atom_site_label_2
_ccdc_geom_bond_type
C15   O5    S    
C31   O15   A    
C28   N1    D    
C25   H22   S    
C21   H15   S    
C2    H12   S    
C24   H21   S    
C4    H29   S    
C1    O1    A    
C28   C29   S    
C26   H27   S    
C5    C11   T    
C24   H20   S    
Cu2   O16   S    
Cu2   O11   S    
C23   C27   S    
C30   O16   A    
C28   O8    S    
C20   H11   S    
C19   H8    S    
C22   H16   S    
C21   H14   S    
C6    C31   S    
C26   H28   S    
C30   O14   A    
C4    C7    S    
C20   H10   S    
C17   H33   S    
C31   O17   A    
C32   H1    S    
C3    C8    S    
C7    O2    S    
C1    O12   A    
C26   O10   S    
C12   O13   A    
C8    O18   S    
Cu2   O15   S    
C14   O6    S    
C14   C23   D    
C2    C4    S    
C18   H5    S    
C3    C9    S    
C16   H30   S    
Cu1   O13   S    
C15   C27   D    
C21   O6    S    
C12   C15   S    
Cu1   Cu2   S    
C9    C11   S    
Cu2   N1    S    
Cu1   N2    S    
C3    H23   S    
C24   O8    S    
C17   H2    S    
C18   O3    S    
C16   H32   S    
C25   H24   S    
C23   O4    S    
C4    C10   S    
C20   H9    S    
C22   H18   S    
C29   N2    D    
C7    C9    S    
C17   H34   S    
C7    C32   S    
N2    O9    S    
C25   O9    S    
C18   H3    S    
C19   O4    S    
C2    C8    S    
C22   O7    S    
C10   C13   S    
C16   H31   S    
C24   H19   S    
Cu2   O12   S    
Cu1   O17   S    
C6    C13   T    
C12   O11   A    
C18   H4    S    
C3    C32   S    
Cu1   O14   S    
C19   H6    S    
Cu1   O1    S    
C10   C32   S    
C29   O7    S    
C20   O5    S    
C17   O2    S    
C8    C10   S    
C5    C30   S    
C16   O18   S    
N1    O10   S    
C1    C14   S    
C25   H25   S    
C27   O3    S    
C2    C9    S    
C26   H26   S    
C19   H7    S    
C22   H17   S    
C21   H13   S    
