data_mof_unit_11587.cif
_audit_creation_date              2012-12-11T15:54:59-0500
_audit_creation_method            fapswitch 2.2
_symmetry_space_group_name_H-M    P1
_symmetry_Int_Tables_number       1
_space_group_crystal_system       triclinic
_cell_length_a                    17.830974
_cell_length_b                    24.413169
_cell_length_c                    15.193913
_cell_angle_alpha                 90.082344
_cell_angle_beta                  126.793766
_cell_angle_gamma                 89.926086
_cell_volume                      5296.51904134

loop_
_atom_site_label
_atom_site_type_symbol
_atom_type_description
_atom_site_fract_x
_atom_site_fract_y
_atom_site_fract_z
_atom_type_partial_charge
C1    C     C_R   0.909685 0.869246 0.092245 -0.050555
C2    C     C_R   0.143111 0.846588 0.093166 0.498257
C3    C     C_R   0.323616 0.647050 0.000245 0.008551
C4    C     C_R   0.690919 0.999779 0.637631 0.072330
C5    C     C_R   0.192487 0.500911 0.634818 0.029049
C6    C     C_R   0.029733 0.999564 0.345012 0.113983
C7    C     C_R   0.539834 0.500147 0.351565 0.151461
C8    C     C_R   0.265893 0.954801 0.239788 -0.073272
C9    C     C_R   0.264634 0.046464 0.240325 -0.006401
C10   C     C_R   0.764823 0.453508 0.240419 -0.057079
C11   C     C_R   0.765579 0.545181 0.239353 -0.018270
C12   C     C_R   0.958616 0.045582 0.700544 -0.068456
C13   C     C_R   0.643884 0.653296 0.093100 0.502779
C14   C     C_R   0.960114 0.953762 0.701962 -0.038690
C15   C     C_R   0.468572 0.546412 0.707400 -0.078823
C16   C     C_R   0.464743 0.454313 0.704067 -0.031426
C17   C     C_R   0.642511 0.346337 0.092567 0.499746
C18   C     C_R   0.320824 0.001235 0.265180 -0.044754
C19   C     C_R   0.820532 0.498813 0.263947 -0.048237
C20   C     C_R   0.948782 0.999422 0.641989 0.182834
C21   C     C_R   0.459493 0.500682 0.648627 0.122668
C22   C     C_R   0.115046 0.815122 0.001415 -0.120219
C23   C     C_R   0.115186 0.184870 0.000574 -0.137954
C24   C     C_R   0.614579 0.315046 0.000586 -0.115004
C25   C     C_R   0.908180 0.129385 0.092082 -0.043459
C26   C     C_R   0.615577 0.684653 0.001205 -0.146118
C27   C     C_3   0.937955 0.046417 0.395115 -0.524619
C28   C     C_3   0.955175 0.945661 0.409900 -0.596692
C29   C     C_3   0.468253 0.554586 0.419278 -0.541205
C30   C     C_3   0.447397 0.454120 0.401095 -0.546950
C31   C     C_3   0.920953 0.051128 0.482023 0.433820
C32   C     C_3   0.931623 0.943985 0.491137 0.430356
C33   C     C_3   0.444075 0.556400 0.499532 0.438858
C34   C     C_3   0.432240 0.448803 0.489214 0.486621
C35   C     C_3   0.102626 0.004019 0.547501 0.855554
C36   C     C_R   0.407618 0.371337 0.091988 -0.044348
C37   C     C_3   0.613569 0.494690 0.554524 0.885357
C38   C     C_3   0.009840 0.999262 0.425304 -0.034427
C39   C     C_3   0.520841 0.500409 0.432612 -0.088320
C40   C     C_3   0.962879 0.999235 0.557341 -0.134090
C41   C     C_3   0.474148 0.500757 0.564746 -0.158493
C42   C     C_R   0.813926 0.129109 0.906685 -0.150309
C43   C     C_R   0.815550 0.869117 0.906835 -0.153193
C44   C     C_R   0.314780 0.630014 0.907363 -0.143419
C45   C     C_R   0.313743 0.371165 0.906516 -0.148309
C46   C     C_3   0.072062 0.003083 0.623770 -0.697907
C47   C     C_R   0.408814 0.629565 0.092664 -0.042542
C48   C     C_3   0.583343 0.496320 0.631298 -0.701970
C49   C     C_3   0.662523 0.171602 0.936852 -0.381912
C50   C     C_3   0.665875 0.827624 0.940243 -0.380581
C51   C     C_3   0.163941 0.671960 0.938329 -0.377867
C52   C     C_3   0.162305 0.328663 0.937263 -0.375431
C53   C     C_3   0.105778 0.720002 0.934298 -0.427553
C54   C     C_3   0.104661 0.280371 0.933468 -0.420786
C55   C     C_3   0.604579 0.219868 0.932710 -0.420657
C56   C     C_3   0.607298 0.780032 0.936493 -0.423700
C57   C     C_3   0.272397 0.741188 0.944242 -0.476114
C58   C     C_R   0.054128 0.847245 0.909365 0.047516
C59   C     C_3   0.270875 0.259875 0.941919 -0.458288
C60   C     C_3   0.771502 0.240510 0.943218 -0.469459
C61   C     C_3   0.770487 0.757780 0.939515 -0.466941
C62   C     C_3   0.804644 0.204630 0.118715 -0.446240
C63   C     C_3   0.809137 0.792340 0.118635 -0.459194
C64   C     C_3   0.306037 0.705213 0.119944 -0.443985
C65   C     C_3   0.305110 0.295412 0.118206 -0.443834
C66   C     C_3   0.765687 0.189509 0.999372 0.276682
C67   C     C_3   0.768091 0.808447 0.999270 0.284767
C68   C     C_3   0.266944 0.690130 0.000570 0.276614
C69   C     C_R   0.054215 0.152550 0.908897 0.048075
C70   C     C_3   0.265453 0.310795 0.998906 0.263800
C71   C     C_3   0.170454 0.769676 0.001690 0.089707
C72   C     C_3   0.169788 0.230737 0.000203 0.080784
C73   C     C_3   0.669588 0.269371 0.000577 0.086100
C74   C     C_3   0.671117 0.729617 0.000677 0.093622
C75   C     C_3   0.219916 0.789474 0.949176 0.445464
C76   C     C_3   0.218751 0.211401 0.946789 0.452980
C77   C     C_3   0.719472 0.288998 0.948469 0.441998
C78   C     C_3   0.717603 0.709831 0.944506 0.458491
C79   C     C_3   0.245412 0.748565 0.119639 -0.233523
C80   C     C_R   0.554024 0.347370 0.908892 0.042960
C81   C     C_3   0.245209 0.251744 0.118009 -0.234962
C82   C     C_3   0.744112 0.248028 0.118402 -0.235720
C83   C     C_3   0.748654 0.749381 0.118712 -0.248333
C84   C     C_3   0.475563 0.957568 0.344049 -0.468995
C85   C     C_3   0.469158 0.057500 0.370850 -0.357447
C86   C     C_3   0.970117 0.444431 0.362411 -0.411104
C87   C     C_3   0.972980 0.544787 0.342559 -0.334256
C88   C     C_R   0.739555 0.954104 0.700064 -0.089749
C89   C     C_R   0.743668 0.045340 0.696226 -0.136201
C90   C     C_R   0.244255 0.455044 0.694965 -0.088060
C91   C     C_R   0.553872 0.652719 0.909257 0.035500
C92   C     C_R   0.240458 0.546092 0.699687 -0.148912
C93   C     C_3   0.581048 0.961800 0.441892 -0.090186
C94   C     C_3   0.563402 0.060289 0.485379 -0.160630
C95   C     C_3   0.069103 0.442860 0.472263 -0.152088
C96   C     C_3   0.077079 0.545386 0.443120 -0.146558
C97   C     C_3   0.427227 0.989032 0.462774 -0.310746
C98   C     C_3   0.928092 0.507623 0.461578 -0.318905
C99   C     C_3   0.421114 0.001630 0.357638 0.276124
C100  C     C_3   0.921196 0.498629 0.355039 0.241612
C101  C     C_3   0.594112 0.000286 0.534332 0.247235
C102  C     C_R   0.143015 0.153628 0.092599 0.494506
C103  C     C_3   0.095237 0.500856 0.530752 0.253213
C104  C     C_3   0.528386 0.980287 0.562238 -0.425499
C105  C     C_3   0.029370 0.511910 0.563058 -0.401662
C106  C     C_R   0.030806 0.045537 0.293466 -0.024031
C107  C     C_R   0.031467 0.953924 0.293145 -0.035080
C108  C     C_R   0.536843 0.545750 0.296605 -0.041146
C109  C     C_R   0.537717 0.454340 0.297454 -0.040014
C110  C     C_R   0.824945 0.851370 0.999485 0.017426
C111  C     C_R   0.822492 0.146317 0.999367 0.010894
C112  C     C_R   0.322059 0.354170 0.999087 0.016083
H1    H     H_    0.942148 0.860061 0.177206 0.106265
H2    H     H_    0.975375 0.910625 0.549967 0.098509
H3    H     H_    0.458599 0.412012 0.680060 0.136157
H4    H     H_    0.959449 0.087151 0.385894 0.192609
H5    H     H_    0.994396 0.908023 0.420831 0.213877
H6    H     H_    0.509104 0.591742 0.432338 0.214840
H7    H     H_    0.466640 0.413274 0.388786 0.199367
H8    H     H_    0.828536 0.144449 0.520655 0.330335
H9    H     H_    0.819553 0.850458 0.343856 0.337928
H10   H     H_    0.283289 0.555613 0.530564 0.358741
H11   H     H_    0.256673 0.350739 0.443276 0.386027
H12   H     H_    0.278864 0.049719 0.555377 0.384900
H13   H     H_    0.488388 0.589400 0.559180 0.102784
H14   H     H_    0.190576 0.860223 0.613888 0.391746
H15   H     H_    0.706338 0.637387 0.623604 0.388209
H16   H     H_    0.754251 0.396794 0.521936 0.387836
H17   H     H_    0.291313 0.932026 0.052779 0.382070
H18   H     H_    0.375925 0.105661 0.970621 0.398538
H19   H     H_    0.792508 0.430994 0.054865 0.381113
H20   H     H_    0.868346 0.602069 0.960240 0.399332
H21   H     H_    0.581321 0.884248 0.498344 0.110402
H22   H     H_    0.615207 0.886025 0.416527 0.219977
H23   H     H_    0.591013 0.087481 0.635268 0.107183
H24   H     H_    0.475860 0.413350 0.540706 0.107779
H25   H     H_    0.571595 0.137374 0.547428 0.136531
H26   H     H_    0.016089 0.399129 0.542502 0.144566
H27   H     H_    0.072598 0.360863 0.506915 0.145309
H28   H     H_    0.080813 0.612953 0.532393 0.116720
H29   H     H_    0.169012 0.612088 0.517085 0.180462
H30   H     H_    0.945689 0.796156 0.807682 0.122414
H31   H     H_    0.011036 0.813383 0.763563 0.108124
H32   H     H_    0.945385 0.203301 0.806653 0.121352
H33   H     H_    0.011124 0.186206 0.762978 0.099298
H34   H     H_    0.445317 0.296624 0.806292 0.126537
H35   H     H_    0.098510 0.040121 0.677252 0.238504
H36   H     H_    0.511207 0.313831 0.762933 0.115466
H37   H     H_    0.445125 0.704146 0.810459 0.124226
H38   H     H_    0.508187 0.687370 0.763213 0.110685
H39   H     H_    0.154041 0.150324 0.341177 0.404063
H40   H     H_    0.102762 0.755384 0.251110 0.396969
H41   H     H_    0.665239 0.647572 0.347714 0.390526
H42   H     H_    0.600074 0.254505 0.247878 0.399541
H43   H     H_    0.105592 0.968289 0.682744 0.251555
H44   H     H_    0.617259 0.531184 0.690134 0.255473
H45   H     H_    0.609462 0.459358 0.684867 0.238973
H46   H     H_    0.633401 0.158453 0.851763 0.163107
H47   H     H_    0.635418 0.841341 0.855122 0.164642
H48   H     H_    0.134729 0.658830 0.853205 0.164255
H49   H     H_    0.940102 0.138424 0.176972 0.108686
H50   H     H_    0.132697 0.341840 0.852098 0.163879
H51   H     H_    0.657730 0.136049 0.979033 0.196676
H52   H     H_    0.663607 0.863080 0.984741 0.196615
H53   H     H_    0.159497 0.636334 0.980642 0.197038
H54   H     H_    0.157795 0.364196 0.979875 0.200570
H55   H     H_    0.565674 0.206613 0.965131 0.229479
H56   H     H_    0.571041 0.793511 0.972178 0.227602
H57   H     H_    0.067288 0.706608 0.967169 0.228003
H58   H     H_    0.066559 0.293538 0.967027 0.228952
H59   H     H_    0.053027 0.730775 0.846889 0.163129
H60   H     H_    0.438999 0.363193 0.177117 0.108672
H61   H     H_    0.051564 0.269557 0.846091 0.163542
H62   H     H_    0.552169 0.230820 0.845311 0.165060
H63   H     H_    0.552689 0.769978 0.849070 0.164106
H64   H     H_    0.240402 0.732279 0.856475 0.136368
H65   H     H_    0.238547 0.269009 0.854170 0.142894
H66   H     H_    0.739376 0.231573 0.855411 0.141613
H67   H     H_    0.736985 0.767513 0.851709 0.136693
H68   H     H_    0.757890 0.137710 0.821531 0.101914
H69   H     H_    0.760306 0.859479 0.822088 0.102457
H70   H     H_    0.259290 0.639801 0.822858 0.102737
H71   H     H_    0.440833 0.638134 0.177807 0.109698
H72   H     H_    0.257732 0.362638 0.821270 0.108756
H73   H     H_    0.165459 0.802162 0.863055 0.049294
H74   H     H_    0.164169 0.198805 0.860656 0.056627
H75   H     H_    0.665295 0.301936 0.862447 0.054582
H76   H     H_    0.661662 0.697955 0.858326 0.048966
H77   H     H_    0.877151 0.221089 0.163849 0.218224
H78   H     H_    0.881165 0.775410 0.161336 0.213740
H79   H     H_    0.378564 0.721636 0.165014 0.216502
H80   H     H_    0.377772 0.279204 0.162810 0.211621
H81   H     H_    0.806766 0.167876 0.163621 0.183419
H82   H     H_    0.871793 0.037604 0.312851 0.229910
H83   H     H_    0.813091 0.828732 0.165673 0.159193
H84   H     H_    0.308198 0.668447 0.164844 0.190089
H85   H     H_    0.307148 0.332007 0.163577 0.186541
H86   H     H_    0.709605 0.229151 0.152042 0.251085
H87   H     H_    0.716846 0.768365 0.155592 0.241734
H88   H     H_    0.211274 0.729722 0.153761 0.252343
H89   H     H_    0.211494 0.270411 0.152862 0.245995
H90   H     H_    0.291693 0.782197 0.173948 0.228831
H91   H     H_    0.291977 0.218023 0.171385 0.231698
H92   H     H_    0.790482 0.281547 0.173102 0.229051
H93   H     H_    0.890645 0.943331 0.323595 0.208779
H94   H     H_    0.794631 0.714982 0.170314 0.232380
H95   H     H_    0.347212 0.751373 0.984110 0.232989
H96   H     H_    0.345639 0.249721 0.981271 0.236978
H97   H     H_    0.846376 0.250493 0.983012 0.233238
H98   H     H_    0.844581 0.746832 0.976796 0.235933
H99   H     H_    0.447812 0.916246 0.340649 0.195302
H100  H     H_    0.427407 0.093558 0.361491 0.188232
H101  H     H_    0.931078 0.407673 0.356363 0.182713
H102  H     H_    0.940079 0.584999 0.334358 0.190609
H103  H     H_    0.466024 0.963421 0.265250 0.207670
H104  H     H_    0.403882 0.557868 0.332858 0.216639
H105  H     H_    0.480105 0.061751 0.306300 0.202749
H106  H     H_    0.974568 0.441475 0.292514 0.204748
H107  H     H_    0.967019 0.539011 0.265867 0.197395
H108  H     H_    0.617825 0.981485 0.411516 0.234182
H109  H     H_    0.616132 0.077557 0.476049 0.180275
H110  H     H_    0.119697 0.433364 0.454225 0.196654
H111  H     H_    0.119348 0.533595 0.414213 0.201703
H112  H     H_    0.723347 0.911605 0.677742 0.109393
H113  H     H_    0.734142 0.087110 0.667924 0.104222
H114  H     H_    0.236979 0.413537 0.666667 0.122506
H115  H     H_    0.380814 0.464385 0.320232 0.234993
H116  H     H_    0.224844 0.588653 0.680796 0.095080
H117  H     H_    0.387007 0.951661 0.452526 0.191971
H118  H     H_    0.396567 0.023736 0.479202 0.189779
H119  H     H_    0.893519 0.473102 0.472405 0.195044
H120  H     H_    0.891169 0.545813 0.455794 0.193606
H121  H     H_    0.540444 0.936252 0.585181 0.167874
H122  H     H_    0.541202 0.002241 0.634280 0.176455
H123  H     H_    0.042185 0.482227 0.626258 0.178603
H124  H     H_    0.042087 0.552695 0.601990 0.165339
H125  H     H_    0.039617 0.087391 0.320281 0.161429
H126  H     H_    0.963276 0.086815 0.533953 0.082534
H127  H     H_    0.042293 0.911897 0.319621 0.162386
H128  H     H_    0.546075 0.587833 0.322016 0.140214
H129  H     H_    0.548581 0.412333 0.324324 0.178083
H130  H     H_    0.288406 0.912614 0.253631 0.156865
H131  H     H_    0.282420 0.089119 0.249096 0.147781
H132  H     H_    0.783541 0.410874 0.251070 0.151230
H133  H     H_    0.787411 0.587403 0.252604 0.148622
H134  H     H_    0.951893 0.087898 0.676693 0.096567
H135  H     H_    0.954100 0.911196 0.679739 0.127849
H136  H     H_    0.467771 0.589028 0.688681 0.148260
N1    N     N_R   0.950530 0.896220 0.057200 -0.035853
N2    N     N_R   0.818150 0.028600 0.792440 -0.050480
N3    N     N_R   0.318150 0.471400 0.792440 -0.054338
N4    N     N_R   0.318150 0.528600 0.792440 -0.042655
N5    N     N_R   0.025710 0.028600 0.207560 -0.056395
N6    N     N_R   0.025710 0.971400 0.207560 -0.061857
N7    N     N_R   0.525710 0.528600 0.207560 -0.056559
N8    N     N_R   0.525710 0.471400 0.207560 -0.064867
N9    N     N_R   0.181850 0.971400 0.207560 -0.028347
N10   N     N_R   0.181850 0.028600 0.207560 -0.028917
N11   N     N_R   0.681850 0.471400 0.207560 -0.029885
N12   N     N_R   0.950530 0.103780 0.057200 -0.030397
N13   N     N_R   0.681850 0.528600 0.207560 -0.025129
N14   N     N_R   0.974290 0.028600 0.792440 -0.047179
N15   N     N_R   0.974290 0.971400 0.792440 -0.051000
N16   N     N_R   0.474290 0.528600 0.792440 -0.046653
N17   N     N_R   0.474290 0.471400 0.792440 -0.051001
N18   N     N_R   0.049470 0.896220 0.942800 -0.056889
N19   N     N_R   0.049470 0.103780 0.942800 -0.060521
N20   N     N_R   0.549470 0.396220 0.942800 -0.056726
N21   N     N_R   0.549470 0.603780 0.942800 -0.058354
N22   N     N_R   0.106670 0.103780 0.057200 -0.089450
N23   N     N_R   0.450530 0.396220 0.057200 -0.033465
N24   N     N_R   0.106670 0.896220 0.057200 -0.090796
N25   N     N_R   0.606670 0.603780 0.057200 -0.087709
N26   N     N_R   0.606670 0.396220 0.057200 -0.091289
N27   N     N_3   0.620463 0.906714 0.480379 -0.175148
N28   N     N_3   0.551411 0.097972 0.552402 -0.191994
N29   N     N_3   0.074039 0.398413 0.541182 -0.227405
N30   N     N_3   0.099628 0.602419 0.481527 -0.186122
N31   N     N_3   0.981740 0.827768 0.801457 -0.210545
N32   N     N_3   0.981857 0.171759 0.800771 -0.222381
N33   N     N_3   0.481754 0.328205 0.800651 -0.211724
N34   N     N_R   0.450530 0.603780 0.057200 -0.031596
N35   N     N_3   0.480218 0.672592 0.802269 -0.204607
N36   N     N_R   0.893330 0.103780 0.942800 -0.055335
N37   N     N_R   0.893330 0.896220 0.942800 -0.056543
N38   N     N_R   0.393330 0.603780 0.942800 -0.054873
N39   N     N_R   0.393330 0.396220 0.942800 -0.057128
N40   N     N_R   0.818150 0.971400 0.792440 -0.052572
Ni1   Ni    Ni4+2 0.065600 0.934400 0.131190 0.346605
Ni2   Ni    Ni4+2 0.065600 0.065600 0.131190 0.334243
Ni3   Ni    Ni4+2 0.565600 0.434400 0.131190 0.343790
Ni4   Ni    Ni4+2 0.565600 0.565600 0.131190 0.333098
Ni5   Ni    Ni4+2 0.934400 0.065600 0.868810 0.228054
Ni6   Ni    Ni4+2 0.934400 0.934400 0.868810 0.241169
Ni7   Ni    Ni4+2 0.434400 0.565600 0.868810 0.235396
Ni8   Ni    Ni4+2 0.434400 0.434400 0.868810 0.231885
O1    O     O_2   0.735458 0.060088 0.303387 -0.201145
O2    O     O_2   0.274926 0.458607 0.482237 -0.350180
O3    O     O_2   0.249181 0.430756 0.311257 -0.232296
O4    O     O_3   0.320809 0.360314 0.468865 -0.531511
O5    O     O_2   0.109276 0.117048 0.540256 -0.321776
O6    O     O_2   0.247376 0.071231 0.693751 -0.220042
O7    O     O_3   0.215418 0.065544 0.503830 -0.522066
O8    O     O_2   0.210525 0.943012 0.509534 -0.292625
O9    O     O_2   0.272511 0.958221 0.700576 -0.212904
O10   O     O_3   0.140619 0.887436 0.590478 -0.587884
O11   O     O_2   0.785995 0.538102 0.706397 -0.202877
O12   O     O_2   0.765854 0.043590 0.480554 -0.305392
O13   O     O_2   0.720667 0.554700 0.514664 -0.285528
O14   O     O_3   0.656259 0.610634 0.601931 -0.593605
O15   O     O_2   0.756179 0.425848 0.698179 -0.202051
O16   O     O_2   0.616068 0.381674 0.542747 -0.351813
O17   O     O_3   0.724109 0.433011 0.508732 -0.502120
O18   O     O_2   0.379293 0.835557 0.129701 -0.313549
O19   O     O_2   0.335101 0.860561 0.948853 -0.229323
O20   O     O_3   0.241865 0.903950 0.010637 -0.559754
O21   O     O_2   0.380434 0.165886 0.125080 -0.313614
O22   O     O_2   0.247432 0.103604 0.011205 -0.320846
O23   O     O_3   0.801231 0.139564 0.442053 -0.496891
O24   O     O_3   0.334623 0.137950 0.934288 -0.474641
O25   O     O_2   0.879305 0.334313 0.129597 -0.315098
O26   O     O_2   0.835451 0.359832 0.949120 -0.216693
O27   O     O_3   0.742637 0.403280 0.011445 -0.560883
O28   O     O_2   0.880077 0.662933 0.118694 -0.311089
O29   O     O_2   0.744680 0.601893 0.008438 -0.322919
O30   O     O_3   0.827500 0.634630 0.925125 -0.492623
O31   O     O_2   0.264803 0.194329 0.299592 -0.321025
O32   O     O_2   0.103818 0.229881 0.187502 -0.288889
O33   O     O_3   0.136040 0.133244 0.271817 -0.564106
O34   O     O_2   0.782894 0.930111 0.497078 -0.281828
O35   O     O_2   0.263080 0.807318 0.301392 -0.306006
O36   O     O_2   0.133764 0.862987 0.261874 -0.327182
O37   O     O_3   0.095948 0.764531 0.183153 -0.545230
O38   O     O_2   0.768702 0.692947 0.300377 -0.330463
O39   O     O_2   0.608494 0.729588 0.191691 -0.278276
O40   O     O_3   0.639955 0.632559 0.274184 -0.572661
O41   O     O_2   0.761162 0.306116 0.300245 -0.319436
O42   O     O_2   0.632146 0.362125 0.260569 -0.338327
O43   O     O_3   0.593524 0.264018 0.180221 -0.540764
O44   O     O_2   0.745244 0.950263 0.317101 -0.223276
O45   O     O_3   0.807486 0.853751 0.399366 -0.481808
O46   O     O_2   0.317775 0.635166 0.378287 -0.248890
O47   O     O_2   0.255210 0.542787 0.340713 -0.208917
O48   O     O_3   0.300378 0.591855 0.518740 -0.558916
S1    S     S_3+6 0.801727 0.071543 0.424560 -0.002489
S2    S     S_3+6 0.296910 0.152942 0.009876 -0.052388
S3    S     S_3+6 0.798121 0.347220 0.013116 -0.046265
S4    S     S_3+6 0.794129 0.650541 0.004750 -0.059424
S5    S     S_3+6 0.163489 0.179919 0.214913 -0.085641
S6    S     S_3+6 0.161782 0.820914 0.214672 -0.086037
S7    S     S_3+6 0.666861 0.679257 0.216891 -0.086593
S8    S     S_3+6 0.660137 0.320176 0.213194 -0.093564
S9    S     S_3+6 0.812510 0.921290 0.424340 -0.011719
S10   S     S_3+6 0.325591 0.581028 0.430217 -0.006458
S11   S     S_3+6 0.314532 0.426507 0.434482 -0.028183
S12   S     S_3+6 0.168865 0.066691 0.572916 -0.015175
S13   S     S_3+6 0.184697 0.947564 0.586980 -0.030692
S14   S     S_3+6 0.697275 0.550104 0.594360 -0.012868
S15   S     S_3+6 0.677523 0.431289 0.577666 -0.011751
S16   S     S_3+6 0.297941 0.848011 0.013056 -0.049352

loop_
_geom_bond_atom_site_label_1
_geom_bond_atom_site_label_2
_ccdc_geom_bond_type
C59   H96   S    
C95   N29   S    
C74   C83   S    
C40   C46   S    
C46   H43   S    
C93   H108  S    
O44   S9    D    
C82   H86   S    
C83   H94   S    
C88   N40   A    
C75   S16   S    
C20   C40   S    
C29   C33   S    
C25   N12   A    
C3    C68   S    
C42   H68   S    
C35   S13   S    
C2    C22   A    
C94   H109  S    
H42   O43   S    
C43   C110  A    
N40   Ni6   S    
C13   N25   A    
C80   N33   S    
C9    N10   A    
C105  H123  S    
C106  N5    A    
C1    H1    S    
N23   Ni3   S    
N12   N36   A    
C90   H114  S    
O34   S9    D    
N12   Ni2   S    
C95   H110  S    
O42   S8    D    
C89   N2    A    
C27   C31   S    
C11   H133  S    
H28   N30   S    
C28   C32   S    
C47   H71   S    
C49   C66   S    
C93   C101  S    
C62   C66   S    
C31   S1    S    
N17   Ni8   S    
O7    S12   S    
C107  N6    A    
C76   S2    S    
C69   N19   A    
C47   N34   A    
C1    C110  A    
C34   H24   S    
O38   S7    D    
N1    Ni1   S    
C12   C20   A    
C33   H13   S    
C6    C106  A    
N14   Ni5   S    
C12   N14   A    
H34   N33   S    
C70   C112  S    
C98   H120  S    
N34   Ni4   S    
C61   H67   S    
C108  N7    A    
C64   C79   S    
C53   C71   S    
C16   H3    S    
C4    C89   A    
H17   O20   S    
O6    S12   D    
C79   H88   S    
C23   C72   S    
H27   N29   S    
O30   S4    S    
N11   N13   A    
O5    S12   D    
C22   C58   A    
O26   S3    D    
C33   S10   S    
O22   S2    D    
N15   Ni6   S    
C84   C93   S    
O46   S10   D    
N21   Ni7   S    
C86   C95   S    
C15   H136  S    
N20   N26   A    
C37   S15   S    
C7    C39   S    
C10   N11   A    
C45   H72   S    
C61   H98   S    
C5    C103  S    
C16   C21   A    
O15   S15   D    
O33   S5    S    
C71   C79   S    
C84   H99   S    
N9    Ni1   S    
N3    Ni8   S    
C64   C68   S    
H10   O48   S    
N5    N6    A    
N19   N22   A    
C1    N1    A    
C65   C70   S    
N13   Ni4   S    
H40   O37   S    
N9    N10   A    
C86   H106  S    
C25   H49   S    
N16   N17   A    
C106  H125  S    
C88   H112  S    
C91   N35   S    
N16   Ni7   S    
C8    H130  S    
C50   C67   S    
C16   N17   A    
H38   N35   S    
H20   O30   S    
N2    Ni5   S    
H22   N27   S    
C29   C39   S    
N11   Ni3   S    
H31   N31   S    
C95   C103  S    
C92   N4    A    
C3    C44   A    
C36   H60   S    
H36   N33   S    
C30   C34   S    
C35   C38   S    
C49   C55   S    
C43   H69   S    
C50   C56   S    
C51   C53   S    
N20   Ni8   S    
C85   C99   S    
N24   Ni1   S    
C61   C67   S    
C67   C110  S    
C97   H118  S    
C96   H111  S    
H37   N35   S    
C103  C105  S    
C27   H82   S    
C58   N31   S    
C13   S7    S    
C31   H126  S    
C13   C26   A    
C51   H53   S    
C18   C99   S    
C57   C68   S    
O29   S4    D    
C32   S9    S    
C87   C100  S    
C14   H135  S    
O25   S3    D    
C73   C77   S    
C80   N20   A    
O16   S15   D    
N14   N15   A    
C4    C88   A    
C63   H78   S    
C2    N24   A    
C90   N3    A    
C109  N8    A    
C57   C75   S    
H12   O7    S    
O2    S11   D    
C12   H134  S    
O8    S13   D    
C64   H84   S    
C3    C47   A    
C87   H102  S    
C30   C39   S    
C62   C82   S    
H19   O27   S    
C49   H51   S    
C25   C111  A    
C55   C73   S    
C9    C18   A    
C78   H76   S    
O35   S6    D    
C59   C76   S    
N8    Ni3   S    
C52   H50   S    
C9    H131  S    
O1    S1    D    
H21   N27   S    
N4    Ni7   S    
C54   H58   S    
N5    Ni2   S    
C55   H55   S    
C34   S11   S    
N3    N4    A    
C17   S8    S    
C11   C19   A    
O19   S16   D    
O3    S11   D    
H29   N30   S    
C93   N27   S    
C94   N28   S    
O4    S11   S    
C24   C73   S    
C27   C38   S    
C60   H66   S    
C51   H48   S    
C31   C40   S    
H8    O23   S    
N19   Ni5   S    
C77   S3    S    
O36   S6    D    
N37   Ni6   S    
C36   C112  A    
C6    C107  A    
C66   C111  S    
H41   O40   S    
C86   C100  S    
C60   H97   S    
C72   C81   S    
C84   H103  S    
C53   H57   S    
N10   Ni2   S    
C48   H44   S    
C60   C66   S    
C28   H93   S    
O12   S1    D    
C34   C41   S    
C62   H77   S    
C56   C74   S    
C14   C20   A    
C10   H132  S    
C81   H89   S    
C26   C91   A    
C69   N32   S    
C50   H52   S    
C8    C18   A    
C63   C83   S    
C55   H62   S    
C36   N23   A    
C65   C81   S    
C46   H35   S    
C109  H129  S    
C10   C19   A    
C79   H90   S    
C4    C101  S    
O23   S1    S    
O40   S7    S    
O31   S5    D    
H18   O24   S    
C101  C104  S    
C98   C100  S    
C37   S14   S    
C105  H124  S    
C63   H83   S    
C44   H70   S    
C73   C82   S    
C64   H79   S    
C29   H6    S    
H15   O14   S    
C102  N22   A    
C84   C99   S    
C30   H115  S    
C89   H113  S    
N22   Ni2   S    
C42   N36   A    
C19   C100  S    
N23   N39   A    
C50   H47   S    
C44   N38   A    
C48   H45   S    
H25   N28   S    
C45   N39   A    
N21   N25   A    
N18   Ni6   S    
C33   C41   S    
C37   C39   S    
N18   N24   A    
C107  H127  S    
O43   S8    S    
O28   S4    D    
N38   Ni7   S    
C97   C104  S    
O45   S9    S    
C14   N15   A    
C53   H59   S    
C59   C70   S    
C98   H119  S    
C2    S6    S    
C92   H116  S    
O10   S13   S    
C74   C78   S    
C96   C103  S    
C62   H81   S    
C78   S4    S    
C35   C46   S    
O48   S10   S    
H16   O17   S    
C71   C75   S    
C23   C69   A    
H11   O4    S    
O24   S2    S    
C72   C76   S    
C17   N26   A    
C45   C112  A    
C81   H91   S    
O11   S14   D    
C98   C105  S    
C54   H61   S    
H14   O10   S    
C28   H5    S    
O9    S13   D    
C23   C102  A    
C30   H7    S    
C35   S12   S    
O37   S6    S    
N39   Ni8   S    
H23   N28   S    
C8    N9    A    
C85   H105  S    
C15   N16   A    
C52   H54   S    
C24   C80   A    
C97   H117  S    
C108  H128  S    
C94   C101  S    
N25   Ni4   S    
C87   H107  S    
N6    Ni1   S    
N26   Ni3   S    
O13   S14   D    
C5    C90   A    
O47   S10   D    
C27   H4    S    
C32   C40   S    
N1    N37   A    
C75   H73   S    
O27   S3    S    
C97   C99   S    
C52   C54   S    
O17   S15   S    
C63   C67   S    
C60   C77   S    
C17   C24   A    
C56   H63   S    
C59   H65   S    
C58   N18   A    
O41   S8    D    
C29   H104  S    
C7    C109  A    
C42   C111  A    
O39   S7    D    
N7    Ni4   S    
C57   H64   S    
C85   C94   S    
C65   H80   S    
C28   C38   S    
C61   C78   S    
C87   C96   S    
C56   H56   S    
C6    C38   S    
H32   N32   S    
C37   C48   S    
H39   O33   S    
C65   H85   S    
O32   S5    D    
C104  H121  S    
N34   N38   A    
H26   N29   S    
C77   H75   S    
C21   C41   S    
C49   H46   S    
H33   N32   S    
O18   S16   D    
C83   H87   S    
N7    N8    A    
C85   H100  S    
C22   C71   S    
C76   H74   S    
O21   S2    D    
O14   S14   S    
C102  S5    S    
C91   N21   A    
H9    O45   S    
H30   N31   S    
C57   H95   S    
C96   N30   S    
C86   H101  S    
C82   H92   S    
N36   Ni5   S    
C104  H122  S    
C26   C74   S    
C41   C48   S    
C51   C68   S    
C11   N13   A    
C5    C92   A    
C52   C70   S    
C15   C21   A    
C54   C72   S    
N2    N40   A    
C7    C108  A    
C32   H2    S    
O20   S16   S    
C43   N37   A    
