data_mof_unit_39345.cif
_audit_creation_date              2012-12-11T14:27:08-0500
_audit_creation_method            fapswitch 2.2
_symmetry_space_group_name_H-M    P1
_symmetry_Int_Tables_number       1
_space_group_crystal_system       triclinic
_cell_length_a                    15.049773
_cell_length_b                    15.050303
_cell_length_c                    14.885841
_cell_angle_alpha                 109.966982
_cell_angle_beta                  109.286284
_cell_angle_gamma                 109.167214
_cell_volume                      2595.20470823

loop_
_atom_site_label
_atom_site_type_symbol
_atom_type_description
_atom_site_fract_x
_atom_site_fract_y
_atom_site_fract_z
_atom_type_partial_charge
C1    C     C_R   0.996288 0.799648 0.092972 -0.043602
C2    C     C_R   0.202625 0.802857 0.296267 -0.091210
C3    C     C_R   0.976009 0.409861 0.222010 -0.076080
C4    C     C_R   0.780798 0.221223 0.686167 -0.223350
C5    C     C_R   0.315126 0.596619 0.058218 -0.205847
C6    C     C_R   0.054154 0.501595 0.324098 0.134043
C7    C     C_R   0.330747 0.508782 0.039696 0.016287
C8    C     C_R   0.292543 0.867607 0.296835 0.206720
C9    C     C_R   0.951918 0.141722 0.948059 -0.039376
C10   C     C_3   0.469998 0.385879 0.895768 -0.096340
C11   C     C_3   0.381130 0.385515 0.926928 0.293274
C12   C     C_R   0.680694 0.170185 0.676356 -0.030041
C13   C     C_3   0.603312 0.518953 0.098971 -0.534633
C14   C     C_3   0.560900 0.593483 0.971012 0.038565
C15   C     C_3   0.577017 0.498996 0.980038 0.181064
C16   C     C_R   0.083316 0.589217 0.785440 0.151137
C17   C     C_3   0.420688 0.503761 0.020190 0.147732
C18   C     C_3   0.523814 0.545947 0.129972 0.012799
C19   C     C_3   0.456586 0.581836 0.974735 -0.579854
C20   C     C_2   0.387149 0.039708 0.472080 0.575206
C21   C     C_2   0.369092 0.983977 0.370090 -0.280221
C22   C     C_2   0.498475 0.118008 0.560103 -0.369725
C23   C     C_R   0.038166 0.496726 0.684762 0.114787
C24   C     C_2   0.578907 0.093514 0.575558 0.497055
C25   C     C_2   0.071440 0.420070 0.534228 -0.143019
C26   C     C_2   0.051377 0.493646 0.592078 -0.205513
C27   C     C_2   0.074239 0.414873 0.435184 -0.088466
C28   C     C_R   0.685460 0.408754 0.946897 -0.150370
C29   C     C_2   0.106139 0.505167 0.427869 -0.184086
C30   C     C_2   0.078290 0.086554 0.014023 -0.181729
C31   C     C_2   0.973751 0.061460 0.966576 0.484938
C32   C     C_2   0.108729 0.010320 0.031127 -0.211870
C33   C     C_2   0.084870 0.974257 0.094969 0.524173
C34   C     C_R   0.672272 0.499302 0.971904 0.003326
C35   C     C_R   0.987463 0.407283 0.692545 -0.193679
C36   C     C_R   0.774935 0.591296 0.037299 -0.128291
C37   C     C_R   0.691636 0.212604 0.779762 0.399217
C38   C     C_R   0.088319 0.801086 0.003094 -0.178152
C39   C     C_R   0.055993 0.862135 0.063384 0.018375
C40   C     C_3   0.033920 0.154480 0.823465 -0.425276
C41   C     C_3   0.970515 0.147576 0.715123 -0.322217
C42   C     C_3   0.003621 0.101217 0.631585 -0.811396
C43   C     C_3   0.437991 0.341760 0.771122 -0.415238
C44   C     C_3   0.331086 0.327937 0.692187 -0.277184
C45   C     C_R   0.067069 0.592031 0.313093 -0.136062
C46   C     C_3   0.323514 0.308098 0.581560 -0.792280
C47   C     C_3   0.508600 0.509689 0.212613 -0.349509
C48   C     C_3   0.493204 0.587622 0.296994 -0.266878
C49   C     C_3   0.477738 0.548713 0.375732 -0.782646
C50   C     C_3   0.562913 0.606786 0.872604 -0.437278
C51   C     C_3   0.586559 0.721315 0.893249 -0.297333
C52   C     C_3   0.576583 0.730167 0.791623 -0.739097
C53   C     C_3   0.177135 0.700235 0.831760 -0.461868
C54   C     C_3   0.264053 0.698548 0.799803 -0.278658
C55   C     C_3   0.365320 0.811135 0.868213 -0.842558
C56   C     C_R   0.229547 0.418099 0.989874 0.427286
C57   C     C_R   0.294530 0.803561 0.206480 -0.109327
C58   C     C_R   0.916854 0.201949 0.004438 -0.047886
C59   C     C_R   0.000338 0.198142 0.906361 0.191366
Cl1   Cl    Cl    0.226336 0.370497 0.082392 -0.706264
Cl2   Cl    Cl    0.343018 0.279893 0.960977 -0.690652
Cl3   Cl    Cl    0.287808 0.018466 0.512289 -0.664683
Cl4   Cl    Cl    0.565295 0.968899 0.489866 -0.666076
Cl5   Cl    Cl    0.863681 0.937497 0.925389 -0.655204
Cl6   Cl    Cl    0.062057 0.049053 0.197563 -0.633129
Cl7   Cl    Cl    0.608741 0.139295 0.818133 -0.641300
H1    H     H_    0.970788 0.826887 0.152068 0.139849
H2    H     H_    0.600114 0.445352 0.102708 0.212663
H3    H     H_    0.630123 0.670580 0.047094 0.130204
H4    H     H_    0.388881 0.551232 0.892413 0.174478
H5    H     H_    0.475885 0.665728 0.027869 0.172213
H6    H     H_    0.686899 0.587616 0.162972 0.169601
H7    H     H_    0.563915 0.636668 0.175993 0.135159
H8    H     H_    0.433031 0.015854 0.351997 0.144162
H9    H     H_    0.512683 0.193658 0.621904 0.134958
H10   H     H_    0.074196 0.356810 0.552638 0.139406
H11   H     H_    0.044434 0.554842 0.572038 0.145624
H12   H     H_    0.345079 0.832695 0.174106 0.095382
H13   H     H_    0.032135 0.334490 0.363233 0.151340
H14   H     H_    0.155262 0.585050 0.501996 0.135951
H15   H     H_    0.142608 0.161453 0.033319 0.212713
H16   H     H_    0.126543 0.967268 0.970739 0.124579
H17   H     H_    0.624387 0.325559 0.905431 0.167347
H18   H     H_    0.956169 0.323205 0.634020 0.114166
H19   H     H_    0.795419 0.675447 0.079776 0.102101
H20   H     H_    0.149391 0.832997 0.983118 0.095296
H21   H     H_    0.121864 0.676407 0.377065 0.129242
H22   H     H_    0.091601 0.153154 0.664920 0.257674
H23   H     H_    0.866506 0.175969 0.038092 0.143667
H24   H     H_    0.957488 0.099064 0.554511 0.245328
H25   H     H_    0.985730 0.017036 0.611897 0.273470
H26   H     H_    0.882279 0.094345 0.679948 0.241931
H27   H     H_    0.987274 0.230296 0.730858 0.198829
H28   H     H_    0.121498 0.206392 0.857707 0.253532
H29   H     H_    0.019576 0.071542 0.805757 0.204900
H30   H     H_    0.388730 0.380235 0.593038 0.236241
H31   H     H_    0.331173 0.235605 0.543089 0.292844
H32   H     H_    0.243816 0.293917 0.525135 0.259877
H33   H     H_    0.261580 0.256740 0.676808 0.227450
H34   H     H_    0.165521 0.828519 0.342815 0.167120
H35   H     H_    0.323371 0.400931 0.727252 0.175416
H36   H     H_    0.505526 0.392420 0.764664 0.189735
H37   H     H_    0.431109 0.259922 0.737434 0.238158
H38   H     H_    0.404424 0.466914 0.329296 0.289480
H39   H     H_    0.549810 0.544633 0.422010 0.241635
H40   H     H_    0.467218 0.606610 0.435667 0.256134
H41   H     H_    0.565854 0.670323 0.346066 0.207929
H42   H     H_    0.421658 0.594211 0.255138 0.248697
H43   H     H_    0.440886 0.425850 0.169641 0.293492
H44   H     H_    0.582679 0.509177 0.260785 0.185339
H45   H     H_    0.945279 0.326141 0.201720 0.097518
H46   H     H_    0.633975 0.711548 0.768409 0.277642
H47   H     H_    0.492461 0.672647 0.721255 0.230551
H48   H     H_    0.596047 0.814309 0.809763 0.280003
H49   H     H_    0.528698 0.740531 0.914731 0.207615
H50   H     H_    0.670137 0.782416 0.963522 0.240515
H51   H     H_    0.626753 0.593530 0.858914 0.201169
H52   H     H_    0.484444 0.546598 0.795816 0.217007
H53   H     H_    0.343525 0.873417 0.862163 0.284191
H54   H     H_    0.406237 0.833322 0.956021 0.243411
H55   H     H_    0.422533 0.810856 0.836633 0.260734
H56   H     H_    0.374569 0.681728 0.099653 0.126785
H57   H     H_    0.286751 0.638929 0.812901 0.198992
H58   H     H_    0.233230 0.675670 0.712083 0.212049
H59   H     H_    0.145287 0.749576 0.806063 0.194967
H60   H     H_    0.218506 0.739294 0.922847 0.195672
H61   H     H_    0.487947 0.325844 0.912770 0.186494
H62   H     H_    0.305503 0.360782 0.855377 0.051635
H63   H     H_    0.801130 0.202917 0.621459 0.149606
N1    N     N_R   0.993980 0.704500 0.053430 -0.056357
N2    N     N_R   0.053690 0.556380 0.849240 -0.061700
N3    N     N_R   0.790390 0.443640 0.997160 -0.035731
N4    N     N_R   0.998260 0.443670 0.792970 -0.058294
N5    N     N_R   0.845830 0.556350 0.053430 -0.043626
N6    N     N_R   0.792820 0.295510 0.849240 -0.082785
N7    N     N_R   0.051260 0.704510 0.997160 -0.038309
N8    N     N_R   0.001740 0.556330 0.207030 -0.050647
N9    N     N_R   0.154170 0.443650 0.946570 -0.093055
N10   N     N_R   0.207180 0.704490 0.150760 -0.040783
N11   N     N_R   0.948740 0.295490 0.002840 -0.049796
N12   N     N_R   0.006020 0.295500 0.946570 -0.028761
N13   N     N_R   0.149890 0.704480 0.207030 -0.057948
N14   N     N_R   0.946310 0.443620 0.150760 -0.046559
N15   N     N_R   0.209610 0.556360 0.002840 -0.053731
N16   N     N_R   0.850110 0.295520 0.792970 -0.067715
Ni1   Ni    Ni4+2 0.997880 0.629240 0.129060 0.224515
Ni2   Ni    Ni4+2 0.002120 0.370760 0.870940 0.214310
Ni3   Ni    Ni4+2 0.129260 0.629260 0.000000 0.206479
Ni4   Ni    Ni4+2 0.870740 0.370740 0.000000 0.276729

loop_
_geom_bond_atom_site_label_1
_geom_bond_atom_site_label_2
_ccdc_geom_bond_type
C49   H40   S    
C54   H57   S    
C55   H55   S    
C40   C41   S    
C6    C45   A    
N1    Ni1   S    
C50   H51   S    
C41   C42   S    
N13   Ni1   S    
C19   H5    S    
N15   Ni3   S    
C3    C6    A    
C18   C47   S    
C35   N4    A    
C49   H38   S    
C33   Cl6   S    
C55   H53   S    
C53   C54   S    
C33   C39   S    
C13   C18   S    
C38   H20   S    
C22   H9    S    
C45   H21   S    
C9    C58   A    
C27   H13   S    
C10   C15   S    
C30   C31   D    
C44   H33   S    
C48   H41   S    
C27   C29   D    
C52   H46   S    
C57   N10   A    
C42   H25   S    
C23   C26   S    
C12   C37   A    
C16   N2    A    
C16   C53   S    
C17   C19   S    
C41   H27   S    
C3    H45   S    
C7    C17   S    
C37   N6    A    
N4    Ni2   S    
C38   N7    A    
C4    C12   A    
C15   C34   S    
C16   C23   A    
C46   H32   S    
C28   C34   A    
C40   C59   S    
C28   H17   S    
C20   Cl3   S    
N3    Ni4   S    
C7    C56   A    
C57   H12   S    
N16   Ni2   S    
C44   C46   S    
C50   C51   S    
C9    C31   S    
C28   N3    A    
C55   H54   S    
C38   C39   A    
N5    Ni1   S    
C2    C8    A    
N10   Ni3   S    
C26   H11   S    
C51   C52   S    
N8    Ni1   S    
C3    N14   A    
N11   N12   A    
C1    N1    A    
C53   H60   S    
C5    C7    A    
C1    C39   A    
C14   C19   S    
C5    N15   A    
C49   H39   S    
C11   Cl2   S    
C25   C26   D    
C52   H47   S    
C21   H8    S    
C51   H49   S    
C56   Cl1   S    
C36   N5    A    
C42   H24   S    
C43   C44   S    
C8    C57   A    
C56   N9    A    
C47   C48   S    
N9    Ni2   S    
C44   H35   S    
C37   Cl7   S    
C6    C29   S    
C45   N8    A    
C17   C18   S    
C46   H30   S    
N2    Ni3   S    
N7    Ni3   S    
C53   H59   S    
C48   C49   S    
C46   H31   S    
C20   C22   S    
C24   Cl4   S    
C23   C35   A    
C13   C15   S    
C48   H42   S    
C2    N13   A    
C14   H3    S    
C22   C24   D    
C25   C27   S    
C40   H29   S    
C10   H61   S    
C58   N11   A    
C54   H58   S    
C54   C55   S    
C11   C17   S    
C10   C43   S    
C50   H52   S    
C31   Cl5   S    
N1    N7    A    
C40   H28   S    
N2    N4    A    
C8    C21   S    
C35   H18   S    
C4    H63   S    
C13   H6    S    
C52   H48   S    
C36   H19   S    
C18   H7    S    
C47   H44   S    
C32   H16   S    
C12   C24   S    
C51   H50   S    
C25   H10   S    
C32   C33   D    
C30   H15   S    
C11   H62   S    
C43   H36   S    
N6    N16   A    
C47   H43   S    
C30   C32   S    
C14   C50   S    
C29   H14   S    
N10   N13   A    
C4    N16   A    
C5    H56   S    
C1    H1    S    
C34   C36   A    
N8    N14   A    
C58   H23   S    
C43   H37   S    
C10   C11   S    
N12   Ni2   S    
C2    H34   S    
N14   Ni4   S    
C41   H26   S    
C42   H22   S    
C20   C21   D    
C59   N12   A    
N3    N5    A    
C14   C15   S    
N6    Ni4   S    
C19   H4    S    
N9    N15   A    
C9    C59   A    
N11   Ni4   S    
C13   H2    S    
