data_mof_unit_5511.cif
_audit_creation_date              2012-10-26T21:06:10-0400
_audit_creation_method            fapswitch 2.2
_symmetry_space_group_name_H-M    P1
_symmetry_Int_Tables_number       1
_space_group_crystal_system       triclinic
_cell_length_a                    13.364126
_cell_length_b                    18.161323
_cell_length_c                    19.392007
_cell_angle_alpha                 90.154372
_cell_angle_beta                  91.141524
_cell_angle_gamma                 71.797576
_cell_volume                      4470.1942185

loop_
_atom_site_label
_atom_site_type_symbol
_atom_type_description
_atom_site_fract_x
_atom_site_fract_y
_atom_site_fract_z
_atom_type_partial_charge
C1    C     C_R   0.501040 0.499826 0.632048 0.567770
C2    C     C_R   0.816425 0.431549 0.493381 -0.035860
C3    C     C_R   0.547667 0.548209 0.257956 -0.122515
C4    C     C_R   0.700689 0.458300 0.496818 0.555846
C5    C     C_R   0.558341 0.543960 0.186718 0.226075
C6    C     C_R   0.518232 0.492701 0.148441 0.039101
C7    C     C_R   0.473873 0.441858 0.182530 0.247649
C8    C     C_R   0.466491 0.446263 0.255017 -0.142133
C9    C     C_R   0.503910 0.498603 0.292342 -0.073056
C10   C     C_R   0.564665 0.424454 0.036035 -0.104818
C11   C     C_R   0.563305 0.425066 0.964297 -0.170141
C12   C     C_R   0.980694 0.462488 0.486365 -0.000401
C13   C     C_R   0.522142 0.495066 0.928041 0.035937
C14   C     C_R   0.483534 0.565242 0.964518 0.303995
C15   C     C_R   0.479658 0.563483 0.036320 -0.064239
C16   C     C_R   0.499909 0.499955 0.367628 0.545119
C17   C     C_R   0.521160 0.493444 0.072474 0.026075
C18   C     C_R   0.418629 0.521719 0.817330 0.285818
C19   C     C_R   0.414135 0.527489 0.745246 -0.031330
C20   C     C_R   0.506741 0.498568 0.707349 -0.063657
C21   C     C_R   0.605077 0.467917 0.741445 -0.055487
C22   C     C_R   0.610807 0.467247 0.813872 -0.074529
C23   C     C_R   0.872355 0.480664 0.469719 0.016592
C24   C     C_R   0.517455 0.494100 0.851926 -0.008836
C25   C     C_R   0.567387 0.262807 0.542269 0.035552
C26   C     C_R   0.568805 0.185085 0.541442 -0.112553
C27   C     C_R   0.500994 0.161338 0.496246 0.033300
C28   C     C_R   0.298858 0.541857 0.499686 0.574527
C29   C     C_R   0.432198 0.218026 0.453415 -0.157035
C30   C     C_R   0.433086 0.295087 0.456008 0.052063
C31   C     C_R   0.405455 0.061077 0.490207 -0.160390
C32   C     C_R   0.404051 0.983982 0.489150 -0.133220
C33   C     C_R   0.498328 0.921721 0.492701 -0.009913
C34   C     C_R   0.030843 0.520558 0.477915 -0.002592
C35   C     C_R   0.594075 0.938742 0.495468 -0.086480
C36   C     C_R   0.596262 0.015769 0.494691 0.275456
C37   C     C_R   0.501191 0.078420 0.493943 0.031597
C38   C     C_R   0.565167 0.786006 0.540914 -0.147908
C39   C     C_R   0.565084 0.708695 0.543052 0.129126
C40   C     C_R   0.029397 0.643872 0.424858 -0.003936
C41   C     C_R   0.434234 0.734332 0.454477 0.018960
C42   C     C_R   0.430937 0.812480 0.451742 -0.154275
C43   C     C_R   0.497648 0.839263 0.495057 0.009036
C44   C     C_R   0.183092 0.566924 0.490661 -0.027815
C45   C     C_R   0.979366 0.587216 0.436991 -0.018711
C46   C     C_R   0.872302 0.357716 0.519138 -0.106652
C47   C     C_R   0.982825 0.332605 0.521928 0.270598
C48   C     C_R   0.035712 0.385684 0.507222 -0.075936
C49   C     C_3   0.167856 0.738404 0.502826 0.025742
C50   C     C_3   0.064773 0.806128 0.502170 -0.279684
C51   C     C_3   0.063043 0.862046 0.561357 -0.486655
C52   C     C_3   0.712686 0.554125 0.145133 0.006579
C53   C     C_3   0.778097 0.567583 0.207054 -0.269320
C54   C     C_3   0.895927 0.535970 0.193697 -0.471271
C55   C     C_3   0.435806 0.322960 0.173157 0.008827
C56   C     C_R   0.877548 0.596849 0.410401 -0.138237
C57   C     C_3   0.549262 0.270483 0.187957 -0.280700
C58   C     C_3   0.550147 0.193713 0.220215 -0.481952
C59   C     C_3   0.527112 0.662335 0.910075 0.009472
C60   C     C_3   0.556184 0.710679 0.967446 -0.279161
C61   C     C_3   0.640043 0.745530 0.944045 -0.476280
C62   C     C_3   0.296027 0.485303 0.878489 0.007997
C63   C     C_3   0.216319 0.467820 0.828435 -0.263976
C64   C     C_3   0.171924 0.406971 0.857972 -0.462820
C65   C     C_1   0.313838 0.563537 0.710515 0.245226
C66   C     C_1   0.700527 0.438839 0.702046 0.238431
C67   C     C_R   0.823969 0.545786 0.428069 -0.113685
C68   C     C_1   0.712751 0.441560 0.849032 0.194415
C69   C     C_3   0.724879 0.032238 0.425838 -0.000236
C70   C     C_3   0.828440 0.967460 0.414787 -0.263299
C71   C     C_3   0.872017 0.972760 0.343509 -0.469782
C72   C     C_1   0.980533 0.710595 0.381181 0.211120
C73   C     C_1   0.635560 0.656697 0.591355 0.255472
C74   C     C_1   0.166967 0.468347 0.571186 0.229393
C75   C     C_3   0.011302 0.199415 0.515769 0.003827
C76   C     C_3   0.966311 0.158363 0.570263 -0.256831
C77   C     C_3   0.931083 0.093381 0.538515 -0.484724
C78   C     C_R   0.128689 0.515816 0.510136 -0.076983
C79   C     C_R   0.129470 0.635191 0.453749 0.236519
Cu1   Cu    Cu3+1 0.500030 0.426630 0.500000 0.948809
Cu2   Cu    Cu3+1 0.499970 0.573370 0.500000 0.973448
H1    H     H_    0.429850 0.410822 0.283273 0.120180
H2    H     H_    0.331080 0.107389 0.489368 0.122353
H3    H     H_    0.328873 0.973071 0.487443 0.112223
H4    H     H_    0.668051 0.892021 0.496891 0.116466
H5    H     H_    0.616969 0.804731 0.575639 0.098229
H6    H     H_    0.383804 0.714200 0.419995 0.160904
H7    H     H_    0.378069 0.851241 0.415080 0.102721
H8    H     H_    0.829932 0.319962 0.537547 0.130620
H9    H     H_    0.120752 0.364476 0.509278 0.140006
H10   H     H_    0.745634 0.556419 0.406215 0.130804
H11   H     H_    0.576325 0.589135 0.286570 0.141171
H12   H     H_    0.598598 0.370038 0.063118 0.136008
H13   H     H_    0.234254 0.762777 0.503284 0.154563
H14   H     H_    0.175955 0.704492 0.551702 0.148611
H15   H     H_    0.055843 0.838067 0.452453 0.182229
H16   H     H_    0.997018 0.783607 0.507527 0.163776
H17   H     H_    0.073665 0.831064 0.611612 0.167468
H18   H     H_    0.986101 0.908748 0.561144 0.152469
H19   H     H_    0.126680 0.888791 0.555507 0.145171
H20   H     H_    0.736566 0.579089 0.098353 0.153567
H21   H     H_    0.730729 0.490746 0.135122 0.121005
H22   H     H_    0.756715 0.630709 0.217775 0.181700
H23   H     H_    0.593694 0.370835 0.936884 0.122133
H24   H     H_    0.761108 0.538151 0.253440 0.145712
H25   H     H_    0.919298 0.472670 0.183654 0.146842
H26   H     H_    0.940702 0.546070 0.239700 0.159311
H27   H     H_    0.916313 0.565801 0.148685 0.156393
H28   H     H_    0.399440 0.292106 0.135612 0.155252
H29   H     H_    0.385486 0.331089 0.219136 0.118139
H30   H     H_    0.593093 0.258690 0.138959 0.157383
H31   H     H_    0.590977 0.299151 0.223914 0.156784
H32   H     H_    0.508536 0.204133 0.270084 0.144313
H33   H     H_    0.632766 0.156897 0.230008 0.144739
H34   H     H_    0.444821 0.617075 0.063882 0.155274
H35   H     H_    0.511249 0.162291 0.184903 0.147718
H36   H     H_    0.499399 0.699876 0.863955 0.166967
H37   H     H_    0.598471 0.614887 0.894035 0.127113
H38   H     H_    0.484736 0.758173 0.982433 0.183135
H39   H     H_    0.587076 0.673595 0.013413 0.177287
H40   H     H_    0.712798 0.698842 0.929869 0.157900
H41   H     H_    0.659615 0.779910 0.986695 0.155635
H42   H     H_    0.610590 0.784350 0.898919 0.154283
H43   H     H_    0.257913 0.502449 0.928984 0.170695
H44   H     H_    0.363423 0.431489 0.888198 0.115886
H45   H     H_    0.836546 0.645647 0.377763 0.122513
H46   H     H_    0.150473 0.521873 0.817677 0.201062
H47   H     H_    0.255333 0.445866 0.779108 0.182003
H48   H     H_    0.236363 0.352040 0.868258 0.150340
H49   H     H_    0.115078 0.395296 0.820311 0.182807
H50   H     H_    0.130245 0.428037 0.906662 0.155657
H51   H     H_    0.737890 0.089154 0.418289 0.143634
H52   H     H_    0.666074 0.028111 0.385308 0.119888
H53   H     H_    0.887453 0.971457 0.454499 0.168197
H54   H     H_    0.815319 0.910316 0.420417 0.177650
H55   H     H_    0.815526 0.966757 0.302745 0.158170
H56   H     H_    0.620251 0.280303 0.576876 0.119251
H57   H     H_    0.947550 0.925465 0.337504 0.173688
H58   H     H_    0.886867 0.029202 0.337137 0.133710
H59   H     H_    0.083346 0.156970 0.494904 0.142232
H60   H     H_    0.955074 0.217869 0.471063 0.105408
H61   H     H_    0.027495 0.133619 0.610816 0.181386
H62   H     H_    0.897873 0.200517 0.595117 0.168321
H63   H     H_    0.868181 0.117344 0.498951 0.158139
H64   H     H_    0.899351 0.064488 0.579220 0.167549
H65   H     H_    0.998702 0.049633 0.514328 0.136886
H66   H     H_    0.621836 0.144148 0.576496 0.142051
H67   H     H_    0.379070 0.202725 0.417373 0.085064
H68   H     H_    0.380469 0.337925 0.422279 0.117386
N1    N     N_R   0.500010 0.316380 0.499980 -0.217464
N2    N     N_R   0.499860 0.683650 0.499960 -0.242747
N3    N     N_1   0.233743 0.592566 0.682765 -0.309515
N4    N     N_1   0.776827 0.415635 0.670829 -0.280585
N5    N     N_1   0.794039 0.421157 0.877083 -0.304250
N6    N     N_1   0.941519 0.763787 0.346231 -0.337624
N7    N     N_1   0.692604 0.615279 0.630320 -0.283867
N8    N     N_1   0.197647 0.430821 0.619955 -0.278576
O1    O     O_R   0.500040 0.438010 0.599820 -0.491686
O2    O     O_3   0.604118 0.592962 0.154480 -0.589269
O3    O     O_3   0.431690 0.394485 0.142061 -0.573038
O4    O     O_3   0.443385 0.635491 0.930465 -0.535209
O5    O     O_3   0.326314 0.548550 0.854042 -0.524325
O6    O     O_3   0.692571 0.029019 0.494617 -0.594195
O7    O     O_3   0.041555 0.260078 0.546994 -0.557525
O8    O     O_R   0.499990 0.561930 0.599810 -0.486244
O9    O     O_R   0.651020 0.407800 0.499990 -0.511723
O10   O     O_R   0.650970 0.531720 0.499980 -0.491732
O11   O     O_R   0.500010 0.438070 0.400190 -0.512228
O12   O     O_R   0.499960 0.561990 0.400180 -0.511164
O13   O     O_R   0.349030 0.468280 0.500020 -0.502313
O14   O     O_R   0.348980 0.592200 0.500010 -0.472378
O15   O     O_3   0.176140 0.692322 0.442636 -0.561931

loop_
_geom_bond_atom_site_label_1
_geom_bond_atom_site_label_2
_ccdc_geom_bond_type
C61   H41   S    
C21   C66   S    
C27   C29   A    
C35   H4    S    
C41   C42   A    
C53   H22   S    
C25   H56   S    
C35   C36   A    
Cu1   O13   S    
C12   C48   A    
C29   H67   S    
C62   H43   S    
C7    C8    A    
C46   H8    S    
C62   O5    S    
C53   C54   S    
C2    C46   A    
Cu1   N1    S    
C12   C23   A    
C52   H21   S    
C26   C27   A    
C29   C30   A    
C54   H26   S    
C38   H5    S    
C18   C24   A    
C36   C37   A    
C9    C16   S    
C16   O11   A    
C68   N5    T    
C75   H59   S    
C5    C6    A    
C30   N1    A    
C57   H31   S    
C10   C17   A    
C39   N2    A    
C11   C13   A    
C31   H2    S    
C60   H38   S    
C61   H40   S    
C18   C19   A    
C23   C67   A    
C26   H66   S    
C75   H60   S    
C16   O12   A    
C47   C48   A    
C45   C56   A    
C8    C9    A    
C5    O2    S    
C52   O2    S    
C75   O7    S    
C62   H44   S    
C58   H32   S    
C19   C65   S    
C11   H23   S    
C56   H45   S    
C49   H13   S    
C40   C72   S    
C63   H47   S    
C3    H11   S    
C51   H17   S    
Cu2   O14   S    
C59   C60   S    
C59   H36   S    
C72   N6    T    
C48   H9    S    
C13   C14   A    
C55   H28   S    
C58   H35   S    
C40   C45   A    
C41   H6    S    
Cu1   O9    S    
C71   H57   S    
C51   H18   S    
C38   C39   A    
C32   H3    S    
C52   H20   S    
C54   H25   S    
C33   C43   S    
C76   C77   S    
C71   H55   S    
C30   H68   S    
C71   H58   S    
C7    O3    S    
C10   H12   S    
C25   C26   A    
Cu2   N2    S    
C28   C44   S    
C31   C37   A    
C13   C24   S    
C25   N1    A    
C79   O15   S    
C2    C4    S    
C75   C76   S    
C62   C63   S    
C59   O4    S    
C36   O6    S    
C28   O14   A    
Cu1   O1    S    
C31   C32   A    
C64   H50   S    
C1    O8    A    
C67   H10   S    
C50   C51   S    
Cu2   O10   S    
C40   C79   A    
C34   C45   A    
C49   H14   S    
C3    C9    A    
C22   C68   S    
C70   C71   S    
C47   O7    S    
C28   O13   A    
C55   O3    S    
C64   H49   S    
C59   H37   S    
Cu2   O12   S    
C55   C57   S    
C55   H29   S    
C70   H54   S    
C15   H34   S    
C42   H7    S    
C42   C43   A    
C12   C34   A    
C77   H64   S    
C52   C53   S    
C58   H33   S    
C51   H19   S    
C15   C17   A    
C6    C17   S    
C46   C47   A    
C1    O1    A    
C1    C20   S    
C69   H52   S    
C50   H16   S    
C74   N8    T    
C44   C79   A    
C69   O6    S    
Cu1   Cu2   S    
C3    C5    A    
C66   N4    T    
C65   N3    T    
C6    C7    A    
C41   N2    A    
C64   H48   S    
C56   C67   A    
C19   C20   A    
C4    O10   A    
C54   H27   S    
C61   H42   S    
C32   C33   A    
C14   O4    S    
C44   C78   A    
C77   H63   S    
C38   C43   A    
C34   C78   A    
C18   O5    S    
C50   H15   S    
C57   C58   S    
C57   H30   S    
C27   C37   S    
C69   H51   S    
C73   N7    T    
C33   C35   A    
C4    O9    A    
C60   H39   S    
C22   C24   A    
C39   C73   S    
C69   C70   S    
C10   C11   A    
C63   C64   S    
C76   H62   S    
C53   H24   S    
C8    H1    S    
C20   C21   A    
C49   O15   S    
C49   C50   S    
C74   C78   S    
C2    C23   A    
C70   H53   S    
Cu2   O8    S    
C14   C15   A    
C60   C61   S    
C21   C22   A    
C77   H65   S    
Cu1   O11   S    
C63   H46   S    
C76   H61   S    
