data_mof_unit_50901.cif
_audit_creation_date              2012-12-11T16:28:31-0500
_audit_creation_method            fapswitch 2.2
_symmetry_space_group_name_H-M    P1
_symmetry_Int_Tables_number       1
_space_group_crystal_system       triclinic
_cell_length_a                    16.703708
_cell_length_b                    7.252421
_cell_length_c                    15.078043
_cell_angle_alpha                 89.99997
_cell_angle_beta                  94.618203
_cell_angle_gamma                 90.000065
_cell_volume                      1820.65885253

loop_
_atom_site_label
_atom_site_type_symbol
_atom_type_description
_atom_site_fract_x
_atom_site_fract_y
_atom_site_fract_z
_atom_type_partial_charge
O1    O     O_R   0.663460 0.361760 0.165970 -0.519025
O2    O     O_R   0.336540 0.638240 0.834030 -0.519021
O3    O     O_R   0.836540 0.861760 0.334030 -0.519023
O4    O     O_R   0.163460 0.138240 0.665970 -0.519022
O5    O     O_R   0.827100 0.689870 0.163730 -0.515393
O6    O     O_R   0.172900 0.310130 0.836270 -0.515393
O7    O     O_R   0.672900 0.189870 0.336270 -0.515394
O8    O     O_R   0.327100 0.810130 0.663730 -0.515391
C1    C     C_R   0.854048 0.523183 0.144498 0.773428
C2    C     C_R   0.145952 0.476817 0.855502 0.773429
C3    C     C_R   0.645952 0.023183 0.355502 0.773429
C4    C     C_R   0.354048 0.976817 0.644498 0.773430
O9    O     O_R   0.663490 0.691370 0.155500 -0.538397
O10   O     O_R   0.336510 0.308630 0.844500 -0.538400
O11   O     O_R   0.836510 0.191370 0.344500 -0.538398
O12   O     O_R   0.163490 0.808630 0.655500 -0.538398
O13   O     O_R   0.671770 0.863320 0.325740 -0.516683
O14   O     O_R   0.328230 0.136680 0.674260 -0.516686
O15   O     O_R   0.828230 0.363320 0.174260 -0.516684
O16   O     O_R   0.171770 0.636680 0.825740 -0.516684
C5    C     C_R   0.636286 0.522344 0.133261 0.870943
C6    C     C_R   0.363714 0.477656 0.866739 0.870941
C7    C     C_R   0.863714 0.022344 0.366739 0.870941
C8    C     C_R   0.136286 0.977656 0.633261 0.870942
O17   O     O_3   0.752910 0.528800 0.305860 -0.372230
O18   O     O_3   0.247090 0.471200 0.694140 -0.372231
O19   O     O_3   0.747090 0.028800 0.194140 -0.372232
O20   O     O_3   0.252910 0.971200 0.805860 -0.372231
V1    V     V_3+5 0.749460 0.803010 0.239640 1.626479
V2    V     V_3+5 0.250540 0.196990 0.760360 1.626475
V3    V     V_3+5 0.750540 0.303010 0.260360 1.626477
V4    V     V_3+5 0.249460 0.696990 0.739640 1.626479
C9    C     C_1   0.469077 0.994611 0.530403 0.137460
C10   C     C_1   0.530923 0.005389 0.469598 0.137461
C11   C     C_1   0.030923 0.494611 0.969598 0.137461
C12   C     C_1   0.969077 0.505389 0.030403 0.137460
C13   C     C_R   0.030924 0.033624 0.314581 0.246939
C14   C     C_R   0.969076 0.966373 0.685419 0.246939
C15   C     C_R   0.469076 0.533627 0.185419 0.246939
C16   C     C_R   0.530923 0.466366 0.814581 0.246936
C17   C     C_R   0.109727 0.050787 0.290137 0.376429
C18   C     C_R   0.890273 0.949201 0.709863 0.376428
C19   C     C_R   0.390273 0.550794 0.209863 0.376429
C20   C     C_R   0.609725 0.449178 0.790138 0.376415
C21   C     C_R   0.173896 0.055294 0.355512 0.231893
C22   C     C_R   0.826104 0.944691 0.644488 0.231900
C23   C     C_R   0.326104 0.555303 0.144488 0.231894
C24   C     C_R   0.673894 0.444674 0.855512 0.231901
C25   C     C_R   0.159624 0.048486 0.446037 0.220897
C26   C     C_R   0.840376 0.951506 0.553962 0.220898
C27   C     C_R   0.340376 0.548493 0.053962 0.220895
C28   C     C_R   0.659624 0.451502 0.946038 0.220891
C29   C     C_R   0.080189 0.019338 0.473450 -0.054469
C30   C     C_R   0.919810 0.980659 0.526550 -0.054469
C31   C     C_R   0.419810 0.519341 0.026550 -0.054469
C32   C     C_R   0.580189 0.480656 0.973450 -0.054467
C33   C     C_R   0.013802 0.020598 0.406916 -0.160718
C34   C     C_R   0.986198 0.979401 0.593084 -0.160718
C35   C     C_R   0.486198 0.520600 0.093084 -0.160719
C36   C     C_R   0.513801 0.479397 0.906916 -0.160718
C37   C     C_R   0.066381 0.991797 0.565570 -0.054048
C38   C     C_R   0.933619 0.008202 0.434430 -0.054048
C39   C     C_R   0.433618 0.491798 0.934430 -0.054048
C40   C     C_R   0.566381 0.508202 0.065570 -0.054049
C41   C     C_1   0.416604 0.985848 0.582174 -0.062929
C42   C     C_1   0.583396 0.014152 0.417826 -0.062925
C43   C     C_1   0.083396 0.485847 0.917826 -0.062926
C44   C     C_1   0.916604 0.514153 0.082174 -0.062930
O21   O     O_3   0.223853 0.070761 0.508330 -0.650301
H1    H     H_    0.262646 0.158687 0.485474 0.335562
O22   O     O_3   0.776147 0.929233 0.491669 -0.650301
H2    H     H_    0.737356 0.841301 0.514523 0.335568
O23   O     O_3   0.276147 0.570768 0.991669 -0.650300
H3    H     H_    0.237356 0.658698 0.014524 0.335563
O24   O     O_3   0.723854 0.429241 0.008330 -0.650302
H4    H     H_    0.762647 0.341314 0.985477 0.335559
O25   O     O_3   0.121381 0.060546 0.200266 -0.562679
H5    H     H_    0.175765 0.106965 0.191432 0.373021
O26   O     O_3   0.878619 0.939438 0.799734 -0.562680
H6    H     H_    0.824236 0.893015 0.808567 0.373022
O27   O     O_3   0.378619 0.560554 0.299735 -0.562679
H7    H     H_    0.324235 0.606970 0.308568 0.373023
O28   O     O_3   0.621380 0.439401 0.700268 -0.562674
H8    H     H_    0.675751 0.392890 0.691441 0.373023
Cl1   Cl    Cl    0.725677 0.946720 0.675237 -0.599903
Cl2   Cl    Cl    0.274323 0.053253 0.324762 -0.599893
Cl3   Cl    Cl    0.774320 0.446709 0.824759 -0.599868
Cl4   Cl    Cl    0.225677 0.553268 0.175237 -0.599889
Cl5   Cl    Cl    0.959183 0.021732 0.221075 -0.586291
Cl6   Cl    Cl    0.040816 0.978274 0.778925 -0.586292
Cl7   Cl    Cl    0.540816 0.521730 0.278925 -0.586291
Cl8   Cl    Cl    0.459184 0.478279 0.721075 -0.586292

loop_
_geom_bond_atom_site_label_1
_geom_bond_atom_site_label_2
_ccdc_geom_bond_type
O17   V3    S    
O1    C5    A    
C8    C37   S    
C16   C36   A    
C31   C35   A    
O19   V1    S    
O13   V1    S    
O23   H3    S    
O3    C7    A    
C11   C12   S    
C26   O22   S    
C20   O28   S    
O15   V3    S    
C10   C42   T    
O27   H7    S    
C9    C41   T    
C33   C38   A    
O25   H5    S    
O7    C3    A    
C35   C40   A    
C26   C30   A    
C36   C39   A    
O9    V1    S    
C14   C18   A    
O16   V4    S    
O4    C8    A    
O1    V3    S    
O2    V4    S    
C18   C22   A    
O3    V1    S    
C5    C40   S    
C6    C39   S    
C14   C34   A    
C29   C37   A    
C1    O15   A    
C7    C38   S    
C2    O16   A    
C31   C39   A    
O2    C6    A    
C32   C40   A    
O14   V2    S    
C11   C43   T    
C16   C20   A    
C3    C42   S    
C22   Cl1   S    
C28   O24   S    
C34   C37   A    
O11   C7    A    
C18   O26   S    
O12   C8    A    
C25   O21   S    
O10   V2    S    
C15   Cl7   S    
O5    V1    S    
O7    V3    S    
O8    V4    S    
C29   C33   A    
O18   V4    S    
C23   C27   A    
C30   C38   A    
C2    C43   S    
C32   C36   A    
O24   H4    S    
O5    C1    A    
O28   H8    S    
C21   C25   A    
O8    C4    A    
C15   C35   A    
C9    C10   S    
C24   Cl3   S    
O9    C5    A    
C16   Cl8   S    
O6    V2    S    
C19   O27   S    
C30   C34   A    
C14   Cl6   S    
C3    O13   A    
C27   O23   S    
O6    C2    A    
C15   C19   A    
C12   C44   T    
O11   V3    S    
O12   V4    S    
C4    C41   S    
C22   C26   A    
C13   Cl5   S    
C23   Cl4   S    
O10   C6    A    
O20   V2    S    
C21   Cl2   S    
C1    C44   S    
O22   H2    S    
C17   O25   S    
C25   C29   A    
C27   C31   A    
C13   C17   A    
O21   H1    S    
O4    V2    S    
O26   H6    S    
C28   C32   A    
C24   C28   A    
C4    O14   A    
C17   C21   A    
C19   C23   A    
C13   C33   A    
C20   C24   A    
