data_mof_unit_59607.cif
_audit_creation_date              2012-12-10T17:54:24-0500
_audit_creation_method            fapswitch 2.2
_symmetry_space_group_name_H-M    P1
_symmetry_Int_Tables_number       1
_space_group_crystal_system       triclinic
_cell_length_a                    27.195519
_cell_length_b                    10.568311
_cell_length_c                    9.96403
_cell_angle_alpha                 89.256453
_cell_angle_beta                  92.535281
_cell_angle_gamma                 94.863846
_cell_volume                      2850.54092557

loop_
_atom_site_label
_atom_site_type_symbol
_atom_type_description
_atom_site_fract_x
_atom_site_fract_y
_atom_site_fract_z
_atom_type_partial_charge
C1    C     C_R   0.506453 0.262468 0.501213 0.938394
C2    C     C_R   0.267559 0.500909 0.475661 -0.092818
C3    C     C_R   0.261256 0.614020 0.542403 0.299950
C4    C     C_R   0.114033 0.652459 0.628605 -0.051957
C5    C     C_R   0.140449 0.559855 0.695656 -0.025441
C6    C     C_R   0.115934 0.470722 0.779371 -0.130275
C7    C     C_R   0.139254 0.744369 0.547490 -0.021380
C8    C     C_R   0.355998 0.545723 0.497298 -0.023978
C9    C     C_R   0.648867 0.513497 0.513298 -0.188937
C10   C     C_R   0.984791 0.530653 0.695304 0.044717
C11   C     C_R   0.983614 0.736498 0.575700 0.043888
C12   C     C_R   0.406025 0.505471 0.497893 0.892792
C13   C     C_R   0.958375 0.625236 0.629117 0.076068
C14   C     C_R   0.958293 0.417775 0.738885 -0.218322
C15   C     C_R   0.907493 0.398487 0.717338 -0.141865
C16   C     C_R   0.881160 0.491776 0.653824 -0.021914
C17   C     C_R   0.906270 0.606707 0.612713 -0.056190
C18   C     C_R   0.879307 0.702020 0.552808 -0.048093
C19   C     C_R   0.827911 0.680353 0.534678 0.584820
C20   C     C_R   0.830116 0.471754 0.628171 0.480644
C21   C     C_R   0.722889 0.517033 0.657960 -0.182812
C22   C     C_R   0.672084 0.497911 0.640462 -0.310160
C23   C     C_R   0.506557 0.740043 0.499740 0.845661
C24   C     C_R   0.677833 0.547665 0.402025 0.345342
C25   C     C_R   0.729857 0.551396 0.417762 0.417122
C26   C     C_R   0.752031 0.544111 0.547687 0.166544
C27   C     C_R   0.036908 0.548296 0.708716 0.042936
C28   C     C_R   0.062162 0.649642 0.638112 0.073121
C29   C     C_R   0.035879 0.744562 0.571988 0.041990
C30   C     C_R   0.064959 0.464897 0.786008 -0.217779
C31   C     C_R   0.113430 0.839482 0.485425 -0.131220
C32   C     C_R   0.955370 0.833460 0.523086 -0.214008
C33   C     C_R   0.904118 0.816494 0.512478 -0.135017
C34   C     C_R   0.594538 0.503024 0.503004 0.879561
C35   C     C_R   0.062746 0.840406 0.498171 -0.213558
C36   C     C_R   0.568051 0.141434 0.717937 -0.187267
C37   C     C_R   0.592755 0.077701 0.820476 -0.134504
C38   C     C_R   0.595460 0.947033 0.813826 -0.145044
C39   C     C_R   0.572774 0.879123 0.705670 -0.192796
C40   C     C_R   0.545347 0.940706 0.604777 0.118792
C41   C     C_R   0.543951 0.073779 0.608804 0.072300
C42   C     C_R   0.519808 0.133442 0.499468 -0.120864
C43   C     C_R   0.509470 0.068242 0.379173 -0.202068
C44   C     C_R   0.508076 0.939187 0.378521 -0.257232
C45   C     C_R   0.190589 0.555370 0.672899 0.507521
C46   C     C_R   0.520142 0.874554 0.496285 -0.116192
C47   C     C_R   0.438191 0.300608 0.122217 -0.234687
C48   C     C_R   0.417375 0.196489 0.041675 0.280766
C49   C     C_R   0.418374 0.208545 0.901914 0.437273
C50   C     C_R   0.442830 0.315140 0.847648 -0.278215
C51   C     C_R   0.471957 0.405901 0.923378 0.097290
C52   C     C_R   0.470884 0.403369 0.067333 0.040838
C53   C     C_R   0.527909 0.587882 0.073720 -0.068693
C54   C     C_R   0.528291 0.586829 0.931456 -0.116013
C55   C     C_R   0.189326 0.734371 0.524745 0.512466
C56   C     C_R   0.302250 0.696818 0.579174 -0.091738
C57   C     C_R   0.349426 0.662728 0.556272 -0.235130
C58   C     C_R   0.314748 0.466353 0.453900 -0.165081
H1    H     H_    0.318254 0.375451 0.409752 0.164237
H2    H     H_    0.297667 0.784564 0.630300 0.144815
H3    H     H_    0.132070 0.911877 0.423408 0.190576
H4    H     H_    0.971844 0.924249 0.490097 0.142435
H5    H     H_    0.884082 0.892712 0.469509 0.188251
H6    H     H_    0.045308 0.913740 0.442570 0.144051
H7    H     H_    0.498517 0.115545 0.287053 0.168835
H8    H     H_    0.570232 0.243670 0.723091 0.172057
H9    H     H_    0.611209 0.130496 0.903295 0.139745
H10   H     H_    0.235781 0.436776 0.446732 0.145534
H11   H     H_    0.616039 0.898521 0.891301 0.127448
H12   H     H_    0.578410 0.779504 0.699186 0.146644
H13   H     H_    0.494587 0.890364 0.287564 0.174412
H14   H     H_    0.550625 0.660413 0.128363 0.134284
H15   H     H_    0.436252 0.326028 0.742896 0.255734
H16   H     H_    0.551860 0.657622 0.880903 0.119963
H17   H     H_    0.135802 0.401726 0.836255 0.193351
H18   H     H_    0.650896 0.474267 0.728208 0.196024
H19   H     H_    0.739794 0.510457 0.758023 0.179729
H20   H     H_    0.888988 0.309205 0.749787 0.189307
H21   H     H_    0.976063 0.339411 0.784103 0.144218
H22   H     H_    0.048430 0.393574 0.852305 0.145144
H23   H     H_    0.381006 0.726262 0.587295 0.138194
N1    N     N_R   0.213182 0.637699 0.583266 -0.354966
N2    N     N_R   0.804567 0.565332 0.569041 -0.327288
N3    N     N_R   0.499540 0.498800 0.142780 -0.103720
N4    N     N_R   0.499520 0.498720 0.857170 -0.096665
O1    O     O_R   0.500000 0.316780 0.614690 -0.654768
O2    O     O_2   0.806214 0.359114 0.660832 -0.577799
O3    O     O_2   0.213447 0.817436 0.441479 -0.561638
O4    O     O_2   0.801433 0.773558 0.483631 -0.551598
O5    O     O_R   0.500000 0.316750 0.385360 -0.603569
O6    O     O_R   0.428760 0.500030 0.614650 -0.619219
O7    O     O_R   0.428750 0.500010 0.385320 -0.587620
O8    O     O_R   0.500000 0.683250 0.614640 -0.622844
O9    O     O_R   0.500000 0.683220 0.385310 -0.635125
O10   O     O_R   0.571250 0.499990 0.614680 -0.649670
O11   O     O_R   0.571240 0.499970 0.385350 -0.569045
O12   O     O_2   0.216391 0.467108 0.736767 -0.540466
Zn1   Zn    Zn3+2 0.500000 0.500020 0.653130 0.915364
Zn2   Zn    Zn3+2 0.500000 0.499980 0.346870 0.964654
O13   O     O_3   0.655137 0.573667 0.278436 -0.635099
C59   C     C_3   0.663395 0.704626 0.245621 0.105403
H24   H     H_    0.651501 0.716169 0.138355 0.148499
H25   H     H_    0.703145 0.739485 0.253566 0.195023
C60   C     C_3   0.633184 0.787563 0.330674 -0.397591
H26   H     H_    0.593766 0.750989 0.324141 0.239592
H27   H     H_    0.646450 0.784256 0.437648 0.217479
C61   C     C_3   0.637633 0.925545 0.282469 -0.921820
H28   H     H_    0.676963 0.964034 0.286031 0.274457
H29   H     H_    0.616943 0.983762 0.348672 0.283771
H30   H     H_    0.621963 0.932788 0.178038 0.249519
O14   O     O_3   0.759489 0.572746 0.308783 -0.632655
C62   C     C_3   0.757278 0.462598 0.228682 0.079656
H31   H     H_    0.766941 0.493574 0.125472 0.175672
H32   H     H_    0.719645 0.411816 0.219362 0.155336
C63   C     C_3   0.794854 0.371933 0.282029 -0.376862
H33   H     H_    0.832014 0.424229 0.293187 0.239372
H34   H     H_    0.784129 0.334445 0.382148 0.247694
C64   C     C_3   0.797292 0.260307 0.187649 -0.906316
H35   H     H_    0.760606 0.205727 0.176683 0.264103
H36   H     H_    0.824525 0.196129 0.229507 0.273672
H37   H     H_    0.809034 0.294736 0.087248 0.269215
C65   C     C_2   0.404805 0.319635 0.228754 1.116650
O15   O     O_2   0.371039 0.387427 0.205908 -0.631702
O16   O     O_R   0.406310 0.244908 0.345533 -0.829811
H38   H     H_    0.377882 0.252905 0.405702 0.312842
O17   O     O_3   0.381511 0.109031 0.092609 -0.598881
C66   C     C_3   0.403925 0.010331 0.162740 0.027402
H39   H     H_    0.419246 0.043505 0.261347 0.205773
H40   H     H_    0.434019 0.974528 0.105462 0.119658
C67   C     C_3   0.364708 0.901340 0.190060 -0.319377
H41   H     H_    0.337642 0.934433 0.259392 0.254281
H42   H     H_    0.344160 0.870984 0.095729 0.226800
C68   C     C_3   0.387739 0.786747 0.252867 -0.877934
H43   H     H_    0.415691 0.752898 0.187000 0.262680
H44   H     H_    0.358467 0.708407 0.265931 0.291666
H45   H     H_    0.405499 0.811837 0.352504 0.254620
O18   O     O_3   0.387229 0.134939 0.813146 -0.611041
C69   C     C_3   0.392497 0.002892 0.822923 0.145979
H46   H     H_    0.370148 0.957234 0.737943 0.148880
H47   H     H_    0.375232 0.961144 0.912426 0.184389
C70   C     C_3   0.445696 0.967025 0.811000 -0.452020
H48   H     H_    0.456060 0.983390 0.705594 0.240902
H49   H     H_    0.472197 0.025415 0.877472 0.217842
C71   C     C_3   0.450012 0.828053 0.848891 -0.882120
H50   H     H_    0.438566 0.808196 0.952982 0.247345
H51   H     H_    0.488947 0.806882 0.843332 0.282131
H52   H     H_    0.426839 0.764600 0.779741 0.276368

loop_
_geom_bond_atom_site_label_1
_geom_bond_atom_site_label_2
_ccdc_geom_bond_type
C10   C27   A    
C21   C26   A    
C20   O2    S    
C40   C41   A    
O17   C66   S    
C49   O18   S    
C41   C42   A    
C31   H3    S    
C12   O6    A    
O14   C62   S    
C22   H18   S    
C51   N4    A    
C62   H32   S    
O10   Zn1   S    
C6    H17   S    
C53   C54   A    
C40   C46   A    
C1    O5    A    
C53   N3    A    
C36   C37   A    
C34   O11   A    
C2    H10   S    
C71   H52   S    
C5    C6    A    
C36   H8    S    
C9    C22   A    
C15   H20   S    
C63   H33   S    
O11   Zn2   S    
C26   N2    S    
C56   C57   A    
C44   H13   S    
C18   C19   A    
C55   O3    S    
C52   N3    A    
C64   H35   S    
C62   H31   S    
N4    Zn1   S    
C8    C58   A    
C54   H16   S    
C45   N1    A    
C16   C17   A    
C63   H34   S    
C68   H45   S    
C61   H28   S    
C35   H6    S    
C7    C55   A    
C8    C12   S    
C33   H5    S    
C30   H22   S    
C38   H11   S    
C59   H25   S    
C23   C46   S    
C21   C22   A    
C27   C30   A    
C61   H29   S    
C36   C41   A    
C4    C7    A    
C19   N2    A    
C60   H27   S    
C60   H26   S    
C4    C28   A    
C44   C46   A    
C17   C18   A    
C38   C39   A    
C7    C31   A    
C51   C52   A    
C59   H24   S    
C34   O10   A    
C71   H51   S    
C10   C14   A    
C70   C71   S    
C39   C40   A    
C71   H50   S    
C47   C65   S    
C25   C26   A    
C5    C45   A    
C69   C70   S    
C23   O8    A    
C64   H37   S    
C67   H42   S    
C43   C44   A    
C66   H40   S    
C37   C38   A    
C19   O4    S    
C8    C57   A    
C3    C56   A    
C47   C48   A    
C43   H7    S    
C63   C64   S    
C3    N1    S    
C50   C51   A    
C16   C20   A    
C14   H21   S    
C24   C25   A    
C55   N1    A    
C69   H47   S    
C48   C49   A    
C6    C30   A    
C11   C32   A    
C59   C60   S    
C68   H43   S    
C61   H30   S    
C31   C35   A    
C50   H15   S    
C67   C68   S    
C42   C43   A    
C65   O16   S    
C66   H39   S    
O5    Zn2   S    
C1    O1    A    
C28   C29   A    
C24   O13   S    
N3    Zn2   S    
C12   O7    A    
C4    C5    A    
C10   C13   A    
C54   N4    A    
C2    C58   A    
C9    C24   A    
C47   C52   A    
O18   C69   S    
C29   C35   A    
C23   O9    A    
C13   C17   A    
C32   C33   A    
C70   H49   S    
C67   H41   S    
C58   H1    S    
C66   C67   S    
C32   H4    S    
C45   O12   S    
C70   H48   S    
C11   C13   A    
C9    C34   S    
O9    Zn2   S    
C37   H9    S    
O13   C59   S    
C39   H12   S    
C2    C3    A    
C57   H23   S    
C62   C63   S    
O6    Zn1   S    
O1    Zn1   S    
C18   C33   A    
C64   H36   S    
C69   H46   S    
C25   O14   S    
C48   O17   S    
C56   H2    S    
C1    C42   S    
C11   C29   A    
C49   C50   A    
C20   N2    A    
C21   H19   S    
C27   C28   A    
C68   H44   S    
C14   C15   A    
C65   O15   D    
C53   H14   S    
O8    Zn1   S    
C60   C61   S    
C15   C16   A    
O7    Zn2   S    
O16   H38   S    
