data_mof_unit_58993.cif
_audit_creation_date              2012-12-10T17:48:46-0500
_audit_creation_method            fapswitch 2.2
_symmetry_space_group_name_H-M    P1
_symmetry_Int_Tables_number       1
_space_group_crystal_system       triclinic
_cell_length_a                    15.747966
_cell_length_b                    10.617671
_cell_length_c                    10.060972
_cell_angle_alpha                 90.113644
_cell_angle_beta                  91.499308
_cell_angle_gamma                 94.293455
_cell_volume                      1676.95376644

loop_
_atom_site_label
_atom_site_type_symbol
_atom_type_description
_atom_site_fract_x
_atom_site_fract_y
_atom_site_fract_z
_atom_type_partial_charge
C1    C     C_R   0.511028 0.262020 0.501723 0.955227
C2    C     C_R   0.540819 0.058660 0.875770 0.224348
C3    C     C_R   0.550742 0.928520 0.870008 0.392347
C4    C     C_R   0.338789 0.500540 0.498593 0.904001
C5    C     C_R   0.572094 0.877562 0.748943 -0.032688
C6    C     C_R   0.550582 0.938974 0.630279 -0.129353
C7    C     C_R   0.547335 0.070352 0.633372 -0.070214
C8    C     C_R   0.539623 0.134054 0.509224 -0.135715
C9    C     C_R   0.563370 0.074167 0.392159 0.413686
C10   C     C_R   0.567764 0.942366 0.393027 -0.139869
C11   C     C_R   0.543332 0.874925 0.507049 -0.156540
C12   C     C_3   0.953384 0.484921 0.649825 0.780585
C13   C     C_R   0.360107 0.375428 0.129608 0.474644
C14   C     C_R   0.283208 0.345776 0.056784 -0.109493
C15   C     C_R   0.282943 0.354967 0.920311 -0.390252
C16   C     C_R   0.514040 0.739794 0.501190 0.859858
C17   C     C_R   0.359883 0.380235 0.856984 0.504925
C18   C     C_R   0.429146 0.447911 0.924884 0.010374
C19   C     C_R   0.429424 0.445942 0.068644 -0.058913
C20   C     C_R   0.570151 0.539726 0.075654 0.517608
C21   C     C_R   0.572010 0.529135 0.933544 -0.107514
C22   C     C_R   0.661166 0.502344 0.501609 0.850662
C23   C     C_3   0.917293 0.517872 0.507060 -0.066455
C24   C     C_3   0.051831 0.472596 0.640757 0.025518
C25   C     C_3   0.041533 0.416705 0.394954 0.596751
C26   C     C_3   0.940886 0.414976 0.402981 0.615594
C27   C     C_1   0.750030 0.509707 0.505902 -0.067631
C28   C     C_3   0.083248 0.515425 0.499313 -0.009858
C29   C     C_1   0.645129 0.803653 0.746621 0.257077
C30   C     C_1   0.613484 0.881292 0.291995 0.223072
C31   C     C_1   0.210816 0.275881 0.113483 0.254534
C32   C     C_1   0.654534 0.517070 0.878748 0.270636
C33   C     C_1   0.095581 0.745055 0.568338 0.267662
C34   C     C_3   0.956374 0.651273 0.461899 -0.440328
C35   C     C_1   0.090221 0.700761 0.339543 0.260808
C36   C     C_1   0.920714 0.758434 0.531142 0.245953
C37   C     C_3   0.056636 0.653988 0.467960 -0.135660
C38   C     C_1   0.825390 0.515510 0.508517 0.225556
C39   C     C_1   0.175172 0.510555 0.496525 0.128538
C40   C     C_1   0.250159 0.505498 0.495941 -0.188625
C41   C     C_R   0.558328 0.130746 0.760175 0.386090
H1    H     H_    0.934453 0.666623 0.358070 0.179613
H2    H     H_    0.519750 0.896375 0.052563 0.379007
H3    H     H_    0.684753 0.623609 0.091884 0.333880
H4    H     H_    0.323058 0.267621 0.279557 0.322130
H5    H     H_    0.320660 0.262820 0.714158 0.317121
H6    H     H_    0.044705 0.386073 0.202719 0.355694
H7    H     H_    0.048832 0.235968 0.356548 0.352183
H8    H     H_    0.903242 0.236675 0.370287 0.364223
H9    H     H_    0.930039 0.508784 0.232343 0.347203
H10   H     H_    0.063281 0.370719 0.653722 0.183073
H11   H     H_    0.227841 0.314593 0.863706 0.166619
H12   H     H_    0.934100 0.354299 0.784233 0.363251
H13   H     H_    0.151135 0.499104 0.761050 0.347971
H14   H     H_    0.974152 0.651385 0.739842 0.372392
H15   H     H_    0.604985 0.095192 0.210646 0.373952
H16   H     H_    0.625872 0.259107 0.863853 0.338845
H17   H     H_    0.508572 0.201690 0.977829 0.356006
N1    N     N_R   0.499210 0.498800 0.142780 -0.096781
N2    N     N_R   0.499180 0.498720 0.857170 -0.106550
N3    N     N_1   0.706114 0.749946 0.741546 -0.186581
N4    N     N_1   0.652609 0.834754 0.212447 -0.125276
N5    N     N_1   0.153465 0.217353 0.157594 -0.194544
N6    N     N_1   0.722068 0.504411 0.840239 -0.096341
N7    N     N_1   0.126069 0.816244 0.646285 -0.154566
N8    N     N_1   0.116468 0.737531 0.239273 -0.139963
N9    N     N_1   0.892765 0.841999 0.584652 -0.141720
O1    O     O_R   0.500000 0.316780 0.614690 -0.517327
O2    O     O_3   0.097173 0.539843 0.744388 -0.744882
O3    O     O_3   0.933067 0.576503 0.744065 -0.713682
O4    O     O_3   0.584644 0.147623 0.282619 -0.701572
O5    O     O_3   0.604202 0.246574 0.771059 -0.720167
O6    O     O_3   0.524782 0.114690 0.995360 -0.768817
O7    O     O_3   0.546863 0.851801 0.980287 -0.761582
O8    O     O_3   0.642083 0.579790 0.149576 -0.711702
O9    O     O_3   0.375281 0.312607 0.245666 -0.698107
O10   O     O_3   0.374131 0.309888 0.746346 -0.717344
O11   O     O_3   0.070160 0.450053 0.266971 -0.773695
O12   O     O_R   0.499990 0.316750 0.385360 -0.496536
O13   O     O_3   0.069683 0.296673 0.427202 -0.762743
O14   O     O_3   0.908051 0.295424 0.447515 -0.675900
O15   O     O_3   0.900956 0.435732 0.277463 -0.769075
O16   O     O_R   0.377150 0.500020 0.614720 -0.578342
O17   O     O_R   0.377140 0.499990 0.385380 -0.577128
O18   O     O_R   0.500010 0.683250 0.614640 -0.615197
O19   O     O_R   0.500000 0.683220 0.385310 -0.599998
O20   O     O_R   0.622860 0.500010 0.614620 -0.608308
O21   O     O_R   0.622850 0.499980 0.385280 -0.537588
O22   O     O_3   0.914303 0.368325 0.691232 -0.686805
Zn1   Zn    Zn3+2 0.500010 0.500020 0.653130 1.033759
Zn2   Zn    Zn3+2 0.499990 0.499980 0.346870 1.084949

loop_
_geom_bond_atom_site_label_1
_geom_bond_atom_site_label_2
_ccdc_geom_bond_type
C25   O13   S    
C34   H1    S    
C14   C31   S    
C36   N9    T    
C33   N7    T    
C7    C8    A    
C25   C28   S    
C4    O16   A    
C12   C23   S    
H4    O9    S    
C35   C37   S    
O19   Zn2   S    
C5    C6    A    
C27   C38   T    
C34   C37   S    
C1    O1    A    
C18   C19   A    
C23   C26   S    
H8    O14   S    
C3    O7    S    
C4    C40   S    
C8    C9    A    
O1    Zn1   S    
C13   O9    S    
O17   Zn2   S    
C22   O21   A    
C9    C10   A    
O12   Zn2   S    
H15   O4    S    
C24   H10   S    
C26   O15   S    
C13   C14   A    
C16   O19   A    
C24   O2    S    
C5    C29   S    
C21   C32   S    
C29   N3    T    
C13   C19   A    
C25   O11   S    
C9    O4    S    
C12   O22   S    
C32   N6    T    
C21   N2    A    
C6    C11   A    
C35   N8    T    
C19   N1    A    
C25   C26   S    
C22   O20   A    
C33   C37   S    
C1    C8    S    
H3    O8    S    
C31   N5    T    
C11   C16   S    
C10   C30   S    
C4    O17   A    
O21   Zn2   S    
C23   C34   S    
C17   O10   S    
C17   C18   A    
N1    Zn2   S    
C15   H11   S    
C20   N1    A    
C2    O6    S    
C41   O5    S    
C18   N2    A    
C26   O14   S    
C22   C27   S    
C30   N4    T    
H12   O22   S    
C16   O18   A    
C1    O12   A    
C39   C40   T    
H9    O15   S    
C15   C17   A    
O16   Zn1   S    
C12   O3    S    
C24   C28   S    
C3    C5    A    
H5    O10   S    
O18   Zn1   S    
C6    C7    A    
N2    Zn1   S    
C23   C38   S    
C12   C24   S    
C28   C39   S    
H7    O13   S    
C2    C3    A    
H13   O2    S    
C28   C37   S    
H2    O7    S    
C34   C36   S    
C7    C41   A    
H16   O5    S    
H14   O3    S    
C10   C11   A    
C20   C21   A    
C20   O8    S    
O20   Zn1   S    
C14   C15   A    
C2    C41   A    
H6    O11   S    
H17   O6    S    
