data_mof_unit_21935.cif
_audit_creation_date              2012-12-10T17:16:36-0500
_audit_creation_method            fapswitch 2.2
_symmetry_space_group_name_H-M    P1
_symmetry_Int_Tables_number       1
_space_group_crystal_system       triclinic
_cell_length_a                    10.129656
_cell_length_b                    10.65511
_cell_length_c                    10.861516
_cell_angle_alpha                 91.891674
_cell_angle_beta                  94.101691
_cell_angle_gamma                 81.924949
_cell_volume                      1157.40217537

loop_
_atom_site_label
_atom_site_type_symbol
_atom_type_description
_atom_site_fract_x
_atom_site_fract_y
_atom_site_fract_z
_atom_type_partial_charge
C1    C     C_R   0.446070 0.503795 0.266786 0.799387
C2    C     C_R   0.554327 0.490051 0.731841 0.899539
C3    C     C_2   0.421098 0.488767 0.133860 0.394756
C4    C     C_2   0.582422 0.480796 0.862370 0.396773
C5    C     C_2   0.521620 0.438197 0.063848 0.241538
C6    C     C_2   0.497966 0.431180 0.930428 0.246696
C7    C     C_2   0.066285 0.510216 0.477549 0.011597
C8    C     C_2   0.927744 0.505851 0.515751 -0.057587
C9    C     C_R   0.492413 0.264450 0.472284 0.903389
C10   C     C_R   0.498633 0.742506 0.493141 0.885519
C11   C     C_R   0.682844 0.090936 0.309709 0.302058
C12   C     C_R   0.234488 0.911408 0.449485 0.311771
C13   C     C_R   0.796441 0.006472 0.284871 0.605875
C14   C     C_R   0.124675 0.996240 0.482715 0.596042
C15   C     C_R   0.824461 0.892840 0.346729 0.465516
C16   C     C_R   0.119320 0.122595 0.454832 0.421629
C17   C     C_R   0.738068 0.863653 0.433979 0.323204
C18   C     C_R   0.232746 0.164070 0.412530 0.283565
C19   C     C_R   0.606212 0.929683 0.430905 -0.081120
C20   C     C_R   0.357689 0.087043 0.431315 -0.067160
C21   C     C_R   0.589348 0.053929 0.388118 -0.216227
C22   C     C_R   0.361403 0.955827 0.447567 -0.249440
C23   C     C_R   0.489987 0.877854 0.462443 -0.041072
C24   C     C_R   0.477960 0.135882 0.424254 -0.024781
H1    H     H_    0.896895 0.553345 0.600956 0.187899
H2    H     H_    0.091054 0.478335 0.385812 0.200553
H3    H     H_    0.874186 0.408510 0.366472 0.248173
H4    H     H_    0.129180 0.580562 0.638014 0.200507
N1    N     N_2   0.157300 0.551390 0.551120 -0.152737
N2    N     N_2   0.842700 0.448610 0.448880 -0.125982
O1    O     O_R   0.568940 0.489660 0.307530 -0.572371
O2    O     O_R   0.431060 0.510340 0.692470 -0.580128
O3    O     O_R   0.348880 0.522640 0.340350 -0.564090
O4    O     O_R   0.651120 0.477360 0.659650 -0.587331
O5    O     O_R   0.610030 0.300280 0.483580 -0.569821
O6    O     O_R   0.389970 0.699720 0.516420 -0.589936
O7    O     O_R   0.389970 0.333270 0.516400 -0.567809
O8    O     O_R   0.610030 0.666730 0.483600 -0.566227
Zn1   Zn    Zn3+2 0.646940 0.477980 0.478080 1.092106
Zn2   Zn    Zn3+2 0.353060 0.522020 0.521920 1.079819
F1    F     F_    0.002012 0.200843 0.458328 -0.639102
F2    F     F_    0.938589 0.814099 0.326872 -0.565407
O9    O     O_3   0.659811 0.201741 0.245768 -0.653627
H5    H     H_    0.562447 0.230974 0.239105 0.321165
O10   O     O_3   0.205225 0.802237 0.388323 -0.602085
H6    H     H_    0.271890 0.779676 0.325726 0.350273
F3    F     F_    0.882433 0.037098 0.204155 -0.559984
F4    F     F_    0.015962 0.953926 0.522521 -0.613130
O11   O     O_3   0.787620 0.791739 0.534786 -0.683996
H7    H     H_    0.885206 0.767258 0.530540 0.394755
O12   O     O_3   0.222638 0.270430 0.341871 -0.740374
H8    H     H_    0.130064 0.286387 0.303935 0.370645
O13   O     O_3   0.392529 0.374821 0.875665 -0.724249
H9    H     H_    0.351459 0.333018 0.940602 0.375948
O14   O     O_3   0.650765 0.404169 0.114518 -0.662875
H10   H     H_    0.703172 0.350451 0.053766 0.395927
F5    F     F_    0.690223 0.531248 0.914406 -0.626681
F6    F     F_    0.295693 0.525638 0.082267 -0.621292

loop_
_geom_bond_atom_site_label_1
_geom_bond_atom_site_label_2
_ccdc_geom_bond_type
C4    F5    S    
N2    Zn1   S    
C19   C23   A    
O14   H10   S    
C9    C24   S    
C11   O9    S    
C7    N1    D    
C10   C23   S    
C2    C4    S    
C11   C21   A    
C10   O8    A    
O9    H5    S    
C8    N2    D    
C2    O4    A    
C9    O7    A    
C12   C14   A    
C3    C5    D    
C1    O3    A    
C7    C8    S    
C16   C18   A    
O13   H9    S    
H3    N2    S    
C8    H1    S    
C11   C13   A    
C5    C6    S    
C7    H2    S    
O5    Zn1   S    
N1    Zn2   S    
C4    C6    D    
H4    N1    S    
C19   C21   A    
O1    Zn1   S    
C18   O12   S    
O7    Zn2   S    
C18   C20   A    
C13   C15   A    
O8    Zn1   S    
C14   C16   A    
O3    Zn2   S    
C6    O13   S    
C9    O5    A    
O4    Zn1   S    
C3    F6    S    
C12   C22   A    
C1    O1    A    
O2    Zn2   S    
C2    O2    A    
O11   H7    S    
C21   C24   A    
C17   O11   S    
C1    C3    S    
C15   C17   A    
C20   C24   A    
C22   C23   A    
O6    Zn2   S    
C14   F4    S    
C17   C19   A    
O10   H6    S    
C13   F3    S    
C16   F1    S    
C5    O14   S    
O12   H8    S    
C15   F2    S    
C20   C22   A    
C12   O10   S    
C10   O6    A    
