data_mof_unit_13877.cif
_audit_creation_date              2012-10-26T19:02:38-0400
_audit_creation_method            fapswitch 2.2
_symmetry_space_group_name_H-M    P1
_symmetry_Int_Tables_number       1
_space_group_crystal_system       triclinic
_cell_length_a                    17.266834
_cell_length_b                    8.821311
_cell_length_c                    7.425112
_cell_angle_alpha                 102.585389
_cell_angle_beta                  92.210532
_cell_angle_gamma                 94.670407
_cell_volume                      1098.27967845

loop_
_atom_site_label
_atom_site_type_symbol
_atom_type_description
_atom_site_fract_x
_atom_site_fract_y
_atom_site_fract_z
_atom_type_partial_charge
C1    C     C_R   0.493094 0.199963 0.456040 0.565179
C2    C     C_R   0.782828 0.609928 0.644510 -0.006250
C3    C     C_R   0.141383 0.570366 0.391037 -0.096864
C4    C     C_R   0.861204 0.653992 0.628923 -0.100026
C5    C     C_R   0.112181 0.612454 0.565591 0.031220
C6    C     C_R   0.895056 0.622784 0.459270 0.028356
C7    C     C_R   0.161389 0.624538 0.722677 -0.133076
C8    C     C_R   0.848885 0.556541 0.298468 -0.127658
C9    C     C_R   0.238476 0.590631 0.705166 -0.160615
C10   C     C_R   0.769525 0.518090 0.308282 -0.155293
C11   C     C_2   0.028503 0.625466 0.585939 -0.135468
C12   C     C_R   0.504676 0.799865 0.545454 0.544668
C13   C     C_2   0.979704 0.648855 0.450450 -0.139245
C14   C     C_3   0.241700 0.497307 0.170143 -0.244664
C15   C     C_3   0.237157 0.320348 0.101544 -0.293304
C16   C     C_3   0.251731 0.272141 0.896447 -0.458577
C17   C     C_3   0.756283 0.641436 0.841166 -0.244069
C18   C     C_3   0.720895 0.797290 0.891289 -0.296705
C19   C     C_3   0.711858 0.847515 0.099265 -0.461226
C20   C     C_3   0.414685 0.940816 0.300322 -0.252874
C21   C     C_3   0.350727 0.034931 0.244563 -0.309287
C22   C     C_3   0.281133 0.927092 0.144428 -0.477919
C23   C     C_2   0.478391 0.033550 0.441804 -0.036669
C24   C     C_3   0.572545 0.053179 0.727155 -0.241886
C25   C     C_3   0.650353 0.110295 0.660020 -0.286451
C26   C     C_3   0.701433 0.210838 0.821180 -0.447720
C27   C     C_2   0.515448 0.966749 0.566891 -0.040009
C28   C     C_R   0.350983 0.510954 0.522430 0.532937
C29   C     C_R   0.649698 0.508493 0.479929 0.534518
C30   C     C_R   0.268216 0.543731 0.530466 0.014179
C31   C     C_R   0.735021 0.542529 0.479514 0.013490
C32   C     C_R   0.218814 0.539665 0.369323 -0.009094
Cu1   Cu    Cu3+1 0.508700 0.517250 0.683000 0.902391
Cu2   Cu    Cu3+1 0.491300 0.482750 0.317000 0.899702
H1    H     H_    0.735169 0.467794 0.181266 0.115464
H2    H     H_    0.558424 0.628193 0.044479 0.234819
H3    H     H_    0.203776 0.304254 0.812261 0.162625
H4    H     H_    0.307821 0.329309 0.866528 0.160881
H5    H     H_    0.253952 0.143851 0.856200 0.141184
H6    H     H_    0.280885 0.275115 0.182354 0.181218
H7    H     H_    0.178735 0.267381 0.124668 0.156339
H8    H     H_    0.200578 0.542131 0.080197 0.114625
H9    H     H_    0.298773 0.556184 0.149749 0.175469
H10   H     H_    0.679630 0.753477 0.151449 0.155274
H11   H     H_    0.769999 0.875622 0.174035 0.157499
H12   H     H_    0.275000 0.599935 0.829180 0.122131
H13   H     H_    0.679412 0.952970 0.129133 0.136701
H14   H     H_    0.759018 0.888670 0.847401 0.157691
H15   H     H_    0.663298 0.786160 0.817049 0.193768
H16   H     H_    0.716628 0.545373 0.867226 0.164536
H17   H     H_    0.807041 0.645706 0.939535 0.121501
H18   H     H_    0.299583 0.852664 0.015827 0.157642
H19   H     H_    0.256250 0.852315 0.234339 0.154346
H20   H     H_    0.234760 0.996434 0.107352 0.143145
H21   H     H_    0.330722 0.112368 0.369800 0.159303
H22   H     H_    0.373928 0.105677 0.148718 0.186496
H23   H     H_    0.001163 0.673471 0.323602 0.107691
H24   H     H_    0.442207 0.881966 0.174046 0.170737
H25   H     H_    0.383500 0.850960 0.362044 0.170026
H26   H     H_    0.717970 0.141175 0.921648 0.142352
H27   H     H_    0.755152 0.260152 0.769278 0.139048
H28   H     H_    0.669069 0.307273 0.894066 0.169693
H29   H     H_    0.681204 0.008201 0.595013 0.142517
H30   H     H_    0.641281 0.180014 0.554809 0.186385
H31   H     H_    0.545522 0.146982 0.821284 0.180718
H32   H     H_    0.586322 0.976793 0.821696 0.140466
H33   H     H_    0.005833 0.600358 0.711692 0.110987
H34   H     H_    0.139542 0.657540 0.859138 0.094988
H35   H     H_    0.874659 0.531340 0.165749 0.095071
H36   H     H_    0.896486 0.713050 0.751848 0.097882
H37   H     H_    0.103029 0.553262 0.268441 0.094999
H38   H     H_    0.441658 0.371418 0.955586 0.229576
N1    N     N_2   0.478180 0.456750 0.041980 -0.269305
N2    N     N_2   0.521820 0.543250 0.958020 -0.267904
O1    O     O_R   0.505650 0.286040 0.618880 -0.512354
O2    O     O_R   0.494350 0.713960 0.381120 -0.519818
O3    O     O_R   0.490960 0.256910 0.309800 -0.506024
O4    O     O_R   0.509040 0.743090 0.690200 -0.514602
O5    O     O_R   0.394600 0.516230 0.672450 -0.509528
O6    O     O_R   0.605400 0.483770 0.327550 -0.508241
O7    O     O_R   0.379910 0.487100 0.363380 -0.517049
O8    O     O_R   0.620090 0.512900 0.636620 -0.512664

loop_
_geom_bond_atom_site_label_1
_geom_bond_atom_site_label_2
_ccdc_geom_bond_type
C1    O3    A    
N1    N2    D    
C2    C4    A    
C24   C27   S    
C17   H17   S    
C4    H36   S    
C21   H21   S    
C22   H20   S    
C8    H35   S    
C26   H27   S    
C5    C11   S    
Cu2   O3    S    
C19   H13   S    
Cu1   O4    S    
C13   H23   S    
C15   C16   S    
C18   C19   S    
C25   H29   S    
C28   O5    A    
Cu2   O6    S    
C7    H34   S    
C10   C31   A    
Cu1   O1    S    
C12   O4    A    
C10   H1    S    
Cu2   O7    S    
C23   C27   D    
Cu1   O8    S    
C24   H32   S    
C16   H3    S    
C14   H8    S    
C9    H12   S    
C21   C22   S    
C2    C17   S    
C11   H33   S    
Cu1   Cu2   S    
C22   H19   S    
C12   C27   S    
C1    O1    A    
C24   C25   S    
C15   H7    S    
C4    C6    A    
C5    C7    A    
Cu1   O5    S    
C6    C8    A    
Cu2   N1    S    
C25   C26   S    
C2    C31   A    
C25   H30   S    
C3    H37   S    
C20   C23   S    
C17   C18   S    
C20   H25   S    
H2    N2    S    
C9    C30   A    
C24   H31   S    
C1    C23   S    
C12   O2    A    
C20   H24   S    
C19   H10   S    
C22   H18   S    
C7    C9    A    
C28   O7    A    
C14   C32   S    
H38   N1    S    
C3    C5    A    
C18   H14   S    
C17   H16   S    
C21   H22   S    
C19   H11   S    
C28   C30   S    
C26   H28   S    
C29   O8    A    
C29   C31   S    
C6    C13   S    
C30   C32   A    
C11   C13   D    
C29   O6    A    
C3    C32   A    
C15   H6    S    
C16   H5    S    
Cu1   N2    S    
C20   C21   S    
C8    C10   A    
C16   H4    S    
C14   C15   S    
C26   H26   S    
C18   H15   S    
Cu2   O2    S    
C14   H9    S    
