data_mof_unit_24209.cif
_audit_creation_date              2012-12-10T17:01:35-0500
_audit_creation_method            fapswitch 2.2
_symmetry_space_group_name_H-M    P1
_symmetry_Int_Tables_number       1
_space_group_crystal_system       triclinic
_cell_length_a                    9.847464
_cell_length_b                    11.064182
_cell_length_c                    13.002786
_cell_angle_alpha                 89.578961
_cell_angle_beta                  75.942518
_cell_angle_gamma                 111.64532
_cell_volume                      1269.96848298

loop_
_atom_site_label
_atom_site_type_symbol
_atom_type_description
_atom_site_fract_x
_atom_site_fract_y
_atom_site_fract_z
_atom_type_partial_charge
C1    C     C_R   0.438186 0.253187 0.508180 0.742529
C2    C     C_R   0.561836 0.746830 0.491630 0.742396
C3    C     C_2   0.083306 0.512207 0.491855 -0.054107
C4    C     C_2   0.916697 0.487802 0.508150 -0.054184
C5    C     C_R   0.473229 0.494521 0.702664 0.819691
C6    C     C_R   0.526769 0.505479 0.297336 0.819264
C7    C     C_R   0.542848 0.511916 0.183121 -0.081856
C8    C     C_R   0.457143 0.488081 0.816881 -0.081859
C9    C     C_R   0.295728 0.434286 0.997590 0.004879
C10   C     C_R   0.704258 0.565675 0.002412 0.004843
C11   C     C_R   0.312971 0.438659 0.888107 -0.232505
C12   C     C_R   0.687021 0.561308 0.111893 -0.232381
C13   C     C_R   0.586105 0.531476 0.854487 -0.270495
C14   C     C_R   0.413881 0.468529 0.145518 -0.270576
C15   C     C_R   0.573478 0.524065 0.963736 0.106264
C16   C     C_R   0.426505 0.475927 0.036269 0.106255
C17   C     C_2   0.400787 0.111624 0.513675 0.191007
C18   C     C_2   0.599309 0.888441 0.485229 0.190514
C19   C     C_2   0.514557 0.069651 0.494443 -0.140582
C20   C     C_2   0.485832 0.930528 0.500225 -0.140242
Cu1   Cu    Cu3+1 0.647370 0.522180 0.481340 0.936132
Cu2   Cu    Cu3+1 0.352630 0.477820 0.518660 0.936098
H1    H     H_    0.303684 0.427727 0.202261 0.176241
H2    H     H_    0.696302 0.572290 0.797747 0.176156
H3    H     H_    0.787165 0.595519 0.141376 0.157576
H4    H     H_    0.212833 0.404407 0.858620 0.157484
H5    H     H_    0.369188 0.861068 0.517447 0.192297
H6    H     H_    0.631361 0.139185 0.474493 0.192226
H7    H     H_    0.833777 0.410617 0.568554 0.159855
H8    H     H_    0.166228 0.589401 0.431458 0.159057
H9    H     H_    0.950466 0.629930 0.398112 0.185916
H10   H     H_    0.049529 0.370051 0.601877 0.185956
N1    N     N_2   0.131210 0.444490 0.546730 -0.291809
N2    N     N_2   0.868790 0.555510 0.453270 -0.292103
O1    O     O_R   0.578710 0.332530 0.490040 -0.598070
O2    O     O_R   0.421290 0.667470 0.509960 -0.598246
O3    O     O_R   0.329810 0.295070 0.521560 -0.569326
O4    O     O_R   0.670190 0.704930 0.478440 -0.569397
O5    O     O_R   0.604230 0.515670 0.637800 -0.573554
O6    O     O_R   0.395770 0.484330 0.362200 -0.573630
O7    O     O_R   0.355330 0.478200 0.669330 -0.593549
O8    O     O_R   0.644670 0.521800 0.330670 -0.593533
C21   C     C_R   0.139735 0.388866 0.068319 0.108435
C22   C     C_R   0.091583 0.475487 0.131227 -0.167210
C23   C     C_R   0.943914 0.433048 0.196808 -0.134068
C24   C     C_R   0.842626 0.304717 0.199199 -0.065779
C25   C     C_R   0.889127 0.218420 0.135705 -0.128136
C26   C     C_R   0.037080 0.260297 0.070130 -0.156702
H11   H     H_    0.168471 0.575584 0.129493 0.129881
H12   H     H_    0.908073 0.500008 0.245373 0.151086
H13   H     H_    0.728172 0.272345 0.249999 0.133072
H14   H     H_    0.810566 0.119102 0.137297 0.131664
H15   H     H_    0.071903 0.192617 0.021237 0.124517
C27   C     C_R   0.860250 0.610954 0.931677 0.108436
C28   C     C_R   0.963051 0.739487 0.929809 -0.157186
C29   C     C_R   0.110996 0.781203 0.864223 -0.128121
C30   C     C_R   0.157338 0.694781 0.800774 -0.064590
C31   C     C_R   0.055902 0.566487 0.803225 -0.134559
C32   C     C_R   0.908244 0.524212 0.868814 -0.167155
H16   H     H_    0.928348 0.807260 0.978665 0.124598
H17   H     H_    0.189669 0.880494 0.862583 0.131991
H18   H     H_    0.271780 0.727025 0.749959 0.134448
H19   H     H_    0.091612 0.499428 0.754697 0.150983
H20   H     H_    0.831238 0.424140 0.870592 0.130034
O9    O     O_3   0.747523 0.978103 0.463982 -0.738335
H21   H     H_    0.817094 0.931009 0.454558 0.345645
O10   O     O_3   0.252319 0.021883 0.538605 -0.738604
H22   H     H_    0.182563 0.068883 0.552244 0.345020

loop_
_geom_bond_atom_site_label_1
_geom_bond_atom_site_label_2
_ccdc_geom_bond_type
C14   H1    S    
C22   H11   S    
C5    C8    S    
C21   C22   A    
C25   H14   S    
Cu1   O1    S    
C20   H5    S    
C10   C15   A    
C2    C18   S    
Cu2   O2    S    
C21   C26   A    
C2    O4    A    
C1    C17   S    
C19   C20   S    
Cu1   O5    S    
C1    O3    A    
C12   H3    S    
C28   C29   A    
Cu2   O6    S    
H10   N1    S    
C5    O5    A    
C30   C31   A    
H9    N2    S    
C30   H18   S    
C29   H17   S    
C24   C25   A    
Cu1   Cu2   S    
C29   C30   A    
C18   O9    S    
C19   H6    S    
C9    C11   A    
C32   H20   S    
C8    C13   A    
C10   C12   A    
C23   H12   S    
C8    C11   A    
C3    H8    S    
C17   C19   D    
C9    C16   A    
C6    C7    S    
C18   C20   D    
C27   C32   A    
C13   C15   A    
C26   H15   S    
C10   C27   S    
C4    N2    D    
C7    C12   A    
C17   O10   S    
Cu2   O7    S    
C9    C21   S    
C3    N1    D    
O10   H22   S    
C25   C26   A    
C23   C24   A    
C6    O6    A    
Cu2   O3    S    
C22   C23   A    
C1    O1    A    
O9    H21   S    
C6    O8    A    
C2    O2    A    
C31   H19   S    
Cu2   N1    S    
C5    O7    A    
C27   C28   A    
Cu1   O8    S    
C11   H4    S    
C14   C16   A    
C28   H16   S    
C31   C32   A    
C24   H13   S    
Cu1   N2    S    
C7    C14   A    
Cu1   O4    S    
C15   C16   A    
C13   H2    S    
C4    H7    S    
C3    C4    S    
