data_mof_unit_12002.cif
_audit_creation_date              2012-12-10T17:50:16-0500
_audit_creation_method            fapswitch 2.2
_symmetry_space_group_name_H-M    P1
_symmetry_Int_Tables_number       1
_space_group_crystal_system       triclinic
_cell_length_a                    10.609613
_cell_length_b                    14.71992
_cell_length_c                    14.619109
_cell_angle_alpha                 64.860481
_cell_angle_beta                  103.33881
_cell_angle_gamma                 102.745037
_cell_volume                      1991.50742021

loop_
_atom_site_label
_atom_site_type_symbol
_atom_type_description
_atom_site_fract_x
_atom_site_fract_y
_atom_site_fract_z
_atom_type_partial_charge
C1    C     C_R   0.481936 0.119383 0.312007 0.881821
C2    C     C_R   0.518064 0.880617 0.687993 0.881822
C3    C     C_R   0.446321 0.282613 0.167678 0.139796
C4    C     C_R   0.553679 0.717387 0.832322 0.139796
C5    C     C_R   0.485446 0.359257 0.076196 0.043900
C6    C     C_R   0.514554 0.640743 0.923804 0.043900
C7    C     C_R   0.522681 0.328621 0.007698 0.058202
C8    C     C_R   0.477319 0.671379 0.992302 0.058202
C9    C     C_R   0.489245 0.464606 0.049985 0.090259
C10   C     C_R   0.510755 0.535394 0.950015 0.090259
C11   C     C_R   0.519704 0.497966 0.877869 -0.150975
C12   C     C_R   0.480296 0.502034 0.122131 -0.150975
C13   C     C_R   0.533882 0.397374 0.907836 -0.178706
C14   C     C_R   0.466118 0.602626 0.092164 -0.178705
C15   C     C_R   0.717451 0.283626 0.669771 -0.298256
C16   C     C_R   0.282548 0.716374 0.330229 -0.298256
C17   C     C_R   0.683580 0.202469 0.639657 0.124493
C18   C     C_R   0.316420 0.797531 0.360343 0.124493
C19   C     C_R   0.518397 0.285401 0.508892 0.020351
C20   C     C_R   0.481603 0.714599 0.491108 0.020351
C21   C     C_R   0.548648 0.371164 0.535243 -0.021615
C22   C     C_R   0.451352 0.628836 0.464757 -0.021615
C23   C     C_R   0.259564 0.000502 0.500011 0.816777
C24   C     C_R   0.740436 0.999498 0.499989 0.816778
C25   C     C_R   0.650247 0.367942 0.618211 0.153674
C26   C     C_R   0.349753 0.632058 0.381789 0.153674
C27   C     C_R   0.481958 0.458783 0.483440 0.078490
C28   C     C_R   0.518042 0.541217 0.516560 0.078490
C29   C     C_R   0.619197 0.533080 0.600402 -0.233205
C30   C     C_R   0.380803 0.466920 0.399598 -0.233205
C31   C     C_R   0.683792 0.448386 0.649731 -0.192085
C32   C     C_R   0.316208 0.551614 0.350269 -0.192086
C33   C     C_3   0.016203 0.011031 0.407198 -0.139606
C34   C     C_3   0.983797 0.988969 0.592802 -0.139606
C35   C     C_3   0.961853 0.087718 0.429156 -0.146994
C36   C     C_3   0.038147 0.912282 0.570844 -0.146994
C37   C     C_3   0.877112 0.998875 0.499763 -0.002818
C38   C     C_3   0.122888 0.001125 0.500237 -0.002818
C39   C     C_3   0.929135 0.922133 0.477791 -0.124924
C40   C     C_3   0.070865 0.077867 0.522208 -0.124924
C41   C     C_R   0.484253 0.186203 0.203809 -0.159101
C42   C     C_R   0.515747 0.813797 0.796191 -0.159101
C43   C     C_R   0.545600 0.228972 0.039092 -0.188506
C44   C     C_R   0.454400 0.771028 0.960908 -0.188507
C45   C     C_R   0.535009 0.159533 0.138754 0.222000
C46   C     C_R   0.464991 0.840467 0.861246 0.222000
Cu1   Cu    Cu3+1 0.465750 0.918270 0.475680 0.986991
Cu2   Cu    Cu3+1 0.534250 0.081730 0.524320 0.986991
H1    H     H_    0.927279 0.159322 0.371102 0.157674
H2    H     H_    0.072721 0.840678 0.628898 0.157674
H3    H     H_    0.559142 0.719937 0.551364 0.156335
H4    H     H_    0.440858 0.280063 0.448635 0.156335
H5    H     H_    0.265385 0.863025 0.320062 0.136095
H6    H     H_    0.734615 0.136975 0.679938 0.136095
H7    H     H_    0.795340 0.280268 0.733389 0.149891
H8    H     H_    0.204660 0.719731 0.266611 0.149891
H9    H     H_    0.651191 0.591149 0.630252 0.174706
H10   H     H_    0.348809 0.408851 0.369748 0.174706
H11   H     H_    0.032824 0.020251 0.331293 0.162082
H12   H     H_    0.967176 0.979749 0.668707 0.162082
H13   H     H_    0.868366 0.858355 0.459660 0.162727
H14   H     H_    0.131634 0.141645 0.540340 0.162727
H15   H     H_    0.551067 0.372875 0.852058 0.157174
H16   H     H_    0.448933 0.627125 0.147942 0.157173
H17   H     H_    0.578340 0.206508 0.987740 0.184214
H18   H     H_    0.421660 0.793491 0.012260 0.184214
H19   H     H_    0.515569 0.545480 0.797510 0.182405
H20   H     H_    0.484431 0.454520 0.202490 0.182405
H21   H     H_    0.760907 0.445773 0.713704 0.160675
H22   H     H_    0.239093 0.554227 0.286296 0.160676
N1    N     N_R   0.585750 0.204560 0.560800 -0.181213
N2    N     N_R   0.414250 0.795440 0.439200 -0.181212
O1    O     O_R   0.454850 0.022100 0.338110 -0.552056
O2    O     O_R   0.545150 0.977900 0.661890 -0.552056
O3    O     O_R   0.512700 0.160150 0.379180 -0.572363
O4    O     O_R   0.487300 0.839850 0.620820 -0.572363
O5    O     O_R   0.287930 0.931000 0.479440 -0.601591
O6    O     O_R   0.712070 0.069000 0.520560 -0.601592
O7    O     O_R   0.345780 0.069050 0.520520 -0.563117
O8    O     O_R   0.654220 0.930950 0.479480 -0.563117
Br1   Br    Br    0.693692 0.706031 0.774296 -0.595928
Br2   Br    Br    0.306308 0.293969 0.225704 -0.595928
Br3   Br    Br    0.405850 0.968773 0.819274 -0.497673
Br4   Br    Br    0.594150 0.031226 0.180725 -0.497673

loop_
_geom_bond_atom_site_label_1
_geom_bond_atom_site_label_2
_ccdc_geom_bond_type
C25   C31   A    
C30   C32   A    
C26   C32   A    
C34   C37   S    
C44   H18   S    
C36   H2    S    
C12   H20   S    
C33   C39   S    
C34   C40   S    
Cu2   O7    S    
C28   C29   A    
C35   C37   S    
Cu1   O4    S    
C20   H3    S    
C15   C25   A    
C40   H14   S    
C42   C46   A    
Cu2   O6    S    
C18   H5    S    
C19   N1    A    
C19   H4    S    
C24   O8    A    
C4    Br1   S    
C44   C46   A    
C35   H1    S    
C7    C43   A    
C9    C10   A    
C2    O2    A    
C21   C27   A    
C33   H11   S    
C22   C28   A    
C27   C30   A    
C34   H12   S    
Cu2   O3    S    
Cu1   O8    S    
C11   H19   S    
C18   N2    A    
C39   H13   S    
C1    O3    A    
Cu2   O2    S    
Cu1   O1    S    
C4    C6    A    
C5    C7    A    
C6    C8    A    
C15   H7    S    
C16   H8    S    
C5    C9    A    
Cu1   Cu2   S    
C13   H15   S    
C7    C13   A    
C43   H17   S    
C14   H16   S    
C3    Br2   S    
C24   C37   S    
C23   O5    A    
C43   C45   A    
C24   O6    A    
C29   H9    S    
C17   N1    A    
C45   Br4   S    
C20   C22   A    
Cu2   N1    S    
C2    O4    A    
C1    C41   S    
C15   C17   A    
C21   C25   A    
C3    C41   A    
C8    C14   A    
C19   C21   A    
C29   C31   A    
C36   C39   S    
C8    C44   A    
C12   C14   A    
C3    C5    A    
C16   C26   A    
C6    C10   A    
C32   H22   S    
C23   C38   S    
C33   C38   S    
C1    O1    A    
C36   C38   S    
C35   C40   S    
C37   C39   S    
C41   C45   A    
C38   C40   S    
C11   C13   A    
C4    C42   A    
C2    C42   S    
C30   H10   S    
C33   C35   S    
C34   C36   S    
C9    C12   A    
Cu1   N2    S    
C10   C11   A    
C46   Br3   S    
C31   H21   S    
C16   C18   A    
C22   C26   A    
C27   C28   A    
Cu1   O5    S    
C20   N2    A    
C23   O7    A    
C17   H6    S    
