data_mof_unit_20659.cif
_audit_creation_date              2012-12-10T17:57:24-0500
_audit_creation_method            fapswitch 2.2
_symmetry_space_group_name_H-M    P1
_symmetry_Int_Tables_number       1
_space_group_crystal_system       triclinic
_cell_length_a                    9.573227
_cell_length_b                    10.841607
_cell_length_c                    13.423654
_cell_angle_alpha                 91.306484
_cell_angle_beta                  72.955775
_cell_angle_gamma                 88.847144
_cell_volume                      1331.1675551

loop_
_atom_site_label
_atom_site_type_symbol
_atom_type_description
_atom_site_fract_x
_atom_site_fract_y
_atom_site_fract_z
_atom_type_partial_charge
C1    C     C_R   0.503862 0.736089 0.486536 0.928536
C2    C     C_R   0.431244 0.495519 0.980266 0.114714
C3    C     C_R   0.460600 0.457312 0.874318 0.000026
C4    C     C_R   0.535689 0.465399 0.033206 0.009760
C5    C     C_R   0.659608 0.388611 0.982730 -0.072625
C6    C     C_R   0.675333 0.339068 0.882985 0.671215
C7    C     C_R   0.576095 0.372186 0.830320 -0.199760
C8    C     C_R   0.521402 0.509973 0.134669 -0.263301
C9    C     C_R   0.745430 0.402772 0.135586 0.586730
C10   C     C_R   0.372699 0.504315 0.814868 -0.061965
C11   C     C_R   0.642601 0.928394 0.453513 0.314568
C12   C     C_R   0.421462 0.497803 0.700054 0.807320
C13   C     C_R   0.638733 0.053003 0.484752 0.347267
C14   C     C_R   0.509715 0.125295 0.491864 -0.272300
C15   C     C_R   0.387979 0.067217 0.476189 -0.278820
C16   C     C_R   0.386285 0.940036 0.462777 0.399134
C17   C     C_R   0.510048 0.868811 0.465460 -0.332276
C18   C     C_R   0.896700 0.566154 0.576418 0.420046
C19   C     C_R   0.044640 0.560695 0.576457 0.730339
C20   C     C_R   0.107076 0.440942 0.422105 -0.193464
C21   C     C_R   0.958915 0.441521 0.421891 -0.031170
C22   C     C_R   0.501952 0.261227 0.500596 0.850073
C23   C     C_R   0.578067 0.496254 0.300243 0.858059
C24   C     C_R   0.764761 0.360554 0.033596 -0.174596
C25   C     C_R   0.620931 0.474730 0.187341 -0.142380
C26   C     C_R   0.242910 0.570652 0.865149 -0.128555
C27   C     C_R   0.204714 0.596382 0.971611 -0.114710
C28   C     C_R   0.298641 0.561994 0.028581 -0.119599
Cu1   Cu    Cu3+1 0.359340 0.499980 0.500000 1.059069
Cu2   Cu    Cu3+1 0.640660 0.500020 0.500000 1.127120
H1    H     H_    0.292226 0.121137 0.474669 0.222816
H2    H     H_    0.188874 0.392559 0.359665 0.187132
H3    H     H_    0.930372 0.394940 0.358876 0.243763
H4    H     H_    0.860005 0.302707 0.995700 0.221281
H5    H     H_    0.431744 0.570607 0.176177 0.188520
H6    H     H_    0.172641 0.606036 0.821625 0.224981
H7    H     H_    0.262550 0.586820 0.110459 0.139268
H8    H     H_    0.103866 0.647135 0.009699 0.175286
H9    H     H_    0.590141 0.330627 0.754441 0.203413
N1    N     N_R   0.147940 0.499970 0.499970 -0.240894
N2    N     N_R   0.852060 0.500060 0.499990 -0.247375
O1    O     O_R   0.381250 0.680340 0.500010 -0.501997
O2    O     O_R   0.618820 0.680370 0.500010 -0.503768
O3    O     O_R   0.323240 0.499950 0.650980 -0.536921
O4    O     O_R   0.560810 0.499980 0.650980 -0.538653
O5    O     O_R   0.381180 0.319630 0.499990 -0.601334
O6    O     O_R   0.618750 0.319660 0.499990 -0.523357
O7    O     O_R   0.439190 0.500020 0.349020 -0.604953
O8    O     O_R   0.676760 0.500050 0.349020 -0.528504
F1    F     F_    0.843309 0.366548 0.185317 -0.653402
S1    S     S_3+6 0.788252 0.106018 0.526290 0.110176
O9    O     O_2   0.737555 0.195702 0.617047 -0.288489
O10   O     O_2   0.863821 0.999132 0.560075 -0.149484
O11   O     O_3   0.907850 0.173797 0.426979 -0.473854
H10   H     H_    0.996645 0.183228 0.449755 0.374354
S2    S     S_3+6 0.235934 0.878426 0.428889 0.078196
O12   O     O_2   0.129125 0.832544 0.525571 -0.169671
O13   O     O_2   0.162408 0.976913 0.383597 -0.251328
O14   O     O_3   0.291766 0.761969 0.340076 -0.539181
H11   H     H_    0.200770 0.723600 0.335406 0.369739
S3    S     S_3+6 0.785598 0.663383 0.682115 0.103443
O15   O     O_2   0.643204 0.713924 0.673589 -0.270159
O16   O     O_2   0.757232 0.591861 0.780113 -0.321450
O17   O     O_3   0.882609 0.786684 0.696597 -0.398480
H12   H     H_    0.829515 0.824133 0.765673 0.386936
F2    F     F_    0.086540 0.618484 0.653135 -0.603466
F3    F     F_    0.788408 0.260142 0.835261 -0.621242
S4    S     S_3+6 0.807325 0.858809 0.370287 0.088722
O18   O     O_2   0.890443 0.793718 0.433547 -0.214362
O19   O     O_2   0.771230 0.766697 0.296698 -0.323565
O20   O     O_3   0.912232 0.966891 0.299471 -0.433956
H13   H     H_    0.993490 0.920119 0.248956 0.383361

loop_
_geom_bond_atom_site_label_1
_geom_bond_atom_site_label_2
_ccdc_geom_bond_type
S3    O17   S    
C2    C4    A    
C16   S2    S    
C18   S3    S    
C15   H1    S    
C6    C7    A    
C12   O4    A    
Cu1   O1    S    
Cu1   O7    S    
C1    O1    A    
Cu2   O4    S    
C1    C17   S    
C14   C15   A    
S2    O14   S    
Cu1   O5    S    
C4    C8    A    
S1    O11   S    
O17   H12   S    
C10   C26   A    
C22   O6    A    
C9    C25   A    
O14   H11   S    
Cu2   N2    S    
C3    C10   A    
S4    O18   D    
C13   C14   A    
C20   C21   A    
C8    C25   A    
C11   C13   A    
C14   C22   S    
C26   C27   A    
Cu1   Cu2   S    
C5    C24   A    
C10   C12   S    
C28   H7    S    
S4    O20   S    
C21   N2    A    
C5    C6    A    
Cu1   N1    S    
C26   H6    S    
C6    F3    S    
C22   O5    A    
Cu2   O8    S    
S2    O13   D    
C2    C3    A    
C3    C7    A    
C23   C25   S    
Cu1   O3    S    
S3    O15   D    
C20   N1    A    
Cu2   O2    S    
C23   O8    A    
C21   H3    S    
C19   N1    A    
C18   N2    A    
C27   H8    S    
C15   C16   A    
Cu2   O6    S    
O20   H13   S    
S2    O12   D    
C19   F2    S    
S4    O19   D    
C18   C19   A    
C20   H2    S    
C12   O3    A    
C27   C28   A    
S3    O16   D    
C7    H9    S    
C11   S4    S    
C4    C5    A    
C2    C28   A    
C23   O7    A    
O11   H10   S    
C13   S1    S    
C1    O2    A    
C9    C24   A    
C24   H4    S    
C9    F1    S    
S1    O9    D    
C16   C17   A    
S1    O10   D    
C8    H5    S    
C11   C17   A    
