data_mof_unit_43074.cif
_audit_creation_date              2012-10-26T20:58:17-0400
_audit_creation_method            fapswitch 2.2
_symmetry_space_group_name_H-M    P1
_symmetry_Int_Tables_number       1
_space_group_crystal_system       triclinic
_cell_length_a                    10.626958
_cell_length_b                    14.715946
_cell_length_c                    14.715501
_cell_angle_alpha                 65.09359
_cell_angle_beta                  103.553428
_cell_angle_gamma                 103.014433
_cell_volume                      2008.14856825

loop_
_atom_site_label
_atom_site_type_symbol
_atom_type_description
_atom_site_fract_x
_atom_site_fract_y
_atom_site_fract_z
_atom_type_partial_charge
C1    C     C_R   0.477305 0.119625 0.312048 0.577157
C2    C     C_R   0.466661 0.532771 0.946148 -0.021738
C3    C     C_R   0.438302 0.490935 0.871543 -0.073604
C4    C     C_R   0.475426 0.507443 0.122325 -0.071699
C5    C     C_R   0.418840 0.387144 0.897719 0.376987
C6    C     C_R   0.492142 0.611205 0.095922 0.374356
C7    C     C_R   0.717318 0.284762 0.668963 -0.124305
C8    C     C_R   0.282233 0.715076 0.331293 -0.117966
C9    C     C_R   0.683596 0.203259 0.639136 0.083876
C10   C     C_R   0.316381 0.796759 0.360864 0.082686
C11   C     C_R   0.518525 0.285179 0.508934 0.048306
C12   C     C_R   0.520588 0.880413 0.687892 0.577917
C13   C     C_R   0.481097 0.714636 0.491285 0.046017
C14   C     C_R   0.548419 0.371176 0.535225 0.012302
C15   C     C_R   0.450703 0.628429 0.465298 0.010334
C16   C     C_R   0.259532 0.000068 0.500080 0.582063
C17   C     C_R   0.740475 0.999925 0.499933 0.581538
C18   C     C_R   0.649871 0.368601 0.617774 0.049070
C19   C     C_R   0.349215 0.631004 0.382776 0.057798
C20   C     C_R   0.481524 0.458405 0.483810 0.036025
C21   C     C_R   0.517262 0.541042 0.516928 0.036542
C22   C     C_R   0.618025 0.533361 0.600557 -0.104740
C23   C     C_R   0.473766 0.291263 0.177976 -0.170340
C24   C     C_R   0.380422 0.465929 0.400418 -0.098910
C25   C     C_R   0.682950 0.449152 0.649356 -0.083892
C26   C     C_R   0.315630 0.550209 0.351538 -0.057117
C27   C     C_3   0.009422 0.923189 0.475736 -0.135181
C28   C     C_3   0.990611 0.076800 0.524294 -0.134345
C29   C     C_3   0.931944 0.012485 0.406619 -0.145388
C30   C     C_3   0.068092 0.987503 0.593411 -0.144134
C31   C     C_3   0.877197 0.000565 0.499498 -0.007537
C32   C     C_3   0.122829 0.999423 0.500531 -0.006980
C33   C     C_3   0.953249 0.912823 0.567543 0.379113
C34   C     C_R   0.507711 0.708751 0.821829 -0.170867
C35   C     C_3   0.046785 0.087166 0.432486 0.379592
C36   C     C_R   0.459807 0.186915 0.203841 0.015678
C37   C     C_R   0.522757 0.813141 0.795584 0.014512
C38   C     C_R   0.414870 0.216258 0.025378 -0.044260
C39   C     C_R   0.522522 0.782737 0.970516 -0.045015
C40   C     C_R   0.428910 0.149447 0.126669 0.360825
C41   C     C_R   0.531156 0.850135 0.870867 0.359329
C42   C     C_R   0.455536 0.359865 0.076399 -0.031769
C43   C     C_R   0.491571 0.639232 0.920531 -0.032613
C44   C     C_R   0.429406 0.321015 0.999463 0.002939
C45   C     C_R   0.502391 0.677778 0.996070 0.004608
C46   C     C_R   0.466777 0.466033 0.049535 -0.019776
Cu1   Cu    Cu3+1 0.465750 0.918270 0.475680 1.015686
Cu2   Cu    Cu3+1 0.534250 0.081730 0.524320 1.017354
F1    F     F_    0.901050 0.822572 0.637291 -0.617970
F2    F     F_    0.099007 0.177409 0.362738 -0.618376
F3    F     F_    0.391738 0.351542 0.822674 -0.634339
F4    F     F_    0.499280 0.646445 0.169054 -0.642981
F5    F     F_    0.545950 0.950969 0.848511 -0.604763
F6    F     F_    0.414508 0.048744 0.148470 -0.607647
H1    H     H_    0.874263 0.023875 0.330216 0.153888
H2    H     H_    0.348728 0.407712 0.370517 0.116299
H3    H     H_    0.019104 0.859613 0.457153 0.149753
H4    H     H_    0.980938 0.140377 0.542880 0.151587
H5    H     H_    0.510545 0.683544 0.763615 0.136055
H6    H     H_    0.502942 0.317665 0.238782 0.136926
H7    H     H_    0.393406 0.185672 0.967208 0.212229
H8    H     H_    0.529883 0.813034 0.027419 0.213158
H9    H     H_    0.426132 0.536315 0.791318 0.134251
H10   H     H_    0.465168 0.461497 0.200397 0.127578
H11   H     H_    0.759937 0.446958 0.713039 0.131491
H12   H     H_    0.125796 0.976106 0.669810 0.157133
H13   H     H_    0.238555 0.552361 0.287917 0.137057
H14   H     H_    0.558391 0.720276 0.551477 0.138026
H15   H     H_    0.441350 0.279565 0.448658 0.137144
H16   H     H_    0.265430 0.861988 0.320634 0.160560
H17   H     H_    0.734786 0.138148 0.679215 0.154583
H18   H     H_    0.795209 0.281981 0.732185 0.118900
H19   H     H_    0.204336 0.717877 0.268070 0.119565
H20   H     H_    0.649333 0.591396 0.630717 0.120803
N1    N     N_R   0.585750 0.204560 0.560800 -0.240556
N2    N     N_R   0.414250 0.795440 0.439200 -0.242363
O1    O     O_R   0.454850 0.022100 0.338110 -0.437168
O2    O     O_R   0.545150 0.977900 0.661890 -0.437726
O3    O     O_R   0.512700 0.160150 0.379180 -0.531421
O4    O     O_R   0.487300 0.839850 0.620820 -0.530525
O5    O     O_R   0.287930 0.931000 0.479440 -0.523565
O6    O     O_R   0.712070 0.069000 0.520560 -0.523403
O7    O     O_R   0.345780 0.069050 0.520520 -0.476372
O8    O     O_R   0.654220 0.930950 0.479480 -0.478251

loop_
_geom_bond_atom_site_label_1
_geom_bond_atom_site_label_2
_ccdc_geom_bond_type
C30   C32   S    
C6    C45   A    
C27   C29   S    
C34   C37   A    
C1    O1    A    
C14   C18   A    
C28   H4    S    
C39   C41   A    
C4    C46   A    
C27   C33   S    
C15   C19   A    
C23   C42   A    
C26   H13   S    
Cu2   O3    S    
C24   C26   A    
Cu1   N2    S    
C11   C14   A    
C33   F1    S    
C17   O6    A    
C42   C46   A    
Cu2   O2    S    
C12   C37   S    
C19   C26   A    
C8    H19   S    
C10   N2    A    
C20   C24   A    
C28   C35   S    
C22   C25   A    
C12   O2    A    
C31   C33   S    
C39   C45   A    
C38   H7    S    
C21   C22   A    
Cu2   N1    S    
C18   C25   A    
C42   C44   A    
Cu1   O4    S    
C23   H6    S    
C8    C19   A    
C32   C35   S    
C14   C20   A    
C36   C40   A    
C25   H11   S    
C4    C6    A    
C27   H3    S    
C7    H18   S    
C29   H1    S    
C16   O7    A    
C2    C46   A    
C38   C44   A    
Cu1   Cu2   S    
C13   N2    A    
C2    C43   A    
C7    C18   A    
C35   F2    S    
Cu1   O8    S    
C43   C45   A    
C41   F5    S    
C30   H12   S    
C10   H16   S    
C5    C44   A    
C40   F6    S    
C13   C15   A    
C34   H5    S    
C17   C31   S    
C16   C32   S    
Cu1   O1    S    
C7    C9    A    
C39   H8    S    
C29   C35   S    
C30   C33   S    
C27   C32   S    
C28   C31   S    
C34   C43   A    
C9    H17   S    
C3    C5    A    
C11   H15   S    
C3    H9    S    
C24   H2    S    
C4    H10   S    
Cu2   O7    S    
C17   O8    A    
C28   C30   S    
C2    C3    A    
C29   C31   S    
C11   N1    A    
C38   C40   A    
C1    O3    A    
C12   O4    A    
C16   O5    A    
Cu2   O6    S    
Cu1   O5    S    
C37   C41   A    
C15   C21   A    
C20   C21   A    
C8    C10   A    
C23   C36   A    
C22   H20   S    
C5    F3    S    
C9    N1    A    
C6    F4    S    
C1    C36   S    
C13   H14   S    
