data_mof_unit_54808.cif
_audit_creation_date              2013-03-05T16:10:14-0500
_audit_creation_method            fapswitch 2.2
_symmetry_space_group_name_H-M    P1
_symmetry_Int_Tables_number       1
_space_group_crystal_system       triclinic
_cell_length_a                    9.852216
_cell_length_b                    10.713182
_cell_length_c                    13.118561
_cell_angle_alpha                 90.221927
_cell_angle_beta                  69.779263
_cell_angle_gamma                 89.90187
_cell_volume                      1299.29041951

loop_
_atom_site_label
_atom_site_type_symbol
_atom_site_description
_atom_site_fract_x
_atom_site_fract_y
_atom_site_fract_z
_atom_type_partial_charge
O1    O     O_R   0.385370 0.683250 0.500010 -0.622900
O2    O     O_R   0.614700 0.683220 0.500010 -0.624062
C1    C     C_R   0.499738 0.740092 0.500470 0.875085
O3    O     O_R   0.328400 0.499990 0.653620 -0.585638
O4    O     O_R   0.557730 0.499960 0.653620 -0.618943
C2    C     C_R   0.419720 0.493585 0.704304 0.866533
Zn1   Zn    Zn3+2 0.346870 0.500020 0.500000 0.972685
Zn2   Zn    Zn3+2 0.653130 0.499980 0.500000 0.944353
O5    O     O_R   0.385300 0.316780 0.499990 -0.615605
O6    O     O_R   0.614630 0.316750 0.499990 -0.633268
O7    O     O_R   0.442270 0.500040 0.346380 -0.621756
O8    O     O_R   0.671600 0.500010 0.346380 -0.614113
C3    C     C_R   0.499950 0.259908 0.500150 0.866022
C4    C     C_R   0.580408 0.499410 0.295506 0.898578
C5    C     C_R   0.783152 0.376714 0.015421 0.315464
H1    H     H_    0.834970 0.398121 0.161529 0.188196
H2    H     H_    0.773767 0.278181 0.825736 0.200416
C6    C     C_R   0.629674 0.482237 0.178498 -0.117115
C7    C     C_R   0.232012 0.534476 0.883065 -0.088383
C8    C     C_R   0.193192 0.548971 0.994707 -0.105431
C9    C     C_R   0.293211 0.522677 0.045097 -0.194477
C10   C     C_R   0.432257 0.474552 0.984455 0.107189
C11   C     C_R   0.460303 0.439931 0.875683 0.091598
C12   C     C_R   0.544314 0.459505 0.027929 0.047343
C13   C     C_R   0.673029 0.392528 0.969461 0.036729
C14   C     C_R   0.684763 0.338947 0.869282 -0.184524
C15   C     C_R   0.580791 0.363192 0.822679 -0.196922
C16   C     C_R   0.531761 0.511596 0.127826 -0.250933
C17   C     C_R   0.757327 0.418135 0.122032 -0.282891
C18   C     C_R   0.367324 0.483894 0.822515 -0.121711
H3    H     H_    0.442097 0.571729 0.170799 0.157151
H4    H     H_    0.157824 0.565698 0.843869 0.182511
H5    H     H_    0.257540 0.537793 0.131737 0.134380
H6    H     H_    0.087601 0.585952 0.041686 0.147646
H7    H     H_    0.594593 0.319515 0.745183 0.169329
C19   C     C_R   0.608500 0.936022 0.525031 -0.181403
H8    H     H_    0.693006 0.887214 0.544228 0.155562
C20   C     C_R   0.608673 0.063930 0.524840 -0.189536
H9    H     H_    0.693214 0.112688 0.543965 0.157149
C21   C     C_R   0.499586 0.127466 0.500819 -0.012122
C22   C     C_R   0.389882 0.063981 0.477592 -0.170516
H10   H     H_    0.305366 0.112726 0.458360 0.156373
C23   C     C_R   0.389633 0.936122 0.477884 -0.176715
H11   H     H_    0.304940 0.887435 0.458902 0.157655
C24   C     C_R   0.499214 0.872552 0.501232 -0.015718
C25   C     C_R   0.959347 0.422187 0.432454 -0.085186
H12   H     H_    0.929936 0.360033 0.378342 0.137051
C26   C     C_R   0.103119 0.422140 0.432522 -0.089259
H13   H     H_    0.182484 0.359865 0.378490 0.139509
N1    N     N_R   0.142790 0.500030 0.500030 -0.096758
C27   C     C_R   0.040082 0.577953 0.567738 0.062501
C28   C     C_R   0.896338 0.577676 0.567568 -0.090118
H14   H     H_    0.816037 0.639709 0.621240 0.135834
N2    N     N_R   0.857180 0.499940 0.500010 -0.084328
C29   C     C_1   0.077365 0.662072 0.639464 0.204573
N3    N     N_1   0.106736 0.730341 0.697161 -0.211855
N4    N     N_R   0.919165 0.317539 0.956704 0.193744
O9    O     O_R   0.984273 0.250002 0.008253 -0.393459
O10   O     O_R   0.989746 0.348070 0.856403 -0.425515

loop_
_geom_bond_atom_site_label_1
_geom_bond_atom_site_label_2
_geom_bond_distance
_ccdc_geom_bond_type
O4    Zn2   1.906661 S    
Zn1   O7    1.906662 S    
C29   N3    1.157321 T    
C11   C15   1.410731 A    
C5    N4    1.438990 S    
C22   H10   1.083725 S    
C4    C6    1.451916 S    
C7    C8    1.387873 A    
O8    C4    1.291177 A    
Zn2   O8    1.959832 S    
C13   C14   1.399597 A    
C8    H6    1.082831 S    
C25   N2    1.366458 A    
C19   C20   1.370315 A    
N1    C27   1.371069 A    
C14   C15   1.386998 A    
C1    C24   1.419053 S    
C19   C24   1.397277 A    
C6    C17   1.396833 A    
O1    Zn1   1.999933 S    
C9    C10   1.420001 A    
C12   C13   1.425329 A    
C20   C21   1.396772 A    
C23   C24   1.396734 A    
N4    O9    1.301664 A    
O4    C2    1.292773 A    
O3    Zn1   1.959831 S    
C26   H13   1.081822 S    
H2    C14   1.080720 S    
C26   N1    1.366768 A    
C19   H8    1.083731 S    
C2    C18   1.459504 S    
C28   N2    1.363670 A    
C5    C17   1.402315 A    
C27   C29   1.437331 S    
C16   H3    1.078972 S    
C23   H11   1.083706 S    
C20   H9    1.083740 S    
O7    C4    1.292181 A    
C10   C12   1.416136 A    
N4    O10   1.301348 A    
C9    H5    1.078808 S    
C7    H4    1.082046 S    
C27   C28   1.416978 A    
C11   C18   1.410748 A    
C6    C16   1.383928 A    
C8    C9    1.392171 A    
C5    C13   1.421872 A    
O3    C2    1.292265 A    
Zn2   N2    2.010389 S    
Zn1   O5    1.998617 S    
O5    C3    1.283127 A    
C25   H12   1.081864 S    
C21   C22   1.397198 A    
C3    C21   1.418943 S    
O2    C1    1.283356 A    
C15   H7    1.082367 S    
H1    C17   1.083468 S    
C10   C11   1.404648 A    
C7    C18   1.401426 A    
C25   C26   1.416782 A    
Zn2   O6    1.999935 S    
O2    Zn2   1.998617 S    
C22   C23   1.369809 A    
C12   C16   1.387880 A    
Zn1   N1    2.010504 S    
C28   H14   1.082965 S    
O1    C1    1.283556 A    
O6    C3    1.283793 A    
