data_mof_unit_46376.cif
_audit_creation_date              2012-12-11T18:29:18-0500
_audit_creation_method            fapswitch 2.2
_symmetry_space_group_name_H-M    P1
_symmetry_Int_Tables_number       1
_space_group_crystal_system       triclinic
_cell_length_a                    8.359439
_cell_length_b                    14.554897
_cell_length_c                    17.33563
_cell_angle_alpha                 96.631381
_cell_angle_beta                  96.459345
_cell_angle_gamma                 92.295163
_cell_volume                      2078.81996689

loop_
_atom_site_label
_atom_site_type_symbol
_atom_type_description
_atom_site_fract_x
_atom_site_fract_y
_atom_site_fract_z
_atom_type_partial_charge
Ba1   Ba    Ba6+2 0.833220 0.541860 0.459910 1.735289
Ba2   Ba    Ba6+2 0.356600 0.458220 0.540090 1.707418
C1    C     C_3   0.406660 0.855146 0.244796 0.277032
C2    C     C_3   0.372775 0.523187 0.212921 0.099848
C3    C     C_2   0.275147 0.546616 0.138629 -0.087027
C4    C     C_3   0.968099 0.736798 0.246039 0.379569
C5    C     C_2   0.125214 0.503811 0.118032 -0.037601
C6    C     C_2   0.066513 0.446278 0.177121 0.012018
C7    C     C_1   0.124814 0.462679 0.251984 0.020246
C8    C     C_R   0.857173 0.509234 0.861712 -0.057928
C9    C     C_R   0.814215 0.479087 0.783039 0.029947
C10   C     C_R   0.067234 0.541857 0.753229 -0.013789
C11   C     C_R   0.121830 0.557330 0.834725 -0.112773
C12   C     C_3   0.442953 0.761711 0.273137 0.349542
C13   C     C_R   0.017808 0.536173 0.891232 0.011926
C14   C     C_2   0.020132 0.508140 0.040579 0.378493
C15   C     C_2   0.085458 0.538740 0.977126 -0.056069
C16   C     C_3   0.974262 0.758263 0.162609 -0.388011
C17   C     C_R   0.919485 0.494436 0.728935 -0.209712
C18   C     C_R   0.712287 0.947454 0.552006 0.358320
C19   C     C_R   0.511115 0.806652 0.511906 0.058974
C20   C     C_R   0.356126 0.773446 0.478546 -0.274013
C21   C     C_R   0.247349 0.831206 0.445479 0.001387
C22   C     C_R   0.295141 0.923751 0.442636 -0.134091
C23   C     C_3   0.460259 0.288392 0.302249 0.263692
C24   C     C_R   0.451009 0.959693 0.474443 -0.014729
C25   C     C_R   0.560800 0.903378 0.514185 -0.061009
C26   C     C_R   0.647202 0.092667 0.498945 -0.049230
C27   C     C_R   0.761890 0.035951 0.533140 -0.023789
C28   C     C_3   0.257962 0.749158 0.753389 0.276101
C29   C     C_R   0.688637 0.188774 0.499723 0.021948
C30   C     C_R   0.841302 0.225116 0.533525 -0.231305
C31   C     C_R   0.960228 0.167149 0.558226 0.076741
C32   C     C_R   0.922448 0.072435 0.554442 -0.044997
C33   C     C_R   0.494143 0.052721 0.468326 0.030565
C34   C     C_3   0.480676 0.255872 0.217072 -0.268056
C35   C     C_3   0.289839 0.852950 0.754127 -0.305471
C36   C     C_3   0.975994 0.249673 0.371148 0.253933
C37   C     C_3   0.958671 0.145016 0.349291 -0.296304
C38   C     C_3   0.749384 0.673951 0.689340 0.392626
C39   C     C_3   0.785258 0.711916 0.775626 -0.316934
C40   C     C_2   0.366408 0.299004 0.161480 0.426364
C41   C     C_3   0.244634 0.260359 0.758667 0.389472
C42   C     C_3   0.263156 0.227072 0.841058 0.210437
C43   C     C_3   0.652401 0.237058 0.749826 0.742004
C44   C     C_3   0.588646 0.144198 0.770467 -0.293539
C45   C     C_2   0.261344 0.512206 0.274497 -0.325315
H1    H     H_    0.502999 0.773721 0.334224 0.037821
H2    H     H_    0.864035 0.667587 0.663425 0.037971
H3    H     H_    0.682436 0.605677 0.683221 -0.027317
H4    H     H_    0.828123 0.785877 0.781973 0.204033
H5    H     H_    0.880896 0.674822 0.805598 0.003846
H6    H     H_    0.674750 0.705806 0.805103 0.093076
H7    H     H_    0.325723 0.722497 0.272321 -0.180736
H8    H     H_    0.317198 0.888786 0.279713 0.027842
H9    H     H_    0.330646 0.284407 0.311045 0.005235
H10   H     H_    0.510912 0.360970 0.317290 0.022655
H11   H     H_    0.456978 0.179657 0.204976 0.155180
H12   H     H_    0.174400 0.887893 0.747946 0.173162
H13   H     H_    0.607319 0.271976 0.206930 0.130803
H14   H     H_    0.353290 0.844573 0.182649 0.019192
H15   H     H_    0.100054 0.756566 0.148041 0.080148
H16   H     H_    0.355333 0.284330 0.739831 0.010764
H17   H     H_    0.173076 0.322160 0.759568 0.074002
H18   H     H_    0.148352 0.198156 0.855156 0.163029
H19   H     H_    0.340713 0.168295 0.844263 -0.009095
H20   H     H_    0.614895 0.237192 0.686241 -0.044563
H21   H     H_    0.652854 0.086185 0.743392 0.193042
H22   H     H_    0.462722 0.128997 0.743889 0.046974
H23   H     H_    0.360254 0.882265 0.810345 0.090940
H24   H     H_    0.840956 0.725782 0.255831 0.130329
H25   H     H_    0.602805 0.142773 0.834780 0.153302
H26   H     H_    0.211800 0.560839 0.986215 0.085254
H27   H     H_    0.013662 0.377575 0.155782 0.092532
H28   H     H_    0.760916 0.510729 0.896304 0.191043
H29   H     H_    0.330800 0.591194 0.102282 0.088657
H30   H     H_    0.242678 0.586824 0.853794 0.096959
H31   H     H_    0.273922 0.559736 0.328187 0.073147
H32   H     H_    0.880898 0.475191 0.667280 0.076927
H33   H     H_    0.319474 0.701059 0.477521 0.062619
H34   H     H_    0.358970 0.866732 0.705263 0.154353
H35   H     H_    0.034069 0.672722 0.252194 0.005829
H36   H     H_    0.211295 0.967382 0.413731 0.084312
H37   H     H_    0.017026 0.028230 0.572897 0.096498
H38   H     H_    0.870781 0.298692 0.536788 0.062201
H39   H     H_    0.406250 0.093587 0.439222 0.099321
H40   H     H_    0.898726 0.705428 0.121389 0.124068
H41   H     H_    0.929323 0.827788 0.155530 0.182178
H42   H     H_    0.170934 0.738246 0.795859 -0.018635
H43   H     H_    0.374388 0.719163 0.771925 0.044273
H44   H     H_    0.643239 0.858152 0.146794 0.327438
H45   H     H_    0.862178 0.274540 0.390273 0.014927
H46   H     H_    0.238036 0.283264 0.158850 0.015718
H47   H     H_    0.476143 0.221857 0.985536 0.327402
H48   H     H_    0.005021 0.347401 0.850309 0.340335
H49   H     H_    0.736157 0.360366 0.103402 0.368754
H50   H     H_    0.012084 0.858115 0.611952 0.320279
H51   H     H_    0.076640 0.266506 0.418927 0.036972
H52   H     H_    0.858761 0.126953 0.301321 0.203120
H53   H     H_    0.931896 0.109771 0.399874 0.054709
H54   H     H_    0.072505 0.119288 0.329603 0.115657
O1    O     O_2   0.840370 0.437300 0.310630 -0.454701
O2    O     O_2   0.300638 0.175369 0.571534 -0.528422
O3    O     O_3   0.179172 0.186291 0.703200 -0.553917
O4    O     O_3   0.112450 0.444030 0.408320 -0.502281
O5    O     O_3   0.560770 0.615000 0.535160 -0.496717
O6    O     O_2   0.387340 0.269270 0.471720 -0.482423
O7    O     O_3   0.543496 0.227685 0.346989 -0.607277
O8    O     O_2   0.484546 0.472274 0.778206 -0.452729
O9    O     O_3   0.599340 0.312983 0.796035 -0.552500
O10   O     O_3   0.597270 0.610320 0.351390 -0.508405
O11   O     O_2   0.709697 0.565255 0.218718 -0.406283
O12   O     O_3   0.653196 0.736787 0.654306 -0.538422
O13   O     O_3   0.007472 0.289542 0.304787 -0.640560
O14   O     O_3   0.542047 0.713000 0.224090 -0.625750
O15   O     O_2   0.802370 0.730760 0.528330 -0.442815
O16   O     O_3   0.016680 0.660770 0.388810 -0.501329
O17   O     O_2   0.908273 0.828629 0.428802 -0.452396
O18   O     O_2   0.532263 0.029486 0.272410 -0.289809
O19   O     O_2   0.704470 0.910816 0.318990 -0.283437
O20   O     O_3   0.664204 0.923650 0.169658 -0.481765
O21   O     O_2   0.417099 0.349702 0.117457 -0.472021
O22   O     O_2   0.207994 0.320313 0.977329 -0.273479
O23   O     O_3   0.037831 0.811869 0.298729 -0.598579
O24   O     O_2   0.358776 0.406645 0.894188 -0.249936
O25   O     O_3   0.504946 0.280867 0.965888 -0.384339
O26   O     O_2   0.925814 0.151533 0.767343 -0.269911
O27   O     O_2   0.913622 0.295291 0.704677 -0.455070
O28   O     O_3   0.915420 0.304101 0.857127 -0.462691
O29   O     O_2   0.706480 0.547931 0.022295 -0.293855
O30   O     O_2   0.773873 0.391050 0.971398 -0.195198
O31   O     O_3   0.756674 0.428100 0.117216 -0.468671
O32   O     O_2   0.899046 0.002834 0.689968 -0.264892
O33   O     O_2   0.666289 0.904296 0.694863 -0.313859
O34   O     O_2   0.349330 0.562730 0.689420 -0.465028
O35   O     O_3   0.927229 0.836971 0.642471 -0.511982
O36   O     O_3   0.077250 0.556050 0.591680 -0.480052
O37   O     O_3   0.592420 0.389760 0.648620 -0.503725
O38   O     O_3   0.194239 0.710106 0.677602 -0.600611
O39   O     O_3   0.628930 0.385070 0.464840 -0.481586
O40   O     O_3   0.173020 0.339310 0.611190 -0.478464
P1    P     P_3+3 0.017810 0.410420 0.324030 0.987119
P2    P     P_3+3 0.635890 0.718430 0.552520 1.090272
P3    P     P_3+3 0.051641 0.781582 0.394295 0.981098
P4    P     P_3+3 0.171880 0.589650 0.675980 0.996323
P5    P     P_3+3 0.156076 0.218115 0.607864 1.038399
P6    P     P_3+3 0.554893 0.600600 0.250314 1.015389
P7    P     P_3+3 0.561997 0.267561 0.446627 0.964669
P8    P     P_3+3 0.622150 0.414617 0.750778 1.080795
S1    S     S_3+6 0.581997 0.932141 0.254184 -0.072926
S2    S     S_3+6 0.331821 0.313493 0.920731 -0.019224
S3    S     S_3+6 0.860151 0.245038 0.768580 -0.119662
S4    S     S_3+6 0.811487 0.468662 0.036594 -0.030169
S5    S     S_3+6 0.799289 0.922557 0.646369 -0.106881

loop_
_geom_bond_atom_site_label_1
_geom_bond_atom_site_label_2
_ccdc_geom_bond_type
C6    C7    D    
C4    H35   S    
O14   P6    S    
C40   H46   S    
C42   H19   S    
C23   H9    S    
C4    O23   S    
C28   H43   S    
O9    P8    S    
O39   P7    S    
C41   H16   S    
C5    C6    S    
C43   C44   S    
Ba2   P4    S    
C9    C17   A    
C24   C25   A    
C18   S5    S    
O13   P1    S    
O36   P4    S    
C26   C27   A    
C22   H36   S    
C22   C24   A    
O17   P3    D    
C8    C13   A    
C36   C37   S    
C36   O13   S    
C33   H39   S    
C12   O14   S    
C36   H45   S    
Ba2   O6    S    
O20   S1    S    
Ba1   Ba2   S    
C8    H28   S    
C41   O3    S    
C44   H22   S    
Ba1   P1    S    
O24   S2    D    
C1    H8    S    
C9    P8    S    
O38   P4    S    
C29   C30   A    
C26   C33   A    
C14   C15   D    
O34   P4    D    
C43   H20   S    
C21   C22   A    
Ba1   O15   S    
C39   H5    S    
C44   H25   S    
C36   H51   S    
Ba1   O5    S    
H49   O31   S    
O18   S1    D    
C1    H14   S    
C19   C25   A    
C19   C20   A    
C15   H26   S    
C35   H34   S    
C42   H18   S    
C32   H37   S    
C28   H42   S    
O27   S3    D    
C41   H17   S    
C37   H54   S    
C11   H30   S    
C18   C27   A    
H47   O25   S    
O37   P8    S    
C4    H24   S    
C4    C16   S    
O22   S2    D    
C42   S2    S    
C34   H11   S    
O32   S5    D    
Ba2   O37   S    
O3    P5    S    
O5    P2    S    
O16   P3    S    
C19   P2    S    
O28   S3    S    
C8    C9    A    
O4    P1    S    
C3    C5    D    
C43   O9    S    
C16   H15   S    
C12   H1    S    
C2    P6    S    
C27   C32   A    
Ba2   O5    S    
C16   H41   S    
O12   P2    S    
C28   C35   S    
C10   P4    S    
O8    P8    D    
C41   C42   S    
C44   H21   S    
Ba1   P2    S    
O10   P6    S    
O26   S3    D    
O15   P2    D    
O35   S5    S    
O25   S2    S    
C37   H52   S    
C38   O12   S    
O30   S4    D    
C6    H27   S    
O31   S4    S    
Ba1   O16   S    
C17   H32   S    
Ba1   O39   S    
C39   H6    S    
C35   H12   S    
C1    C12   S    
O40   P5    S    
C29   P7    S    
C38   C39   S    
C12   H7    S    
C7    C45   D    
C11   C13   A    
C21   P3    S    
C23   H10   S    
Ba1   O36   S    
C40   O21   D    
C13   C15   S    
C5    C14   S    
C1    S1    S    
C28   O38   S    
Ba2   O36   S    
C26   C29   A    
Ba2   O34   S    
C2    C3    S    
C34   H13   S    
C34   C40   S    
C7    P1    S    
C18   C25   A    
Ba2   O4    S    
O19   S1    D    
C16   H40   S    
C45   H31   S    
O11   P6    D    
C43   S3    S    
Ba2   O39   S    
C30   C31   A    
C3    H29   S    
C20   H33   S    
Ba1   O10   S    
O6    P7    D    
C37   H53   S    
O33   S5    D    
C38   H3    S    
C30   H38   S    
C10   C17   A    
C31   C32   A    
O29   S4    D    
C31   P5    S    
C23   C34   S    
C24   C33   A    
C10   C11   A    
C23   O7    S    
H44   O20   S    
C14   S4    S    
H48   O28   S    
Ba2   O40   S    
C20   C21   A    
O23   P3    S    
O1    P1    D    
H50   O35   S    
C35   H23   S    
Ba1   O1    S    
C39   H4    S    
C38   H2    S    
O2    P5    D    
Ba1   O4    S    
O7    P7    S    
C2    C45   S    
