data_mof_unit_13270.cif
_audit_creation_date              2012-10-26T21:13:36-0400
_audit_creation_method            fapswitch 2.2
_symmetry_space_group_name_H-M    P1
_symmetry_Int_Tables_number       1
_space_group_crystal_system       triclinic
_cell_length_a                    9.067245
_cell_length_b                    10.833146
_cell_length_c                    9.608794
_cell_angle_alpha                 90.491492
_cell_angle_beta                  89.643586
_cell_angle_gamma                 91.470204
_cell_volume                      943.478557391

loop_
_atom_site_label
_atom_site_type_symbol
_atom_type_description
_atom_site_fract_x
_atom_site_fract_y
_atom_site_fract_z
_atom_type_partial_charge
Br1   Br    Br    0.592173 0.155572 0.891575 -0.572120
Br2   Br    Br    0.920465 0.606109 0.850302 -0.575121
C1    C     C_R   0.493748 0.262537 0.499020 0.533606
C2    C     C_R   0.625863 0.528984 0.925781 0.214277
C3    C     C_3   0.722856 0.641297 0.915066 0.017405
C4    C     C_R   0.220876 0.499497 0.500195 0.549805
C5    C     C_3   0.716358 0.651730 0.073707 -0.142675
C6    C     C_R   0.496532 0.737367 0.500737 0.546098
C7    C     C_R   0.779089 0.499807 0.499686 0.560045
C8    C     C_1   0.065591 0.499208 0.500115 -0.029612
C9    C     C_1   0.934364 0.499286 0.499305 -0.020390
C10   C     C_R   0.512200 0.065778 0.618702 0.061733
C11   C     C_R   0.477631 0.128839 0.497803 0.004733
C12   C     C_R   0.422848 0.930149 0.386643 -0.137328
C13   C     C_R   0.419966 0.059705 0.382696 -0.036692
C14   C     C_3   0.358415 0.119347 0.254911 -0.358636
C15   C     C_3   0.640127 0.769515 0.121163 -0.397494
C16   C     C_3   0.783805 0.128978 0.649212 -0.345643
C17   C     C_3   0.258073 0.376808 0.862602 -0.309084
C18   C     C_R   0.479027 0.869906 0.502970 -0.016617
C19   C     C_R   0.509214 0.939132 0.622694 -0.011831
C20   C     C_3   0.634936 0.936117 0.722170 -0.218378
C21   C     C_3   0.641315 0.076597 0.715358 0.153234
C22   C     C_R   0.623423 0.534528 0.071784 0.171415
C23   C     C_R   0.386348 0.448733 0.076630 0.028555
C24   C     C_R   0.385824 0.446077 0.928452 0.122102
Cu1   Cu    Cu3+1 0.499990 0.499980 0.640670 0.993660
Cu2   Cu    Cu3+1 0.500010 0.500020 0.359330 0.941699
H1    H     H_    0.669111 0.714528 0.856520 0.138298
H2    H     H_    0.518782 0.762063 0.106421 0.154468
H3    H     H_    0.667414 0.789475 0.231265 0.169643
H4    H     H_    0.683909 0.849791 0.061272 0.149056
H5    H     H_    0.803944 0.086263 0.545446 0.103001
H6    H     H_    0.776813 0.230369 0.636764 0.174904
H7    H     H_    0.878755 0.110241 0.717615 0.155925
H8    H     H_    0.172528 0.441979 0.831713 0.192478
H9    H     H_    0.293840 0.318878 0.774323 0.190598
H10   H     H_    0.204493 0.311739 0.937326 0.092861
H11   H     H_    0.824597 0.639180 0.124861 0.182185
H12   H     H_    0.385558 0.876576 0.297276 0.138810
H13   H     H_    0.597001 0.902616 0.825298 0.154663
H14   H     H_    0.732739 0.889272 0.678028 0.131967
H15   H     H_    0.294492 0.408838 0.134582 0.126218
H16   H     H_    0.448368 0.166223 0.195173 0.202618
H17   H     H_    0.304779 0.050281 0.184242 0.134490
H18   H     H_    0.273716 0.186813 0.285613 0.134341
N1    N     N_R   0.500920 0.500930 0.147930 -0.248870
N2    N     N_R   0.500930 0.500890 0.852020 -0.229991
O1    O     O_R   0.500000 0.319640 0.618810 -0.485158
O2    O     O_R   0.500020 0.319680 0.381230 -0.506693
O3    O     O_R   0.288380 0.499980 0.618770 -0.504029
O4    O     O_R   0.288400 0.500020 0.381190 -0.511959
O5    O     O_R   0.499980 0.680320 0.618770 -0.495261
O6    O     O_R   0.500000 0.680360 0.381190 -0.515185
O7    O     O_R   0.711600 0.499980 0.618810 -0.454993
O8    O     O_R   0.711620 0.500020 0.381230 -0.501130

loop_
_geom_bond_atom_site_label_1
_geom_bond_atom_site_label_2
_ccdc_geom_bond_type
C6    O5    A    
C14   H17   S    
Cu1   O5    S    
Cu2   N1    S    
C4    C8    S    
C7    O7    A    
C17   H10   S    
C4    O3    A    
Cu2   O4    S    
C16   H7    S    
C14   H16   S    
C16   C21   S    
C1    C11   S    
C24   N2    A    
C23   H15   S    
C11   C13   A    
Cu2   O8    S    
C7    O8    A    
C6    C18   S    
C19   C20   S    
C18   C19   A    
C15   H2    S    
C7    C9    S    
C10   C21   S    
C20   H14   S    
Cu1   O1    S    
C2    C22   A    
C15   H4    S    
C1    O2    A    
Cu1   O3    S    
Br1   C21   S    
C3    H1    S    
C17   H8    S    
C16   H6    S    
Cu1   N2    S    
C1    O1    A    
C15   H3    S    
C16   H5    S    
Cu1   O7    S    
Br2   C3    S    
C8    C9    T    
C12   H12   S    
C5    C22   S    
C20   H13   S    
C12   C18   A    
C10   C11   A    
C2    N2    A    
C6    O6    A    
Cu1   Cu2   S    
C3    C5    S    
C17   C24   S    
C5    H11   S    
C12   C13   A    
C14   H18   S    
Cu2   O6    S    
C23   N1    A    
C17   H9    S    
C4    O4    A    
C23   C24   A    
C20   C21   S    
C22   N1    A    
Cu2   O2    S    
C10   C19   A    
C13   C14   S    
C2    C3    S    
C5    C15   S    
