data_mof_unit_53874.cif
_audit_creation_date              2012-10-26T19:51:35-0400
_audit_creation_method            fapswitch 2.2
_symmetry_space_group_name_H-M    P1
_symmetry_Int_Tables_number       1
_space_group_crystal_system       triclinic
_cell_length_a                    19.421611
_cell_length_b                    18.14095
_cell_length_c                    9.079182
_cell_angle_alpha                 89.999894
_cell_angle_beta                  89.755206
_cell_angle_gamma                 90.0
_cell_volume                      3198.80698588

loop_
_atom_site_label
_atom_site_type_symbol
_atom_type_description
_atom_site_fract_x
_atom_site_fract_y
_atom_site_fract_z
_atom_type_partial_charge
C1    C     C_R   0.367421 0.500000 0.500174 0.543721
C2    C     C_R   0.549764 0.201428 0.420242 -0.153650
C3    C     C_R   0.500000 0.838269 0.500000 0.012455
C4    C     C_R   0.500000 0.161731 0.499999 0.012457
C5    C     C_R   0.526554 0.960697 0.622362 0.013773
C6    C     C_R   0.473441 0.039302 0.377642 0.013771
C7    C     C_R   0.473445 0.960697 0.377638 0.013772
C8    C     C_R   0.526559 0.039302 0.622357 0.013772
C9    C     C_R   0.500000 0.078882 0.499999 0.030706
C10   C     C_R   0.499999 0.921118 0.500000 0.030704
C11   C     C_R   0.500038 0.500000 0.220392 0.559800
C12   C     C_R   0.632579 0.500000 0.499827 0.543720
C13   C     C_R   0.499962 0.500000 0.779608 0.559799
C14   C     C_1   0.500014 0.500000 0.065481 -0.062012
C15   C     C_1   0.499986 0.500000 0.934519 -0.062012
C16   C     C_R   0.744612 0.433196 0.499238 -0.120129
C17   C     C_R   0.255388 0.566805 0.500711 -0.120131
C18   C     C_R   0.255388 0.433195 0.500519 -0.120142
C19   C     C_R   0.744612 0.566805 0.499537 -0.120143
C20   C     C_R   0.816619 0.432497 0.499191 -0.003661
C21   C     C_R   0.183381 0.567503 0.500757 -0.003661
C22   C     C_R   0.183381 0.432497 0.500559 -0.003665
C23   C     C_R   0.451300 0.721116 0.578749 0.041911
C24   C     C_R   0.816618 0.567503 0.499499 -0.003664
C25   C     C_R   0.852783 0.500000 0.499411 0.052833
C26   C     C_R   0.147217 0.500000 0.500592 0.052833
C27   C     C_R   0.708313 0.500000 0.499535 -0.017188
C28   C     C_R   0.291687 0.500000 0.500467 -0.017188
C29   C     C_R   0.963758 0.499863 0.633636 -0.125254
C30   C     C_R   0.036242 0.500137 0.366368 -0.125255
C31   C     C_R   0.035468 0.499864 0.633937 -0.125542
C32   C     C_R   0.964531 0.500137 0.366067 -0.125542
C33   C     C_R   0.071715 0.500000 0.500303 0.034716
C34   C     C_R   0.451326 0.278884 0.578821 0.041903
C35   C     C_R   0.928285 0.500000 0.499701 0.034716
C36   C     C_3   0.854185 0.359753 0.498947 -0.404811
C37   C     C_3   0.145815 0.640246 0.500944 -0.404813
C38   C     C_3   0.145815 0.359754 0.500505 -0.404814
C39   C     C_3   0.854184 0.640247 0.499611 -0.404814
C40   C     C_3   0.556117 0.920010 0.754174 -0.400925
C41   C     C_3   0.443864 0.079989 0.245847 -0.400929
C42   C     C_3   0.443881 0.920010 0.245828 -0.400925
C43   C     C_3   0.556135 0.079988 0.754155 -0.400929
C44   C     C_R   0.548700 0.721116 0.421251 0.041903
C45   C     C_R   0.548674 0.278885 0.421178 0.041911
C46   C     C_R   0.450209 0.798572 0.579682 -0.153647
C47   C     C_R   0.450236 0.201427 0.579757 -0.153653
C48   C     C_R   0.549790 0.798573 0.420318 -0.153650
Cu1   Cu    Cu3+1 0.500000 0.573360 0.500000 0.934572
Cu2   Cu    Cu3+1 0.500000 0.426640 0.500000 0.934566
H1    H     H_    0.716834 0.381392 0.499083 0.125712
H2    H     H_    0.413088 0.309027 0.641398 0.119511
H3    H     H_    0.586958 0.690974 0.358730 0.119511
H4    H     H_    0.586911 0.309027 0.358601 0.119495
H5    H     H_    0.411077 0.827362 0.642565 0.097414
H6    H     H_    0.411127 0.172638 0.642701 0.097420
H7    H     H_    0.588922 0.827362 0.357434 0.097417
H8    H     H_    0.588874 0.172638 0.357297 0.097417
H9    H     H_    0.818025 0.312313 0.498738 0.116349
H10   H     H_    0.887273 0.355649 0.399263 0.134877
H11   H     H_    0.886844 0.355459 0.598645 0.135790
H12   H     H_    0.283167 0.618608 0.500823 0.125705
H13   H     H_    0.181975 0.687686 0.501120 0.116348
H14   H     H_    0.113157 0.644521 0.401240 0.135786
H15   H     H_    0.112725 0.644369 0.600622 0.134881
H16   H     H_    0.181976 0.312314 0.500491 0.116355
H17   H     H_    0.112738 0.355541 0.600186 0.134853
H18   H     H_    0.113146 0.355569 0.400804 0.135814
H19   H     H_    0.818024 0.687687 0.499658 0.116352
H20   H     H_    0.886851 0.644413 0.599319 0.135810
H21   H     H_    0.887264 0.644479 0.399936 0.134856
H22   H     H_    0.555419 0.859264 0.743701 0.142269
H23   H     H_    0.283167 0.381392 0.500475 0.125735
H24   H     H_    0.610791 0.935776 0.769825 0.124621
H25   H     H_    0.526264 0.934067 0.854838 0.120433
H26   H     H_    0.444537 0.140734 0.256344 0.142267
H27   H     H_    0.473724 0.065952 0.145179 0.120431
H28   H     H_    0.389196 0.064201 0.230188 0.124623
H29   H     H_    0.444578 0.859265 0.256302 0.142272
H30   H     H_    0.389207 0.935777 0.230179 0.124622
H31   H     H_    0.473734 0.934067 0.145164 0.120432
H32   H     H_    0.555464 0.140733 0.743655 0.142269
H33   H     H_    0.526275 0.065954 0.854822 0.120431
H34   H     H_    0.716833 0.618609 0.499624 0.125728
H35   H     H_    0.610803 0.064200 0.769815 0.124624
H36   H     H_    0.935851 0.499757 0.737189 0.104912
H37   H     H_    0.064149 0.500243 0.262815 0.104912
H38   H     H_    0.062774 0.499758 0.737719 0.104461
H39   H     H_    0.937226 0.500243 0.262285 0.104461
H40   H     H_    0.413042 0.690974 0.641270 0.119494
N1    N     N_R   0.500000 0.683620 0.500000 -0.217523
N2    N     N_R   0.500000 0.316380 0.500000 -0.217526
O1    O     O_R   0.400190 0.561980 0.499980 -0.510188
O2    O     O_R   0.599810 0.438020 0.500020 -0.510172
O3    O     O_R   0.599810 0.561980 0.500020 -0.510195
O4    O     O_R   0.400190 0.438020 0.499980 -0.510180
O5    O     O_R   0.500000 0.561940 0.288400 -0.494600
O6    O     O_R   0.500000 0.438060 0.711600 -0.494617
O7    O     O_R   0.500000 0.561940 0.711600 -0.494607
O8    O     O_R   0.500000 0.438060 0.288400 -0.494625

loop_
_geom_bond_atom_site_label_1
_geom_bond_atom_site_label_2
_ccdc_geom_bond_type
C7    C10   A    
C21   C26   A    
C42   H30   S    
C43   H33   S    
C8    C43   S    
C36   H9    S    
C6    C9    A    
C48   H7    S    
C41   H27   S    
C11   C14   S    
C20   C25   A    
C22   C38   S    
C3    C48   A    
C24   C39   S    
C7    C42   S    
C13   O6    A    
C45   N2    A    
C44   H3    S    
C38   H16   S    
C8    C9    A    
C6    C41   S    
C37   H15   S    
C46   H5    S    
C1    C28   S    
C31   C33   A    
C12   O3    A    
C19   C27   A    
C16   C27   A    
C42   H29   S    
C23   C46   A    
C12   O2    A    
C42   H31   S    
Cu1   N1    S    
C37   H13   S    
C2    C45   A    
Cu2   O6    S    
C12   C27   S    
C43   H35   S    
C32   C35   A    
C18   C28   A    
C24   C25   A    
C41   H28   S    
Cu2   O2    S    
C17   C21   A    
C11   O8    A    
C13   O7    A    
C2    C4    A    
C17   H12   S    
Cu1   O7    S    
C26   C33   S    
C32   H39   S    
C16   C20   A    
C39   H19   S    
C23   H40   S    
Cu1   O3    S    
C29   H36   S    
C44   N1    A    
C25   C35   S    
Cu2   N2    S    
C38   H18   S    
C45   H4    S    
C18   H23   S    
C13   C15   S    
C23   N1    A    
C19   H34   S    
C37   H14   S    
C16   H1    S    
C31   H38   S    
C40   H22   S    
C30   C33   A    
C18   C22   A    
C17   C28   A    
Cu2   O8    S    
C36   H10   S    
C5    C8    A    
C2    H8    S    
C6    C7    A    
C29   C35   A    
C3    C46   A    
C34   H2    S    
C40   H25   S    
C11   O5    A    
C19   C24   A    
C30   H37   S    
C5    C10   A    
C29   C31   A    
C3    C10   S    
C41   H26   S    
C30   C32   A    
Cu2   O4    S    
C1    O4    A    
C39   H20   S    
C40   H24   S    
C36   H11   S    
C34   N2    A    
Cu1   O5    S    
C20   C36   S    
C21   C37   S    
C38   H17   S    
C1    O1    A    
Cu1   Cu2   S    
C22   C26   A    
C5    C40   S    
C43   H32   S    
C39   H21   S    
C14   C15   T    
C34   C47   A    
Cu1   O1    S    
C4    C9    S    
C44   C48   A    
C47   H6    S    
C4    C47   A    
