data_mof_unit_40869.cif
_audit_creation_date              2013-03-05T16:30:58-0500
_audit_creation_method            fapswitch 2.2
_symmetry_space_group_name_H-M    P1
_symmetry_Int_Tables_number       1
_space_group_crystal_system       triclinic
_cell_length_a                    13.009179
_cell_length_b                    10.800863
_cell_length_c                    9.585043
_cell_angle_alpha                 89.640477
_cell_angle_beta                  95.864173
_cell_angle_gamma                 90.695526
_cell_volume                      1339.63404242

loop_
_atom_site_label
_atom_site_type_symbol
_atom_site_description
_atom_site_fract_x
_atom_site_fract_y
_atom_site_fract_z
_atom_type_partial_charge
O1    O     O_R   0.500000 0.319640 0.618810 -0.558667
O2    O     O_R   0.500010 0.319680 0.381230 -0.600904
C1    C     C_R   0.498648 0.262682 0.500248 0.790569
O3    O     O_R   0.348990 0.499960 0.599490 -0.614034
O4    O     O_R   0.349000 0.500000 0.361910 -0.588601
C2    C     C_R   0.300870 0.500072 0.473981 0.789994
Cu1   Cu    Cu3+1 0.499990 0.499980 0.640670 0.969796
Cu2   Cu    Cu3+1 0.500010 0.500020 0.359330 0.992839
O5    O     O_R   0.499990 0.680320 0.618770 -0.590929
O6    O     O_R   0.500000 0.680360 0.381190 -0.568472
O7    O     O_R   0.651000 0.500000 0.638090 -0.583530
O8    O     O_R   0.651010 0.500040 0.400510 -0.518070
C3    C     C_R   0.501746 0.737556 0.499851 0.862297
C4    C     C_R   0.699190 0.506182 0.525704 0.904813
C5    C     C_R   0.812126 0.512263 0.540318 -0.211136
C6    C     C_R   0.188668 0.506082 0.458838 -0.076483
C7    C     C_R   0.030213 0.564875 0.323736 -0.068399
C8    C     C_R   0.136166 0.548442 0.333610 -0.204850
C9    C     C_R   0.133986 0.473142 0.571700 -0.165612
C10   C     C_R   0.026900 0.486956 0.562547 0.068062
C11   C     C_R   0.974502 0.539579 0.439371 -0.029378
C12   C     C_R   0.867994 0.563638 0.434036 0.391064
C13   C     C_R   0.864587 0.458607 0.660204 -0.347684
C14   C     C_R   0.972089 0.449262 0.674569 0.421173
H1    H     H_    0.821514 0.421792 0.742469 0.181653
H2    H     H_    0.992869 0.595444 0.223845 0.210150
H3    H     H_    0.177270 0.571762 0.244060 0.165919
H4    H     H_    0.175379 0.436590 0.666667 0.197027
C15   C     C_R   0.542736 0.065027 0.615878 0.096071
C16   C     C_R   0.493910 0.129483 0.501905 -0.060296
C17   C     C_R   0.440485 0.064048 0.390541 -0.197649
H5    H     H_    0.398854 0.112564 0.303457 0.159762
C18   C     C_R   0.442888 0.934979 0.389754 -0.206303
H6    H     H_    0.401599 0.885443 0.303116 0.152809
C19   C     C_R   0.499797 0.871103 0.499345 -0.061710
C20   C     C_R   0.547310 0.937154 0.613717 -0.000750
C21   C     C_3   0.659353 0.940754 0.672514 0.226020
C22   C     C_3   0.651691 0.080777 0.679310 -0.516773
H7    H     H_    0.675499 0.896993 0.777109 0.142077
H8    H     H_    0.655497 0.116276 0.788339 0.195071
H9    H     H_    0.701142 0.132380 0.610113 0.196666
C23   C     C_R   0.541564 0.597475 0.078778 0.373280
N1    N     N_R   0.500660 0.500930 0.148010 -0.239774
C24   C     C_R   0.463862 0.401494 0.071061 -0.085025
H10   H     H_    0.430932 0.323558 0.122991 0.169929
C25   C     C_R   0.460472 0.402248 0.923029 0.451058
N2    N     N_R   0.500660 0.500890 0.852110 -0.249445
C26   C     C_R   0.541924 0.597409 0.931323 0.214441
C27   C     C_3   0.503042 0.727072 0.921585 -0.500370
C28   C     C_3   0.503909 0.727069 0.079061 -0.474658
H11   H     H_    0.560260 0.792593 0.884613 0.198366
H12   H     H_    0.424003 0.733693 0.865702 0.220258
H13   H     H_    0.562465 0.791721 0.131774 0.238089
H14   H     H_    0.425230 0.733558 0.113981 0.195102
S1    S     S_3+6 0.809555 0.667865 0.303991 -0.009867
O9    O     O_2   0.780447 0.597394 0.170808 -0.337387
O10   O     O_2   0.715143 0.726890 0.350854 -0.291646
O11   O     O_3   0.893571 0.781948 0.272731 -0.536237
H15   H     H_    0.858647 0.829723 0.193365 0.371157
O12   O     O_3   0.727425 0.900380 0.577487 -0.650185
H16   H     H_    0.711195 0.944645 0.486864 0.362009
O13   O     O_3   0.410276 0.304549 0.853973 -0.723158
H17   H     H_    0.369084 0.339040 0.770998 0.359181
O14   O     O_3   0.024306 0.398937 0.794180 -0.732922
H18   H     H_    0.974198 0.377952 0.862269 0.334204

loop_
_geom_bond_atom_site_label_1
_geom_bond_atom_site_label_2
_geom_bond_distance
_ccdc_geom_bond_type
C15   C22   1.492320 S    
O4    Cu2   1.967193 S    
Cu1   O7    1.967195 S    
C13   C14   1.396028 A    
C17   C18   1.394862 A    
O13   H17   0.986165 S    
C1    C16   1.439299 S    
C15   C16   1.393173 A    
C9    C10   1.396645 A    
Cu2   N1    2.026354 S    
Cu2   O8    1.963711 S    
C16   C17   1.402821 A    
N1    C24   1.360859 A    
C27   H12   1.112685 S    
O14   H18   0.991820 S    
S1    O9    1.502917 D    
C5    C13   1.401100 A    
C7    C8    1.385437 A    
Cu1   Cu2   2.696680 S    
C21   H7    1.107272 S    
C23   C26   1.413853 A    
C11   C12   1.408573 A    
C10   C11   1.420619 A    
C22   H8    1.111571 S    
C9    H4    1.083918 S    
C15   C20   1.383518 A    
C12   S1    1.791239 S    
C23   C28   1.488683 S    
O3    Cu1   1.963711 S    
C7    H2    1.080109 S    
C6    C8    1.396342 A    
C26   C27   1.493927 S    
C18   C19   1.404241 A    
C21   C22   1.519107 S    
C24   C25   1.415044 A    
C3    C19   1.442932 S    
O2    C1    1.294514 A    
S1    O10   1.500695 D    
C6    C9    1.396119 A    
O4    C2    1.297471 A    
Cu2   O6    1.960373 S    
O7    C4    1.301523 A    
C7    C11   1.408518 A    
C28   H13   1.111780 S    
C23   N1    1.364142 A    
C2    C6    1.454224 S    
C21   O12   1.408262 S    
N2    C26   1.365458 A    
C10   C14   1.403922 A    
C28   H14   1.112048 S    
C13   H1    1.083873 S    
C18   H6    1.082518 S    
C24   H10   1.081401 S    
C22   H9    1.112769 S    
C14   O14   1.383231 S    
C27   C28   1.508305 S    
C5    C12   1.417152 A    
S1    O11   1.682942 S    
Cu1   O5    1.957796 S    
C27   H11   1.103818 S    
O5    C3    1.295397 A    
C25   N2    1.385833 A    
C20   C21   1.508221 S    
O1    Cu1   1.960376 S    
O11   H15   0.990719 S    
C4    C5    1.462267 S    
O3    C2    1.298158 A    
C17   H5    1.083363 S    
O2    Cu2   1.957796 S    
C8    H3    1.083471 S    
C19   C20   1.397654 A    
C25   O13   1.371775 S    
O8    C4    1.297512 A    
O12   H16   0.993697 S    
O1    C1    1.294086 A    
O6    C3    1.295749 A    
Cu1   N2    2.025875 S    
