data_mof_unit_51805.cif
_audit_creation_date              2012-12-10T20:30:07-0500
_audit_creation_method            fapswitch 2.2
_symmetry_space_group_name_H-M    P1
_symmetry_Int_Tables_number       1
_space_group_crystal_system       triclinic
_cell_length_a                    9.939969
_cell_length_b                    10.74699
_cell_length_c                    13.150928
_cell_angle_alpha                 92.560006
_cell_angle_beta                  69.647576
_cell_angle_gamma                 90.579894
_cell_volume                      1315.8051722

loop_
_atom_site_label
_atom_site_type_symbol
_atom_type_description
_atom_site_fract_x
_atom_site_fract_y
_atom_site_fract_z
_atom_type_partial_charge
C1    C     C_R   0.498927 0.739440 0.503328 0.887714
C2    C     C_R   0.459172 0.539683 0.971077 0.032449
C3    C     C_R   0.467013 0.472691 0.874503 0.094566
C4    C     C_R   0.562345 0.511489 0.018753 0.103280
C5    C     C_R   0.686941 0.440282 0.959847 0.038527
C6    C     C_R   0.689274 0.372910 0.865729 -0.143722
C7    C     C_R   0.576764 0.383639 0.827522 -0.172456
C8    C     C_R   0.533589 0.536091 0.128744 -0.222379
C9    C     C_R   0.775315 0.475540 0.109350 0.413701
C10   C     C_R   0.370122 0.501438 0.822472 -0.124367
C11   C     C_R   0.400152 0.930428 0.471328 -0.050055
C12   C     C_R   0.419960 0.494818 0.703988 0.836954
C13   C     C_R   0.493191 0.871277 0.511596 -0.075500
C14   C     C_R   0.576127 0.940015 0.560523 -0.166775
C15   C     C_R   0.576476 0.068847 0.557676 -0.170439
C16   C     C_R   0.493435 0.127702 0.506352 -0.175953
C17   C     C_R   0.397779 0.058244 0.469781 0.129120
C18   C     C_3   0.381541 0.049618 0.359573 0.771251
C19   C     C_3   0.388618 0.907920 0.361806 -0.434643
C20   C     C_R   0.892728 0.561236 0.580991 0.223202
C21   C     C_R   0.957854 0.421679 0.431830 -0.078228
C22   C     C_R   0.104144 0.432154 0.423401 -0.033177
C23   C     C_R   0.499611 0.259906 0.499005 0.925512
C24   C     C_R   0.033182 0.557425 0.584032 0.165900
C25   C     C_3   0.021987 0.692879 0.619504 -0.260754
C26   C     C_3   0.870937 0.695261 0.614352 -0.534658
C27   C     C_R   0.580929 0.505099 0.295533 0.944913
C28   C     C_R   0.799646 0.430875 0.001985 -0.064583
C29   C     C_R   0.633935 0.509576 0.176554 -0.224129
C30   C     C_R   0.246384 0.570128 0.878834 -0.167819
C31   C     C_R   0.235901 0.635570 0.974522 -0.120007
C32   C     C_R   0.350321 0.633533 0.013658 -0.032508
H1    H     H_    0.644412 0.121861 0.592499 0.183145
H2    H     H_    0.489149 0.866042 0.302972 0.127481
H3    H     H_    0.099833 0.750581 0.559316 0.196852
H4    H     H_    0.782748 0.710174 0.693812 0.229377
H5    H     H_    0.773005 0.305947 0.824432 0.180273
H6    H     H_    0.861732 0.752352 0.548807 0.207390
H7    H     H_    0.427597 0.567507 0.179394 0.212867
H8    H     H_    0.167913 0.587583 0.841621 0.207453
H9    H     H_    0.147915 0.701134 0.008622 0.183407
H10   H     H_    0.578458 0.324322 0.758252 0.150305
H11   H     H_    0.643707 0.894467 0.596993 0.162994
N1    N     N_R   0.856940 0.500860 0.500710 -0.158321
N2    N     N_R   0.142580 0.500820 0.500710 -0.147856
O1    O     O_R   0.385310 0.683210 0.499990 -0.601025
O2    O     O_R   0.614650 0.683240 0.500000 -0.633824
O3    O     O_R   0.328390 0.499940 0.653610 -0.614913
O4    O     O_R   0.557730 0.499980 0.653620 -0.610908
O5    O     O_R   0.385350 0.316760 0.500000 -0.558534
O6    O     O_R   0.614690 0.316790 0.500010 -0.632837
O7    O     O_R   0.442270 0.500020 0.346380 -0.573102
O8    O     O_R   0.671610 0.500060 0.346390 -0.580009
Zn1   Zn    Zn3+2 0.346870 0.499980 0.499990 1.032832
Zn2   Zn    Zn3+2 0.653130 0.500020 0.500010 0.981469
O9    O     O_3   0.890381 0.486026 0.144733 -0.659324
H12   H     H_    0.872528 0.558312 0.197202 0.354983
O10   O     O_3   0.247808 0.094373 0.363955 -0.637664
H13   H     H_    0.244046 0.080020 0.289856 0.377828
O11   O     O_3   0.496035 0.102434 0.276375 -0.754518
H14   H     H_    0.587588 0.069770 0.279470 0.307538
C33   C     C_2   0.256499 0.834158 0.365457 1.032869
O12   O     O_2   0.270838 0.725323 0.332442 -0.633124
O13   O     O_R   0.119134 0.887237 0.406201 -0.744298
H15   H     H_    0.043138 0.829067 0.396648 0.337173
C34   C     C_2   0.913942 0.310676 0.380728 1.007078
O14   O     O_2   0.929504 0.207555 0.410929 -0.610413
O15   O     O_R   0.860847 0.321433 0.296597 -0.697153
H16   H     H_    0.835725 0.237944 0.269030 0.344952
C35   C     C_2   0.210943 0.380522 0.321701 0.980462
O16   O     O_2   0.309828 0.316214 0.323317 -0.529330
O17   O     O_R   0.194247 0.402133 0.222610 -0.780334
H17   H     H_    0.271873 0.360490 0.158439 0.350934
C36   C     C_2   0.025507 0.717206 0.732109 0.975477
O18   O     O_2   0.941710 0.664656 0.809351 -0.612473
O19   O     O_R   0.123980 0.802825 0.747830 -0.801227
H18   H     H_    0.114978 0.814350 0.826862 0.336799
C37   C     C_2   0.942706 0.377348 0.935409 0.953284
O20   O     O_2   0.012231 0.319845 0.978661 -0.547558
O21   O     O_R   0.999082 0.394003 0.823591 -0.812918
H19   H     H_    0.096282 0.352533 0.787620 0.344671
C38   C     C_2   0.367512 0.745505 0.078652 0.913145
O22   O     O_2   0.262541 0.808046 0.132111 -0.613866
O23   O     O_R   0.504635 0.785513 0.071751 -0.793382
H20   H     H_    0.502626 0.866630 0.114617 0.350934

loop_
_geom_bond_atom_site_label_1
_geom_bond_atom_site_label_2
_ccdc_geom_bond_type
C34   O15   S    
C21   C34   S    
C27   C29   S    
C12   O3    A    
C4    C8    A    
C12   O4    A    
O3    Zn1   S    
C11   C19   S    
O5    Zn1   S    
C36   O19   S    
C24   N2    A    
C18   C19   S    
C3    C7    A    
C5    C6    A    
C37   O21   S    
C1    O1    A    
C19   C33   S    
C15   C16   A    
C21   N1    A    
O9    H12   S    
C2    C32   A    
C25   C36   S    
C7    H10   S    
C33   O13   S    
O15   H16   S    
C18   O10   S    
C20   C24   A    
C16   C17   A    
C35   O16   D    
C8    H7    S    
C28   C37   S    
C9    C29   A    
O17   H17   S    
C34   O14   D    
C13   C14   A    
C20   N1    A    
O7    Zn1   S    
O19   H18   S    
O8    Zn2   S    
C36   O18   D    
C24   C25   S    
C37   O20   D    
C26   H6    S    
C23   O5    A    
C25   C26   S    
O4    Zn2   S    
O11   H14   S    
C2    C4    A    
C33   O12   D    
C5    C28   A    
C10   C30   A    
C23   O6    A    
C31   C32   A    
O1    Zn1   S    
C17   C18   S    
C6    H5    S    
C30   H8    S    
C9    O9    S    
O23   H20   S    
C10   C12   S    
C25   H3    S    
C18   O11   S    
N2    Zn1   S    
C16   C23   S    
C38   O23   S    
C1    C13   S    
C8    C29   A    
C27   O7    A    
O2    Zn2   S    
C26   H4    S    
C11   C17   A    
C31   H9    S    
C1    O2    A    
O21   H19   S    
C19   H2    S    
C27   O8    A    
C6    C7    A    
C32   C38   S    
O13   H15   S    
C2    C3    A    
O10   H13   S    
C3    C10   A    
C11   C13   A    
N1    Zn2   S    
C30   C31   A    
C20   C26   S    
C22   C35   S    
O6    Zn2   S    
C4    C5    A    
C22   N2    A    
C38   O22   D    
C14   C15   A    
C35   O17   S    
C21   C22   A    
C15   H1    S    
C9    C28   A    
C14   H11   S    
