data_mof_unit_49191.cif
_audit_creation_date              2012-12-10T17:06:03-0500
_audit_creation_method            fapswitch 2.2
_symmetry_space_group_name_H-M    P1
_symmetry_Int_Tables_number       1
_space_group_crystal_system       triclinic
_cell_length_a                    11.514384
_cell_length_b                    10.683994
_cell_length_c                    10.179146
_cell_angle_alpha                 91.651688
_cell_angle_beta                  88.316477
_cell_angle_gamma                 90.327514
_cell_volume                      1251.15912689

loop_
_atom_site_label
_atom_site_type_symbol
_atom_type_description
_atom_site_fract_x
_atom_site_fract_y
_atom_site_fract_z
_atom_type_partial_charge
C1    C     C_R   0.501380 0.262762 0.497531 0.951972
C2    C     C_1   0.161648 0.499918 0.503957 -0.107700
C3    C     C_1   0.059321 0.500011 0.502040 0.047167
C4    C     C_1   0.940603 0.500184 0.497965 0.072845
C5    C     C_1   0.838295 0.500288 0.496132 -0.009640
C6    C     C_2   0.545827 0.930035 0.396944 -0.331008
C7    C     C_2   0.551103 0.864431 0.506605 0.230237
C8    C     C_2   0.562058 0.063260 0.399804 0.490694
C9    C     C_2   0.498087 0.129642 0.489278 -0.374204
C10   C     C_2   0.572625 0.557458 0.928546 -0.099647
C11   C     C_2   0.588793 0.524577 0.067388 0.463670
C12   C     C_R   0.282387 0.499915 0.501538 0.869731
C13   C     C_R   0.510978 0.736604 0.501821 0.813751
C14   C     C_R   0.717600 0.500239 0.498510 0.932183
H1    H     H_    0.517131 0.888240 0.304783 0.187806
H2    H     H_    0.438128 0.083585 0.557023 0.163447
H3    H     H_    0.636869 0.618193 0.883115 0.192380
H4    H     H_    0.424629 0.539795 0.121054 0.200059
H5    H     H_    0.725692 0.836853 0.798741 0.394854
H6    H     H_    0.810126 0.048501 0.169615 0.398481
H7    H     H_    0.285096 0.249676 0.825082 0.378283
H8    H     H_    0.902618 0.535605 0.009036 0.399268
N1    N     N_2   0.501210 0.501330 0.852150 0.041463
N2    N     N_2   0.501250 0.501360 0.147810 -0.185200
O1    O     O_R   0.499980 0.319060 0.613040 -0.525937
O2    O     O_2   0.530364 0.963926 0.751782 -0.271258
O3    O     O_3   0.696302 0.802541 0.714527 -0.545540
O4    O     O_2   0.612269 0.188180 0.181200 -0.208125
O5    O     O_2   0.743921 0.216973 0.365931 -0.277777
O6    O     O_3   0.753233 0.007590 0.229566 -0.499307
O7    O     O_2   0.449918 0.301524 0.998135 -0.245634
O8    O     O_2   0.297035 0.459759 0.975683 -0.324610
O9    O     O_3   0.339861 0.309167 0.782886 -0.485518
O10   O     O_2   0.760359 0.633428 0.201906 -0.293161
O11   O     O_2   0.764117 0.402903 0.176618 -0.202522
O12   O     O_R   0.500020 0.319100 0.386900 -0.565049
O13   O     O_3   0.822414 0.534071 0.976359 -0.557192
O14   O     O_R   0.334430 0.499990 0.613070 -0.555662
O15   O     O_R   0.334470 0.500030 0.386930 -0.612244
O16   O     O_R   0.499980 0.680900 0.613100 -0.569858
O17   O     O_R   0.500020 0.680940 0.386960 -0.645262
O18   O     O_R   0.665530 0.499970 0.613070 -0.612539
O19   O     O_R   0.665570 0.500010 0.386930 -0.527022
O20   O     O_2   0.703795 0.025964 0.622896 -0.236979
S1    S     S_3+6 0.621085 0.920218 0.651873 0.065235
S2    S     S_3+6 0.669578 0.124744 0.291869 0.118217
S3    S     S_3+6 0.397195 0.392648 0.907408 0.139233
S4    S     S_3+6 0.736072 0.522960 0.111879 0.078837
Zn1   Zn    Zn3+2 0.499980 0.499970 0.650990 1.137804
Zn2   Zn    Zn3+2 0.500020 0.500030 0.349010 1.100981

loop_
_geom_bond_atom_site_label_1
_geom_bond_atom_site_label_2
_ccdc_geom_bond_type
C8    C9    D    
C6    C8    S    
O19   Zn2   S    
C6    C7    D    
C10   N1    D    
H5    O3    S    
C11   N2    D    
O10   S4    D    
O5    S2    D    
C14   O18   A    
C2    C12   S    
O3    S1    S    
C12   O15   A    
C13   O17   A    
C2    C3    T    
C5    C14   S    
C1    C9    S    
O14   Zn1   S    
H6    O6    S    
O13   S4    S    
C1    O1    A    
O4    S2    D    
C11   S4    S    
H4    N2    S    
O11   S4    D    
C7    S1    S    
C9    H2    S    
O1    Zn1   S    
N2    Zn2   S    
O9    S3    S    
O8    S3    D    
C8    S2    S    
N1    Zn1   S    
H7    O9    S    
C10   C11   S    
N1    S3    S    
C10   H3    S    
C3    C4    S    
C12   O14   A    
O17   Zn2   S    
C7    C13   S    
O15   Zn2   S    
O12   Zn2   S    
O20   S1    D    
C14   O19   A    
C13   O16   A    
O7    S3    D    
O18   Zn1   S    
O2    S1    D    
C6    H1    S    
H8    O13   S    
O6    S2    S    
O16   Zn1   S    
C1    O12   A    
C4    C5    T    
