data_mof_unit_45793.cif
_audit_creation_date              2013-03-05T15:55:21-0500
_audit_creation_method            fapswitch 2.2
_symmetry_space_group_name_H-M    P1
_symmetry_Int_Tables_number       1
_space_group_crystal_system       triclinic
_cell_length_a                    27.213628
_cell_length_b                    10.695711
_cell_length_c                    9.872232
_cell_angle_alpha                 88.794231
_cell_angle_beta                  89.437005
_cell_angle_gamma                 92.007634
_cell_volume                      2870.9414989

loop_
_atom_site_label
_atom_site_type_symbol
_atom_site_description
_atom_site_fract_x
_atom_site_fract_y
_atom_site_fract_z
_atom_type_partial_charge
O1    O     O_R   0.500000 0.316780 0.614690 -0.650993
O2    O     O_R   0.500000 0.316750 0.385360 -0.635250
C1    C     C_R   0.502034 0.259321 0.502356 0.874648
O3    O     O_R   0.428760 0.500030 0.614650 -0.641922
O4    O     O_R   0.428750 0.500010 0.385320 -0.639287
C2    C     C_R   0.405762 0.500945 0.500344 0.851107
Zn1   Zn    Zn3+2 0.500000 0.500020 0.653130 0.919923
Zn2   Zn    Zn3+2 0.500000 0.499980 0.346870 0.922617
O5    O     O_R   0.500000 0.683250 0.614640 -0.617315
O6    O     O_R   0.500000 0.683220 0.385310 -0.627227
O7    O     O_R   0.571250 0.499990 0.614680 -0.612440
O8    O     O_R   0.571240 0.499970 0.385350 -0.610144
C3    C     C_R   0.494159 0.738297 0.499031 0.884380
C4    C     C_R   0.594392 0.502840 0.499052 0.891337
C5    C     C_R   0.184842 0.590484 0.327145 0.492188
O9    O     O_2   0.210335 0.526236 0.235320 -0.569769
N1    N     N_R   0.207966 0.636579 0.438698 -0.348195
C6    C     C_R   0.184467 0.709885 0.528604 0.496176
C7    C     C_R   0.295531 0.682328 0.425484 -0.132023
C8    C     C_R   0.343544 0.648161 0.441904 -0.271557
C9    C     C_R   0.315757 0.446900 0.543486 0.049421
C10   C     C_R   0.266226 0.482814 0.527918 0.119419
C11   C     C_R   0.257026 0.600539 0.465728 0.279928
C12   C     C_R   0.108317 0.671239 0.409143 -0.053310
C13   C     C_R   0.134339 0.605107 0.311373 -0.023905
C14   C     C_R   0.109130 0.550478 0.203926 -0.141131
C15   C     C_R   0.134087 0.729177 0.515159 -0.019401
C16   C     C_R   0.354004 0.531099 0.497812 -0.056250
H1    H     H_    0.128549 0.503251 0.124637 0.183784
C17   C     C_R   0.647818 0.521841 0.494266 -0.068056
C18   C     C_R   0.979091 0.588054 0.316406 0.044422
C19   C     C_R   0.978467 0.740575 0.500694 0.042590
C20   C     C_R   0.953193 0.656081 0.414457 0.070511
C21   C     C_R   0.952629 0.499530 0.238522 -0.218584
C22   C     C_R   0.902451 0.477858 0.257584 -0.147131
C23   C     C_R   0.876700 0.545027 0.353185 -0.016005
C24   C     C_R   0.901641 0.636798 0.429148 -0.054208
C25   C     C_R   0.875083 0.707657 0.521530 -0.021286
C26   C     C_R   0.824275 0.684952 0.536470 0.501539
N2    N     N_R   0.801410 0.590545 0.467151 -0.357224
C27   C     C_R   0.826395 0.521353 0.376099 0.487187
C28   C     C_R   0.719832 0.604313 0.373703 -0.131867
C29   C     C_R   0.669586 0.580219 0.379231 -0.211569
C30   C     C_R   0.677037 0.487228 0.604048 -0.249625
C31   C     C_R   0.728205 0.509392 0.598953 0.153073
C32   C     C_R   0.749439 0.568993 0.481790 0.299326
O10   O     O_2   0.802512 0.429771 0.308186 -0.573879
C33   C     C_R   0.030786 0.605129 0.304789 0.042919
C34   C     C_R   0.056417 0.674945 0.404043 0.070107
C35   C     C_R   0.030600 0.743573 0.501776 0.043385
C36   C     C_R   0.058153 0.550418 0.200447 -0.220489
H2    H     H_    0.647642 0.609247 0.293934 0.157949
H3    H     H_    0.736129 0.649817 0.284189 0.138074
H4    H     H_    0.041104 0.506221 0.114830 0.142365
O11   O     O_2   0.209498 0.760615 0.632491 -0.580835
C37   C     C_R   0.108681 0.799236 0.608933 -0.147201
H5    H     H_    0.372978 0.713029 0.408811 0.148594
H6    H     H_    0.127782 0.845448 0.690757 0.186462
C38   C     C_R   0.950495 0.815446 0.586687 -0.218993
C39   C     C_R   0.899688 0.799399 0.596362 -0.140105
O12   O     O_2   0.797898 0.756526 0.619078 -0.579657
C40   C     C_R   0.057916 0.807214 0.602026 -0.217448
H7    H     H_    0.966815 0.888209 0.647264 0.142690
H8    H     H_    0.660128 0.440906 0.692310 0.154840
H9    H     H_    0.879889 0.857527 0.665287 0.187781
H10   H     H_    0.040936 0.858486 0.681609 0.142615
H11   H     H_    0.511042 0.115631 0.288894 0.171655
C41   C     C_R   0.499637 0.101247 0.762881 -0.200810
H12   H     H_    0.521041 0.185504 0.782450 0.185192
C42   C     C_R   0.481187 0.034762 0.876512 -0.207554
H13   H     H_    0.486472 0.073609 0.976059 0.150924
C43   C     C_R   0.455013 0.921224 0.862311 0.163731
C44   C     C_R   0.452699 0.869323 0.732818 -0.161736
H14   H     H_    0.433095 0.781115 0.718600 0.150455
C45   C     C_R   0.476137 0.930706 0.620043 0.062761
C46   C     C_R   0.492709 0.054872 0.630754 0.088086
C47   C     C_R   0.501925 0.124686 0.508004 -0.108901
C48   C     C_R   0.503589 0.064799 0.383427 -0.214492
H15   H     H_    0.503356 0.892413 0.283393 0.162343
C49   C     C_R   0.497400 0.937665 0.379037 -0.222141
C50   C     C_R   0.485872 0.869929 0.497796 -0.121340
H16   H     H_    0.555227 0.641433 0.121047 0.141330
C51   C     C_R   0.434723 0.336471 0.145528 -0.160885
H17   H     H_    0.432515 0.329878 0.252907 0.202109
C52   C     C_R   0.402408 0.256848 0.077419 -0.208955
H18   H     H_    0.377322 0.194042 0.133891 0.150570
C53   C     C_R   0.402635 0.257019 0.937278 -0.192905
H19   H     H_    0.377952 0.193763 0.884297 0.158334
C54   C     C_R   0.435324 0.336525 0.864854 -0.174638
H20   H     H_    0.434754 0.329325 0.757903 0.207249
C55   C     C_R   0.468059 0.419256 0.930344 0.145243
C56   C     C_R   0.467922 0.419336 0.075039 0.177360
N3    N     N_R   0.499540 0.498800 0.142780 -0.122385
C57   C     C_R   0.530437 0.577886 0.069024 -0.128180
H21   H     H_    0.555192 0.641434 0.869332 0.156733
C58   C     C_R   0.530430 0.577840 0.925612 -0.118389
N4    N     N_R   0.499520 0.498720 0.857170 -0.130952
C59   C     C_3   0.328392 0.320130 0.603785 -0.454153
C60   C     C_3   0.340361 0.226994 0.493132 -0.350584
C61   C     C_3   0.356465 0.103045 0.554675 -0.867308
H22   H     H_    0.389275 0.118685 0.618946 0.260916
H23   H     H_    0.326276 0.058605 0.617327 0.271777
H24   H     H_    0.366091 0.038540 0.472573 0.250715
H25   H     H_    0.307353 0.209497 0.429922 0.232242
H26   H     H_    0.370442 0.265904 0.426404 0.211808
H27   H     H_    0.360007 0.332489 0.671575 0.202646
H28   H     H_    0.298874 0.279190 0.670499 0.213800
H29   H     H_    0.288042 0.772232 0.379050 0.147744
C62   C     C_3   0.758972 0.463891 0.715886 -0.412744
C63   C     C_3   0.748932 0.536688 0.845142 -0.353320
C64   C     C_3   0.782604 0.497152 0.959944 -0.799456
H30   H     H_    0.776781 0.395806 0.984228 0.273970
H31   H     H_    0.821734 0.516402 0.930985 0.256532
H32   H     H_    0.774256 0.550882 0.051912 0.261269
H33   H     H_    0.754911 0.638609 0.824810 0.271265
H34   H     H_    0.710126 0.519705 0.878693 0.215194
H35   H     H_    0.750134 0.362741 0.735060 0.201614
H36   H     H_    0.798810 0.472152 0.690741 0.208757
C65   C     C_3   0.223234 0.398422 0.577247 -0.439525
C66   C     C_3   0.212338 0.418945 0.727823 -0.331655
C67   C     C_3   0.170483 0.331593 0.779762 -0.862126
H37   H     H_    0.136392 0.348484 0.722174 0.260942
H38   H     H_    0.180476 0.232432 0.769172 0.265150
H39   H     H_    0.163283 0.349176 0.888516 0.258336
H40   H     H_    0.245537 0.402694 0.789413 0.228958
H41   H     H_    0.201763 0.517199 0.742281 0.257319
H42   H     H_    0.189468 0.416444 0.519262 0.209176
H43   H     H_    0.230362 0.298770 0.558153 0.210724
C68   C     C_3   0.432897 0.857767 0.988796 -0.443970
C69   C     C_3   0.402733 0.736096 0.965417 -0.363118
C70   C     C_3   0.382113 0.680533 0.098618 -0.809861
H44   H     H_    0.412446 0.661849 0.169846 0.276078
H45   H     H_    0.356476 0.746030 0.145527 0.254446
H46   H     H_    0.361785 0.590905 0.079453 0.265144
H47   H     H_    0.371622 0.755039 0.896658 0.232346
H48   H     H_    0.426396 0.666104 0.918676 0.236293
H49   H     H_    0.463352 0.837157 0.059204 0.201021
H50   H     H_    0.408738 0.925121 0.038909 0.205023
H51   H     H_    0.883984 0.407071 0.197620 0.186946
H52   H     H_    0.970060 0.440715 0.166379 0.142777

loop_
_geom_bond_atom_site_label_1
_geom_bond_atom_site_label_2
_geom_bond_distance
_ccdc_geom_bond_type
C53   H19   1.082817 S    
N3    C57   1.365613 A    
H16   C57   1.081764 S    
H21   C58   1.081689 S    
C44   H14   1.079900 S    
C7    C8    1.379205 A    
C12   C15   1.408008 A    
C70   H46   1.110567 S    
C62   H35   1.111926 S    
C43   C68   1.517582 S    
C31   C32   1.417083 A    
C30   H8    1.083712 S    
Zn1   O7    1.972126 S    
C51   C56   1.411234 A    
N1    C11   1.428632 S    
C23   C24   1.407430 A    
C28   H3    1.083317 S    
O4    C2    1.291453 A    
C49   C50   1.392463 A    
O7    C4    1.297558 A    
C31   C62   1.514715 S    
C29   H2    1.083507 S    
C5    C13   1.398501 A    
C5    O9    1.350010 S    
C3    C50   1.433443 S    
C5    N1    1.366249 A    
C21   C22   1.387342 A    
C28   C32   1.397059 A    
O5    C3    1.286996 A    
C63   C64   1.526556 S    
C56   N3    1.376211 A    
C67   H39   1.110594 S    
C22   H51   1.083650 S    
C33   C36   1.413876 A    
C2    C16   1.456311 S    
C68   H50   1.112541 S    
C69   H47   1.111819 S    
C41   H12   1.077723 S    
C18   C20   1.419611 A    
C42   H13   1.083929 S    
C54   C55   1.405247 A    
C47   C48   1.399630 A    
C65   H43   1.109690 S    
C60   H25   1.111500 S    
C38   C39   1.389378 A    
C9    C10   1.423343 A    
C44   C45   1.415402 A    
C17   C30   1.401639 A    
C23   C27   1.398765 A    
H11   C48   1.083931 S    
C4    C17   1.461146 S    
O3    Zn1   1.979233 S    
C60   H26   1.109633 S    
C55   N4    1.374143 A    
C62   H36   1.109893 S    
C52   C53   1.383419 A    
C10   C65   1.522185 S    
C26   O12   1.348940 S    
O2    Zn2   1.988406 S    
C40   H10   1.077165 S    
C12   C13   1.408480 A    
O3    C2    1.295775 A    
C26   N2    1.366930 A    
C15   C37   1.396224 A    
C45   C50   1.409977 A    
C8    C16   1.397235 A    
C13   C14   1.396258 A    
C52   H18   1.082938 S    
C61   H24   1.110682 S    
C20   C24   1.416389 A    
C59   H28   1.106171 S    
O1    C1    1.280811 A    
C22   C23   1.395995 A    
C7    C11   1.390713 A    
C45   C46   1.393961 A    
C24   C25   1.408209 A    
C51   H17   1.061906 S    
Zn2   O8    1.979230 S    
C58   N4    1.365870 A    
C61   H23   1.110730 S    
N1    C6    1.365559 A    
C27   O10   1.350207 S    
C18   C21   1.414217 A    
C64   H31   1.110977 S    
C46   C47   1.425415 A    
C57   C58   1.415806 A    
C48   C49   1.365960 A    
C19   C35   1.418125 A    
C67   H37   1.110991 S    
C6    O11   1.349629 S    
C25   C39   1.396828 A    
C41   C42   1.395187 A    
N2    C27   1.367200 A    
C51   C52   1.390684 A    
C9    C16   1.416218 A    
O8    C4    1.293024 A    
C39   H9    1.083470 S    
C59   C60   1.534036 S    
C18   C33   1.415462 A    
C53   C54   1.390899 A    
C35   C40   1.415201 A    
C37   C40   1.389374 A    
C17   C29   1.400537 A    
C28   C29   1.382859 A    
N2    C32   1.430423 S    
C70   H44   1.110343 S    
C1    C47   1.439819 S    
C63   H34   1.111348 S    
C55   C56   1.428454 A    
C30   C31   1.404534 A    
C68   C69   1.536932 S    
C12   C34   1.415693 A    
Zn1   O5    1.988409 S    
C33   C34   1.418452 A    
Zn1   N4    2.013995 S    
C64   H30   1.110791 S    
O1    Zn1   2.004109 S    
C10   C11   1.420454 A    
C69   H48   1.109292 S    
C6    C15   1.400758 A    
C43   C44   1.405482 A    
C70   H45   1.110626 S    
O6    C3    1.289801 A    
O4    Zn2   1.972128 S    
C65   C66   1.534763 S    
C41   C46   1.417222 A    
C38   H7    1.077578 S    
C59   H27   1.101203 S    
C60   C61   1.526693 S    
C36   H4    1.078096 S    
C19   C20   1.419473 A    
C69   C70   1.525286 S    
C8    H5    1.084485 S    
C62   C63   1.535918 S    
C7    H29   1.083202 S    
C9    C59   1.521108 S    
C25   C26   1.401253 A    
C21   H52   1.077550 S    
C61   H22   1.110378 S    
C66   H40   1.110650 S    
C37   H6    1.083546 S    
O2    C1    1.299303 A    
C64   H32   1.110517 S    
C66   H41   1.110967 S    
C67   H38   1.110896 S    
H15   C49   1.083424 S    
C68   H49   1.111896 S    
C14   H1    1.083671 S    
Zn2   O6    2.004108 S    
C34   C35   1.419844 A    
Zn2   N3    2.015288 S    
C66   C67   1.525452 S    
C42   C43   1.396503 A    
C19   C38   1.414231 A    
C54   H20   1.060496 S    
C14   C36   1.387990 A    
C63   H33   1.110340 S    
C65   H42   1.107839 S    
