data_mof_unit_25072.cif
_audit_creation_date              2013-03-05T15:57:01-0500
_audit_creation_method            fapswitch 2.2
_symmetry_space_group_name_H-M    P1
_symmetry_Int_Tables_number       1
_space_group_crystal_system       triclinic
_cell_length_a                    8.512774
_cell_length_b                    16.479296
_cell_length_c                    19.076424
_cell_angle_alpha                 98.952119
_cell_angle_beta                  92.704776
_cell_angle_gamma                 93.794475
_cell_volume                      2633.2431483

loop_
_atom_site_label
_atom_site_type_symbol
_atom_site_description
_atom_site_fract_x
_atom_site_fract_y
_atom_site_fract_z
_atom_type_partial_charge
P1    P     P_3+3 0.056550 0.421630 0.336220 0.589734
O1    O     O_2   0.884010 0.444810 0.325060 -0.325598
O2    O     O_3   0.132090 0.451130 0.414310 -0.374768
O3    O     O_3   0.640770 0.594650 0.368950 -0.391514
O4    O     O_2   0.752402 0.542910 0.244630 -0.353711
O5    O     O_3   0.050142 0.312896 0.311741 -0.576724
O6    O     O_3   0.655016 0.691461 0.260932 -0.535485
H1    H     H_    0.732540 0.740840 0.364701 0.137239
C1    C     C_3   0.656041 0.835413 0.307858 -0.862100
H2    H     H_    0.781632 0.856738 0.306006 0.226956
H3    H     H_    0.594531 0.839473 0.256058 0.317150
P2    P     P_3+3 0.635450 0.689180 0.556380 0.533031
P3    P     P_3+3 0.085520 0.747307 0.414396 0.465635
O7    O     O_2   0.808690 0.699720 0.534830 -0.320882
O8    O     O_3   0.053760 0.638480 0.405010 -0.432797
O9    O     O_2   0.960044 0.781867 0.463813 -0.347897
O10   O     O_3   0.655587 0.713933 0.649318 -0.511241
O11   O     O_3   0.027218 0.785634 0.336744 -0.568460
C2    C     C_3   0.087614 0.743085 0.275082 0.612584
H4    H     H_    0.071723 0.675164 0.273711 0.002394
C3    C     C_3   0.996519 0.765869 0.209996 -0.128609
H5    H     H_    0.869193 0.760405 0.216955 0.162812
C4    C     C_3   0.203646 0.751587 0.708705 1.273772
C5    C     C_3   0.177229 0.738967 0.786170 -0.172140
H6    H     H_    0.278150 0.708039 0.803533 0.033805
H7    H     H_    0.065816 0.701435 0.788455 0.101629
Ba1   Ba    Ba6+2 0.845660 0.536000 0.465120 1.689746
C6    C     C_3   0.955685 0.266534 0.351909 0.862758
H8    H     H_    0.863452 0.304511 0.375952 -0.027543
C7    C     C_3   0.865887 0.191436 0.300772 0.700025
H9    H     H_    0.767212 0.217409 0.274371 0.100367
C8    C     C_3   0.698881 0.646963 0.681055 0.335314
H10   H     H_    0.826665 0.641219 0.676527 0.036505
H11   H     H_    0.632069 0.588503 0.656622 0.089089
C9    C     C_3   0.660850 0.662361 0.759606 -0.194025
H12   H     H_    0.672637 0.606012 0.783155 0.067519
H13   H     H_    0.536577 0.676970 0.764206 0.153551
P4    P     P_3+3 0.133150 0.578440 0.663790 0.465738
O12   O     O_2   0.305690 0.555220 0.674980 -0.367169
O13   O     O_3   0.057610 0.548940 0.585700 -0.356759
O14   O     O_3   0.548930 0.405410 0.631060 -0.338547
O15   O     O_3   0.136221 0.685170 0.656550 -0.621742
P5    P     P_3+3 0.113292 0.252929 0.588125 0.609843
O16   O     O_3   0.631040 0.400420 0.463490 -0.334421
O17   O     O_3   0.135930 0.361590 0.595000 -0.292784
O18   O     O_2   0.254034 0.218925 0.548193 -0.357226
O19   O     O_3   0.150588 0.224614 0.672361 -0.498296
Ba2   Ba    Ba6+2 0.344160 0.464070 0.534880 1.690523
P6    P     P_3+3 0.616167 0.590640 0.277257 0.547973
C10   C     C_3   0.639527 0.747380 0.323732 0.485684
H14   H     H_    0.522575 0.737014 0.345676 0.042236
H15   H     H_    0.604706 0.877773 0.350008 0.233126
O20   O     O_3   0.558660 0.599640 0.536520 -0.421311
C11   C     C_3   0.410479 0.257751 0.310371 0.632946
H16   H     H_    0.313655 0.271344 0.345320 0.052844
C12   C     C_3   0.385404 0.165785 0.276432 -0.174827
H17   H     H_    0.395143 0.127596 0.319373 0.084064
H18   H     H_    0.265382 0.153985 0.250381 0.174772
P7    P     P_3+3 0.555367 0.298007 0.439352 0.480968
O21   O     O_2   0.381010 0.300300 0.465220 -0.353168
O22   O     O_3   0.559876 0.274272 0.346321 -0.614031
H19   H     H_    0.026397 0.831400 0.205089 0.153797
C13   C     C_3   0.008069 0.211038 0.704624 0.670627
H20   H     H_    0.921224 0.170245 0.668212 -0.106039
C14   C     C_3   0.035814 0.166024 0.767987 -0.145599
H21   H     H_    0.121742 0.203246 0.807591 0.163324
H22   H     H_    0.084066 0.106266 0.748765 0.147165
P8    P     P_3+3 0.570787 0.413445 0.723511 0.563694
C15   C     C_3   0.519172 0.255350 0.735244 1.064959
H23   H     H_    0.649520 0.263485 0.742224 -0.106438
O23   O     O_2   0.467740 0.483934 0.747357 -0.382419
O24   O     O_3   0.454767 0.332295 0.751046 -0.495743
H24   H     H_    0.568050 0.187783 0.822032 0.153904
C16   C     C_3   0.462684 0.199767 0.789445 0.078544
H25   H     H_    0.381791 0.233099 0.825786 0.150018
C17   C     C_R   0.986757 0.490365 0.055259 0.003699
C18   C     C_R   0.890655 0.453909 0.102086 -0.144524
C19   C     C_R   0.729266 0.432911 0.081336 0.595100
C20   C     C_R   0.671185 0.449987 0.015851 -0.331175
C21   C     C_R   0.771695 0.469009 0.964318 -0.009906
C22   C     C_R   0.928269 0.494021 0.984604 0.038675
C23   C     C_R   0.717674 0.454381 0.892358 0.318907
C24   C     C_R   0.815985 0.475758 0.838501 -0.188798
C25   C     C_R   0.970758 0.512861 0.860667 0.091815
C26   C     C_R   0.026617 0.519401 0.933871 0.006868
C27   C     C_R   0.769910 0.460306 0.763935 0.240516
C28   C     C_R   0.871431 0.490777 0.715599 -0.308132
C29   C     C_R   0.019026 0.533204 0.736155 0.116349
C30   C     C_R   0.073464 0.539293 0.809958 0.039736
C31   C     C_R   0.143100 0.518083 0.077208 0.082346
C32   C     C_R   0.202276 0.513838 0.147779 -0.033197
C33   C     C_R   0.107443 0.473763 0.194387 -0.256318
C34   C     C_R   0.960599 0.433670 0.165503 0.473827
H26   H     H_    0.545935 0.441832 0.002857 0.182104
H27   H     H_    0.832438 0.482610 0.659972 0.135390
C35   C     C_R   0.228378 0.569244 0.835287 -0.167036
C36   C     C_R   0.280488 0.578379 0.907563 0.167325
C37   C     C_R   0.181396 0.550330 0.956757 0.061391
C38   C     C_R   0.238819 0.551194 0.028508 0.062231
C39   C     C_R   0.433331 0.612457 0.931047 -0.096864
C40   C     C_R   0.488405 0.615742 0.001979 -0.133989
C41   C     C_R   0.393305 0.583339 0.050815 0.070684
C42   C     C_R   0.358736 0.546019 0.169798 -0.030155
C43   C     C_R   0.451770 0.580967 0.120780 -0.059724
C44   C     C_R   0.416910 0.543285 0.240329 0.180729
C45   C     C_R   0.318841 0.508585 0.287503 0.289193
C46   C     C_R   0.166185 0.472411 0.266569 0.143721
H28   H     H_    0.312307 0.585282 0.799089 0.159622
H29   H     H_    0.511551 0.635285 0.894229 0.139891
H30   H     H_    0.607664 0.641125 0.018026 0.183146
H31   H     H_    0.571849 0.605076 0.135848 0.179352
C47   C     C_R   0.363464 0.744866 0.498154 -0.677392
C48   C     C_R   0.522418 0.765455 0.517651 0.168535
C49   C     C_R   0.587201 0.845575 0.513714 0.407296
C50   C     C_R   0.494175 0.900729 0.481740 -0.189248
C51   C     C_R   0.339511 0.872777 0.453635 0.478949
C52   C     C_R   0.277766 0.792561 0.458597 0.097556
C53   C     C_R   0.632415 0.145067 0.471989 -0.197880
C54   C     C_R   0.674941 0.229580 0.482297 0.208702
C55   C     C_R   0.733689 0.090518 0.497995 0.172953
N1    N     N_2   0.546085 0.984676 0.478680 -0.047133
N2    N     N_2   0.688603 0.005006 0.495531 -0.035175
C56   C     C_R   0.818738 0.260740 0.517753 -0.276985
H32   H     H_    0.520927 0.122324 0.443842 0.126476
C57   C     C_R   0.923748 0.207717 0.541383 0.270478
C58   C     C_R   0.880760 0.122520 0.531518 -0.422897
H33   H     H_    0.959522 0.081614 0.551867 0.138840
H34   H     H_    0.306727 0.689740 0.512375 0.210731
H35   H     H_    0.851809 0.326173 0.524739 0.147123
N3    N     N_R   0.176138 0.816165 0.836355 0.277665
O25   O     O_R   0.274911 0.830106 0.891818 -0.348563
O26   O     O_R   0.066372 0.866507 0.831254 -0.248674
O27   O     O_3   0.051182 0.246867 0.409674 -0.651716
C59   C     C_3   0.113572 0.168462 0.398331 -0.175573
H36   H     H_    0.230947 0.170825 0.425414 0.169217
H37   H     H_    0.132408 0.144351 0.343420 0.128849
H38   H     H_    0.037664 0.123257 0.420150 0.160585
O28   O     O_3   0.798110 0.135157 0.342730 -0.680373
C60   C     C_3   0.813548 0.050723 0.317877 -0.167609
H39   H     H_    0.934730 0.036831 0.303350 0.165120
H40   H     H_    0.725683 0.026681 0.274019 0.203310
H41   H     H_    0.787047 0.015664 0.361388 0.160022
O29   O     O_3   0.969808 0.156279 0.249630 -0.693488
C61   C     C_3   0.894167 0.128542 0.181750 0.051418
H42   H     H_    0.821678 0.174864 0.162885 0.208346
H43   H     H_    0.821561 0.070111 0.180169 0.126270
H44   H     H_    0.986435 0.116014 0.143165 0.180837
N4    N     N_R   0.763693 0.728773 0.800847 0.259528
O30   O     O_R   0.823836 0.719758 0.862904 -0.366947
O31   O     O_R   0.778504 0.800574 0.780782 -0.327270
N5    N     N_R   0.397788 0.310930 0.256609 0.226821
O32   O     O_R   0.274164 0.302806 0.212810 -0.410758
O33   O     O_R   0.505260 0.370338 0.255172 -0.320460
N6    N     N_R   0.494554 0.138181 0.222575 0.266708
O34   O     O_R   0.538490 0.185998 0.178032 -0.400518
O35   O     O_R   0.499087 0.059209 0.203133 -0.369891
N7    N     N_R   0.945411 0.289822 0.727187 0.202993
O36   O     O_R   0.858557 0.318970 0.680665 -0.531946
O37   O     O_R   0.017495 0.340303 0.779835 -0.388426
N8    N     N_R   0.889270 0.149899 0.801647 0.233721
O38   O     O_R   0.793324 0.086994 0.774449 -0.444806
O39   O     O_R   0.867936 0.188768 0.864849 -0.340160
O40   O     O_3   0.465837 0.219601 0.665497 -0.546761
C62   C     C_3   0.564092 0.158663 0.637993 -0.152528
H45   H     H_    0.598266 0.117474 0.675991 0.164385
H46   H     H_    0.671385 0.189052 0.621140 0.126627
H47   H     H_    0.499180 0.119170 0.592107 0.169483
O41   O     O_3   0.383520 0.124679 0.755830 -0.617565
C63   C     C_3   0.368159 0.069722 0.805381 -0.149638
H48   H     H_    0.319310 0.098880 0.855550 0.158989
H49   H     H_    0.483394 0.045085 0.816900 0.195690
H50   H     H_    0.284144 0.017247 0.781938 0.179164
O42   O     O_3   0.628098 0.401229 0.127147 -0.588086
C64   C     C_3   0.510983 0.343282 0.089608 0.093432
H51   H     H_    0.555422 0.304839 0.042363 0.126488
H52   H     H_    0.405637 0.374700 0.074885 0.090002
H53   H     H_    0.471692 0.299893 0.124084 0.244057
N9    N     N_R   0.579365 0.400048 0.876152 0.224868
O43   O     O_R   0.442859 0.430918 0.875884 -0.393145
O44   O     O_R   0.586717 0.327351 0.893873 -0.468427
N10   N     N_R   0.923094 0.352176 0.179044 0.245329
O45   O     O_R   0.988261 0.292502 0.141057 -0.386461
O46   O     O_R   0.798608 0.335187 0.212240 -0.336566
N11   N     N_R   0.253256 0.769395 0.271477 0.202309
O47   O     O_R   0.296761 0.847704 0.283413 -0.353901
O48   O     O_R   0.341056 0.719988 0.234049 -0.443042
O49   O     O_3   0.376065 0.508529 0.356145 -0.589944
C65   C     C_3   0.341310 0.583256 0.397087 0.138322
H54   H     H_    0.259775 0.573058 0.437799 0.164852
H55   H     H_    0.313438 0.633227 0.366229 -0.032155
H56   H     H_    0.440520 0.608705 0.431765 0.142762
O50   O     O_3   0.250833 0.923202 0.418893 -0.544452
C66   C     C_3   0.159134 0.968607 0.468352 -0.147667
H57   H     H_    0.231043 0.022605 0.498672 0.118533
H58   H     H_    0.104165 0.931044 0.505606 0.127854
H59   H     H_    0.060662 0.991094 0.438569 0.157629
O51   O     O_3   0.740656 0.868896 0.539666 -0.586087
C67   C     C_3   0.741593 0.908377 0.611018 -0.088406
H60   H     H_    0.629824 0.936760 0.625790 0.084577
H61   H     H_    0.836269 0.959063 0.619839 0.140850
H62   H     H_    0.770822 0.864208 0.647012 0.207879
N12   N     N_R   0.028221 0.713185 0.144186 0.256524
O52   O     O_R   0.155600 0.728352 0.111942 -0.302439
O53   O     O_R   0.914538 0.664062 0.109913 -0.412815
O54   O     O_3   0.367481 0.762537 0.697726 -0.679537
C68   C     C_3   0.441979 0.834706 0.739598 -0.180902
H63   H     H_    0.478449 0.822329 0.793208 0.204765
H64   H     H_    0.369844 0.888517 0.744448 0.143202
H65   H     H_    0.549138 0.853060 0.713976 0.198273
O55   O     O_3   0.125288 0.822767 0.697379 -0.634880
C69   C     C_3   0.142977 0.842298 0.628566 -0.110508
H66   H     H_    0.268562 0.852411 0.616842 0.114210
H67   H     H_    0.088715 0.900967 0.625613 0.130508
H68   H     H_    0.080777 0.794343 0.587809 0.208046

loop_
_geom_bond_atom_site_label_1
_geom_bond_atom_site_label_2
_geom_bond_distance
_ccdc_geom_bond_type
Ba1   Ba2   4.669906 S    
C28   C29   1.404694 A    
C13   C14   1.530485 S    
N7    O36   1.297204 A    
C7    O28   1.427421 S    
P8    C27   1.892719 S    
C63   H48   1.113827 S    
C2    H4    1.114599 S    
O3    Ba1   2.795524 S    
C59   H38   1.097238 S    
C16   O41   1.413654 S    
C49   C50   1.430895 A    
C18   C19   1.416707 A    
N11   O47   1.300641 A    
C58   H33   1.082287 S    
C4    O15   1.428748 S    
N12   O53   1.300473 A    
P3    O11   1.761486 S    
C65   H56   1.068100 S    
C50   N1    1.434952 S    
C6    H8    1.108244 S    
C9    H13   1.104864 S    
N4    O31   1.299301 A    
C45   O49   1.375572 S    
P4    O15   1.784124 S    
C39   H29   1.082318 S    
C14   N8    1.457394 S    
O19   C13   1.406478 S    
C47   C52   1.388499 A    
C21   C22   1.387507 A    
C60   H41   1.106039 S    
C68   H64   1.106303 S    
N9    O44   1.298980 A    
C56   C57   1.397768 A    
C45   C46   1.406409 A    
O16   P7    1.749742 S    
C50   C51   1.417516 A    
O2    Ba2   2.828307 S    
C12   H17   1.111262 S    
C65   H55   1.115570 S    
P1    O1    1.555202 D    
H24   C16   1.113110 S    
C18   C34   1.418867 A    
O29   C61   1.413677 S    
C64   H51   1.114873 S    
C39   C40   1.402739 A    
C26   C37   1.404992 A    
C53   C54   1.396674 A    
C34   N10   1.425205 S    
Ba1   O16   2.786324 S    
O5    C6    1.405854 S    
O40   C62   1.404257 S    
C12   H18   1.106519 S    
C66   H58   1.112281 S    
C49   O51   1.382971 S    
C28   H27   1.082016 S    
P2    O10   1.753865 S    
C19   O42   1.389809 S    
C4    C5    1.548688 S    
Ba2   O21   2.860619 S    
O1    Ba1   2.898495 S    
O50   C66   1.409450 S    
O7    Ba1   2.860402 S    
C4    O55   1.427028 S    
C1    H2    1.107012 S    
P4    Ba2   3.499827 S    
P2    O20   1.556630 S    
P8    O24   1.769890 S    
N5    O33   1.299376 A    
C57   C58   1.408476 A    
C35   H28   1.065609 S    
P7    O21   1.587051 D    
N7    O37   1.300590 A    
O42   C64   1.418599 S    
C3    H5    1.097699 S    
C56   H35   1.082251 S    
C63   H49   1.111549 S    
C12   N6    1.458224 S    
O4    P6    1.545159 D    
O51   C67   1.413773 S    
C1    H15   1.106181 S    
C61   H44   1.109094 S    
C47   C48   1.391726 A    
C55   N2    1.428771 S    
C36   C37   1.401436 A    
O14   P8    1.748036 S    
P5    C57   1.857967 S    
C17   C18   1.413901 A    
N10   O46   1.296779 A    
Ba2   O20   2.785556 S    
C11   C12   1.549305 S    
P7    O22   1.759658 S    
C47   H34   1.078479 S    
N12   O52   1.300604 A    
P2    Ba1   3.482712 S    
C6    O27   1.428880 S    
C40   C41   1.406130 A    
N9    O43   1.299097 A    
P4    O12   1.555494 D    
C25   C26   1.439290 A    
O6    P6    1.750662 S    
C20   H26   1.077999 S    
C61   H43   1.104777 S    
C16   H25   1.110474 S    
C32   C42   1.419878 A    
C32   C33   1.434681 A    
C19   C20   1.397757 A    
O11   C2    1.409880 S    
P6    C44   1.877071 S    
C14   H22   1.108301 S    
C40   H30   1.083501 S    
N10   O45   1.299338 A    
C23   C24   1.426477 A    
C7    O29   1.429494 S    
P1    O5    1.776532 S    
P4    C29   1.938101 S    
C65   H54   1.090515 S    
P1    O2    1.584871 S    
C9    H12   1.100948 S    
C8    H11   1.109752 S    
C17   C22   1.426211 A    
C15   O24   1.409942 S    
N3    O26   1.299986 A    
C8    C9    1.533918 S    
C59   H37   1.084255 S    
C1    H3    1.109716 S    
C33   C46   1.446609 A    
O8    Ba1   2.775537 S    
C69   H66   1.109638 S    
Ba1   O13   2.827845 S    
N5    O32   1.298893 A    
C66   H59   1.106574 S    
C35   C36   1.410411 A    
C23   N9    1.422492 S    
C67   H62   1.107507 S    
C10   H14   1.111162 S    
N6    O34   1.297001 A    
C15   C16   1.556480 S    
C42   C44   1.420035 A    
C64   H52   1.110900 S    
C53   H32   1.082456 S    
C5    H6    1.091411 S    
C41   C43   1.409505 A    
P5    O17   1.771898 S    
C64   H53   1.091395 S    
N1    N2    1.250347 D    
C67   H60   1.116545 S    
P1    C46   1.922617 S    
C21   C23   1.405974 A    
O41   C63   1.411814 S    
C69   H67   1.106740 S    
P2    O7    1.555509 D    
C37   C38   1.429165 A    
P3    O8    1.775596 S    
O27   C59   1.418788 S    
C63   H50   1.107662 S    
C20   C21   1.391589 A    
C24   C25   1.431409 A    
C25   C30   1.431946 A    
C13   N7    1.447338 S    
H1    C10   1.108352 S    
C31   C38   1.412493 A    
C36   C39   1.406751 A    
C48   C49   1.411181 A    
O17   Ba2   2.776322 S    
O13   Ba2   3.016466 S    
O54   C68   1.418223 S    
C11   H16   1.097201 S    
C62   H45   1.109121 S    
P7    C54   1.827444 S    
C2    C3    1.541634 S    
C27   C28   1.418145 A    
N6    O35   1.300187 A    
C3    N12   1.458235 S    
C62   H47   1.106605 S    
C1    C10   1.526382 S    
C15   O40   1.409674 S    
O6    C10   1.410396 S    
C5    H7    1.103909 S    
C61   H42   1.104486 S    
C2    N11   1.455517 S    
C43   H31   1.080907 S    
P3    C52   1.859554 S    
C60   H39   1.109907 S    
Ba1   O20   3.022045 S    
C11   N5    1.453720 S    
C11   O22   1.405564 S    
C54   C56   1.396484 A    
C44   C45   1.414800 A    
C59   H36   1.098499 S    
O3    P6    1.742267 S    
C8    H10   1.104390 S    
C24   C27   1.436474 A    
C30   C35   1.412690 A    
C62   H46   1.098022 S    
N3    O25   1.301544 A    
C6    C7    1.579947 S    
C14   H21   1.107404 S    
N8    O38   1.300554 A    
P4    O13   1.584872 S    
C4    O54   1.423941 S    
C60   H40   1.102269 S    
C68   H65   1.101860 S    
C31   C32   1.428621 A    
C7    H9    1.103253 S    
P8    O23   1.527705 D    
O2    Ba1   3.015537 S    
C33   C34   1.419557 A    
O14   Ba2   2.795106 S    
N11   O48   1.296657 A    
C51   C52   1.408669 A    
P2    C48   1.853002 S    
C55   C58   1.409479 A    
C9    N4    1.457189 S    
O55   C69   1.411812 S    
C51   O50   1.380878 S    
C15   H23   1.108050 S    
P5    O18   1.540104 D    
C53   C55   1.413664 A    
C68   H63   1.107801 S    
O28   C60   1.415212 S    
C13   H20   1.105152 S    
C5    N3    1.469150 S    
O49   C65   1.408786 S    
C38   C41   1.405711 A    
C29   C30   1.447508 A    
C66   H57   1.111489 S    
P3    O9    1.537024 D    
C17   C31   1.400971 A    
C42   C43   1.417896 A    
P1    Ba1   3.499109 S    
O10   C8    1.400382 S    
C67   H61   1.109014 S    
C3    H19   1.112200 S    
C69   H68   1.106314 S    
P5    O19   1.762246 S    
N4    O30   1.301256 A    
C22   C26   1.403073 A    
O16   Ba2   3.021145 S    
N8    O39   1.301013 A    
O12   Ba2   2.899081 S    
