data_mof_unit_26860.cif
_audit_creation_date              2012-12-10T18:03:34-0500
_audit_creation_method            fapswitch 2.2
_symmetry_space_group_name_H-M    P1
_symmetry_Int_Tables_number       1
_space_group_crystal_system       triclinic
_cell_length_a                    10.849365
_cell_length_b                    9.721791
_cell_length_c                    19.416903
_cell_angle_alpha                 93.71253
_cell_angle_beta                  94.406185
_cell_angle_gamma                 90.669572
_cell_volume                      2037.37916163

loop_
_atom_site_label
_atom_site_type_symbol
_atom_type_description
_atom_site_fract_x
_atom_site_fract_y
_atom_site_fract_z
_atom_type_partial_charge
C1    C     C_R   0.871585 0.503868 0.499348 -0.283002
C2    C     C_R   0.129095 0.496197 0.502865 -0.289488
C3    C     C_R   0.604960 0.512500 0.968891 -0.196358
C4    C     C_R   0.382526 0.481613 0.030860 -0.179800
C5    C     C_R   0.606256 0.508102 0.040435 -0.179633
C6    C     C_R   0.381203 0.486552 0.959309 -0.190046
C7    C     C_R   0.495066 0.492492 0.071428 0.092311
C8    C     C_R   0.492430 0.502159 0.928321 0.115364
C9    C     C_R   0.262931 0.498879 0.500372 0.858865
C10   C     C_R   0.737319 0.501305 0.500413 0.915967
C11   C     C_R   0.500086 0.496760 0.367820 0.806754
C12   C     C_R   0.499063 0.503099 0.632243 0.767860
C13   C     C_R   0.057233 0.395283 0.461907 0.278939
C14   C     C_R   0.944446 0.603697 0.540569 0.309444
C15   C     C_R   0.927367 0.403366 0.457637 0.261503
C16   C     C_R   0.072199 0.596361 0.544946 0.326540
C17   C     C_R   0.512859 0.382468 0.741492 -0.210886
C18   C     C_R   0.467903 0.611997 0.257713 -0.215463
C19   C     C_R   0.531009 0.374312 0.253039 -0.212749
C20   C     C_R   0.474466 0.627082 0.747926 -0.227435
C21   C     C_R   0.509233 0.379296 0.813064 0.150267
C22   C     C_R   0.467195 0.613928 0.185868 0.160109
C23   C     C_R   0.527984 0.371273 0.180758 0.155216
C24   C     C_R   0.473945 0.628136 0.820037 0.160914
C25   C     C_R   0.491781 0.503392 0.852871 0.024617
C26   C     C_R   0.496214 0.492178 0.146888 0.011181
C27   C     C_R   0.443576 0.063849 0.445660 0.240709
C28   C     C_R   0.556976 0.936203 0.554171 0.214888
C29   C     C_R   0.571578 0.081188 0.548733 0.189852
C30   C     C_R   0.428738 0.918920 0.451160 0.194103
C31   C     C_R   0.496624 0.505853 0.708298 -0.086827
C32   C     C_R   0.498915 0.492863 0.291781 -0.096277
Cu1   Cu    Cu3+1 0.500000 0.640660 0.500000 0.925807
Cu2   Cu    Cu3+1 0.500000 0.359340 0.500000 0.959950
H1    H     H_    0.527054 0.286638 0.711659 0.154122
H2    H     H_    0.444955 0.705463 0.287112 0.152509
H3    H     H_    0.559557 0.283647 0.278631 0.160607
H4    H     H_    0.456277 0.721374 0.723290 0.154630
H5    H     H_    0.691230 0.523652 0.945027 0.131782
H6    H     H_    0.296327 0.469865 0.054709 0.134271
H7    H     H_    0.693369 0.517598 0.071703 0.135513
H8    H     H_    0.294025 0.478204 0.928055 0.131348
N1    N     N_R   0.500000 0.852070 0.500000 -0.214651
N2    N     N_R   0.500000 0.147930 0.500000 -0.212805
O1    O     O_R   0.319640 0.618740 0.500000 -0.595443
O2    O     O_R   0.680360 0.381260 0.500000 -0.547619
O3    O     O_R   0.680360 0.618740 0.500000 -0.594065
O4    O     O_R   0.319640 0.381260 0.500000 -0.524213
O5    O     O_R   0.500020 0.618830 0.400190 -0.606596
O6    O     O_R   0.499980 0.381170 0.599810 -0.608583
O7    O     O_R   0.499980 0.618830 0.599810 -0.590959
O8    O     O_R   0.500020 0.381170 0.400190 -0.579031
C33   C     C_3   0.446214 0.103435 0.371638 -0.377827
C34   C     C_3   0.327864 0.170248 0.342872 -0.727530
H9    H     H_    0.247201 0.099278 0.342266 0.238648
H10   H     H_    0.308283 0.265542 0.373576 0.315435
H11   H     H_    0.337977 0.196174 0.288765 0.211358
H12   H     H_    0.531743 0.162338 0.366863 0.222434
H13   H     H_    0.462660 0.012102 0.336218 0.146063
C35   C     C_3   0.555257 0.896459 0.628129 -0.376943
C36   C     C_3   0.673953 0.829363 0.656200 -0.730428
H14   H     H_    0.665874 0.805065 0.710657 0.219342
H15   H     H_    0.691875 0.732963 0.625986 0.302767
H16   H     H_    0.754831 0.899550 0.655508 0.250001
H17   H     H_    0.539337 0.987603 0.663780 0.149558
H18   H     H_    0.469602 0.837875 0.632997 0.220749
C37   C     C_3   0.682354 0.152175 0.590325 -0.365373
C38   C     C_3   0.801735 0.117614 0.556451 -0.796514
H19   H     H_    0.793595 0.142223 0.501334 0.295080
H20   H     H_    0.880244 0.178276 0.583803 0.240281
H21   H     H_    0.822060 0.006608 0.558769 0.242473
H22   H     H_    0.676536 0.263828 0.596723 0.249779
H23   H     H_    0.692256 0.122856 0.644512 0.167280
C39   C     C_3   0.317883 0.848431 0.409524 -0.366422
C40   C     C_3   0.198513 0.885439 0.442875 -0.802715
H24   H     H_    0.182036 0.997714 0.442429 0.252792
H25   H     H_    0.204146 0.856840 0.497381 0.300843
H26   H     H_    0.118927 0.829303 0.413961 0.229394
H27   H     H_    0.309001 0.877015 0.355205 0.163387
H28   H     H_    0.322733 0.736608 0.403626 0.252835
O9    O     O_3   0.115589 0.290221 0.426890 -0.753421
H29   H     H_    0.060871 0.207328 0.421973 0.326611
O10   O     O_3   0.893047 0.707323 0.579476 -0.702319
H30   H     H_    0.848934 0.765363 0.545821 0.327941
O11   O     O_3   0.853007 0.319455 0.410973 -0.741516
H31   H     H_    0.899811 0.292445 0.370541 0.327406
O12   O     O_3   0.137876 0.688102 0.591813 -0.683618
H32   H     H_    0.216713 0.645780 0.607719 0.316539
C41   C     C_3   0.517977 0.240867 0.844613 -0.415412
C42   C     C_3   0.390723 0.170947 0.840574 -0.822384
H33   H     H_    0.323399 0.239310 0.865436 0.252353
H34   H     H_    0.357072 0.145316 0.785703 0.252141
H35   H     H_    0.396198 0.074596 0.868050 0.242248
H36   H     H_    0.582124 0.173099 0.816587 0.194262
H37   H     H_    0.556335 0.251148 0.899370 0.212770
C43   C     C_3   0.438153 0.748802 0.153311 -0.410835
C44   C     C_3   0.301031 0.781538 0.154278 -0.845536
H38   H     H_    0.244133 0.697835 0.125415 0.252611
H39   H     H_    0.273842 0.793668 0.208307 0.245267
H40   H     H_    0.282368 0.879468 0.129240 0.240554
H41   H     H_    0.493511 0.833677 0.182409 0.194678
H42   H     H_    0.463958 0.748005 0.099109 0.217613
C45   C     C_3   0.557139 0.236759 0.141830 -0.413979
C46   C     C_3   0.695344 0.208036 0.149288 -0.834027
H43   H     H_    0.748358 0.292529 0.128657 0.250890
H44   H     H_    0.727295 0.198332 0.204463 0.251359
H45   H     H_    0.713973 0.109938 0.119642 0.238921
H46   H     H_    0.505613 0.150872 0.162457 0.195075
H47   H     H_    0.526794 0.236219 0.085925 0.214553
C47   C     C_3   0.455214 0.763928 0.860340 -0.409996
C48   C     C_3   0.578498 0.839554 0.879079 -0.834026
H48   H     H_    0.644007 0.773356 0.908038 0.254512
H49   H     H_    0.619687 0.869400 0.831504 0.248781
H50   H     H_    0.563978 0.934312 0.912296 0.240785
H51   H     H_    0.393269 0.830187 0.828987 0.198507
H52   H     H_    0.408746 0.748527 0.908274 0.209929

loop_
_geom_bond_atom_site_label_1
_geom_bond_atom_site_label_2
_ccdc_geom_bond_type
O12   H32   S    
C9    O1    A    
C43   H42   S    
Cu1   O1    S    
C48   H48   S    
C44   H40   S    
C46   H44   S    
O9    H29   S    
C33   H13   S    
C21   C41   S    
O11   H31   S    
C7    C26   S    
C28   C29   A    
C30   C39   S    
Cu1   O5    S    
C13   O9    S    
C37   H22   S    
C23   C26   A    
C41   H36   S    
C36   H15   S    
C2    C13   A    
C47   C48   S    
C5    H7    S    
C11   O8    A    
C19   H3    S    
C29   C37   S    
C27   N2    A    
C23   C45   S    
C20   C24   A    
C38   H19   S    
C10   O2    A    
C16   O12   S    
C45   H46   S    
C1    C15   A    
C2    C16   A    
C15   O11   S    
C3    H5    S    
C39   H28   S    
Cu2   O2    S    
C27   C30   A    
C8    C25   S    
C14   O10   S    
C4    C7    A    
C19   C32   A    
C46   H43   S    
C44   H39   S    
C44   H38   S    
C28   C35   S    
C34   H10   S    
Cu2   O6    S    
C39   C40   S    
C37   C38   S    
Cu1   N1    S    
C4    H6    S    
Cu2   N2    S    
C24   C25   A    
C4    C6    A    
C3    C8    A    
C5    C7    A    
C6    C8    A    
C33   C34   S    
C17   C21   A    
C35   C36   S    
C41   H37   S    
C36   H16   S    
C19   C23   A    
C40   H24   S    
C11   O5    A    
C20   H4    S    
C42   H34   S    
O10   H30   S    
C43   C44   S    
Cu1   Cu2   S    
C24   C47   S    
C48   H49   S    
C40   H25   S    
C37   H23   S    
C35   H17   S    
C39   H27   S    
C13   C15   A    
C29   N2    A    
C22   C26   A    
C17   C31   A    
C14   C16   A    
C30   N1    A    
Cu2   O4    S    
C47   H52   S    
C10   O3    A    
C12   O7    A    
C42   H35   S    
C21   C25   A    
C34   H9    S    
C18   C22   A    
C22   C43   S    
C1    C10   S    
C3    C5    A    
C11   C32   S    
C12   O6    A    
C33   H12   S    
C27   C33   S    
Cu1   O7    S    
C28   N1    A    
Cu2   O8    S    
C45   H47   S    
C12   C31   S    
C42   H33   S    
C38   H21   S    
Cu1   O3    S    
C48   H50   S    
C36   H14   S    
C40   H26   S    
C35   H18   S    
C18   C32   A    
C9    O4    A    
C38   H20   S    
C6    H8    S    
C45   C46   S    
C1    C14   A    
C17   H1    S    
C41   C42   S    
C43   H41   S    
C2    C9    S    
C18   H2    S    
C47   H51   S    
C20   C31   A    
C46   H45   S    
C34   H11   S    
