data_mof_unit_40315.cif
_audit_creation_date              2012-12-10T17:51:28-0500
_audit_creation_method            fapswitch 2.2
_symmetry_space_group_name_H-M    P1
_symmetry_Int_Tables_number       1
_space_group_crystal_system       triclinic
_cell_length_a                    14.705041
_cell_length_b                    14.531068
_cell_length_c                    17.156375
_cell_angle_alpha                 106.576381
_cell_angle_beta                  73.07326
_cell_angle_gamma                 114.574473
_cell_volume                      3132.15575517

loop_
_atom_site_label
_atom_site_type_symbol
_atom_type_description
_atom_site_fract_x
_atom_site_fract_y
_atom_site_fract_z
_atom_type_partial_charge
C1    C     C_R   0.118161 0.689261 0.513576 0.839608
C2    C     C_R   0.709517 0.176896 0.484892 -0.329357
C3    C     C_R   0.356531 0.926485 0.512259 0.036855
C4    C     C_R   0.638465 0.076294 0.487027 0.034642
C5    C     C_R   0.317028 0.006646 0.539744 -0.010877
C6    C     C_R   0.675934 0.995570 0.470185 -0.023759
C7    C     C_R   0.463046 0.949922 0.501276 0.112815
C8    C     C_R   0.531093 0.054103 0.506560 0.120217
C9    C     C_R   0.489157 0.132349 0.534671 -0.255950
C10   C     C_R   0.502866 0.872802 0.490353 -0.230901
C11   C     C_R   0.384545 0.108782 0.552928 -0.199507
C12   C     C_R   0.881552 0.310556 0.483642 0.854654
C13   C     C_R   0.606779 0.895706 0.476678 -0.168876
C14   C     C_R   0.304378 0.339770 0.351588 -0.295119
C15   C     C_R   0.699761 0.666114 0.645159 -0.300917
C16   C     C_R   0.990590 0.505687 0.653269 0.847315
C17   C     C_R   0.011408 0.497654 0.346922 0.786867
C18   C     C_R   0.220718 0.370041 0.374626 0.083579
C19   C     C_R   0.785583 0.638982 0.619860 0.037169
C20   C     C_R   0.281589 0.484743 0.493179 0.016149
C21   C     C_R   0.714628 0.509661 0.510909 0.027045
C22   C     C_R   0.372005 0.461264 0.470819 -0.062960
C23   C     C_R   0.183119 0.799727 0.520566 -0.221333
C24   C     C_R   0.624426 0.533429 0.533432 -0.059357
C25   C     C_R   0.379705 0.383427 0.400064 0.066788
C26   C     C_R   0.618553 0.613868 0.602483 0.062274
C27   C     C_R   0.454015 0.511518 0.515687 0.009414
C28   C     C_R   0.540935 0.481014 0.490137 0.013607
C29   C     C_R   0.541699 0.399225 0.422050 -0.326774
C30   C     C_R   0.452878 0.592752 0.584125 -0.319228
C31   C     C_R   0.461695 0.349346 0.378575 0.445079
C32   C     C_R   0.531815 0.641174 0.628463 0.436184
C33   C     C_R   0.993398 0.523595 0.740847 -0.112766
C34   C     C_R   0.814449 0.200136 0.472379 -0.229857
C35   C     C_R   0.019642 0.498975 0.260195 -0.133639
C36   C     C_R   0.088605 0.565027 0.764095 -0.258336
C37   C     C_R   0.932162 0.484117 0.233559 -0.266044
C38   C     C_R   0.094311 0.588265 0.847216 -0.121963
C39   C     C_R   0.937881 0.485137 0.151644 -0.127619
C40   C     C_R   0.004798 0.568419 0.907788 0.026895
C41   C     C_R   0.031384 0.502379 0.095561 0.025356
C42   C     C_R   0.909613 0.528311 0.885360 -0.280517
C43   C     C_R   0.118779 0.515929 0.121118 -0.264623
C44   C     C_R   0.903009 0.507556 0.801892 0.435950
C45   C     C_R   0.210284 0.983191 0.556720 0.367060
C46   C     C_R   0.114146 0.516045 0.203559 0.428485
C47   C     C_2   0.009108 0.575591 0.994130 0.316201
C48   C     C_2   0.038092 0.506562 0.009208 0.330307
C49   C     C_3   0.464654 0.185542 0.339300 0.063988
C50   C     C_3   0.418343 0.085517 0.281358 -0.806686
C51   C     C_3   0.460621 0.678454 0.764424 0.056473
C52   C     C_3   0.458608 0.765032 0.839010 -0.781031
C53   C     C_3   0.253256 0.635290 0.253725 0.087682
C54   C     C_3   0.344824 0.649822 0.286640 -0.763743
C55   C     C_3   0.755803 0.528192 0.805836 0.082223
C56   C     C_R   0.782202 0.016305 0.448869 0.358833
C57   C     C_3   0.658964 0.479678 0.770509 -0.748124
C58   C     C_3   0.040176 0.343019 0.952013 0.056692
C59   C     C_3   0.068659 0.276893 0.869562 -0.735596
C60   C     C_3   0.986821 0.732661 0.040686 0.084725
C61   C     C_3   0.961127 0.805257 0.119870 -0.812372
C62   C     C_3   0.992500 0.132557 0.348397 0.118260
C63   C     C_3   0.082904 0.097568 0.323805 -0.834816
C64   C     C_3   0.983631 0.853660 0.535095 0.089632
C65   C     C_3   0.906546 0.904387 0.583696 -0.681937
C66   C     C_3   0.174323 0.106627 0.526022 0.013863
C67   C     C_R   0.143232 0.879491 0.551614 0.367714
C68   C     C_3   0.166162 0.211935 0.563457 -0.707944
C69   C     C_3   0.812651 0.876336 0.357229 0.026692
C70   C     C_3   0.813319 0.772290 0.358595 -0.795125
C71   C     C_R   0.851188 0.118708 0.450940 0.373362
C72   C     C_R   0.288352 0.824744 0.497134 -0.351822
Cu1   Cu    Cu3+1 0.916740 0.524770 0.521640 0.937859
Cu2   Cu    Cu3+1 0.083260 0.475230 0.478360 0.950199
H1    H     H_    0.847799 0.679421 0.652958 0.152412
H2    H     H_    0.316157 0.762809 0.467686 0.185292
H3    H     H_    0.158737 0.580201 0.717920 0.153724
H4    H     H_    0.859002 0.470598 0.275895 0.168074
H5    H     H_    0.534577 0.213208 0.546950 0.146107
H6    H     H_    0.455221 0.794061 0.495578 0.149521
H7    H     H_    0.418783 0.177990 0.403108 0.135140
H8    H     H_    0.544164 0.195356 0.338035 0.151865
H9    H     H_    0.463348 0.088293 0.217100 0.255225
H10   H     H_    0.418531 0.019797 0.302049 0.200646
H11   H     H_    0.338408 0.073551 0.282122 0.239792
H12   H     H_    0.165313 0.339000 0.335451 0.138517
H13   H     H_    0.487660 0.625615 0.779596 0.136598
H14   H     H_    0.381284 0.635734 0.753405 0.142685
H15   H     H_    0.430759 0.818499 0.826219 0.253967
H16   H     H_    0.406745 0.732476 0.894083 0.195017
H17   H     H_    0.536465 0.808414 0.852597 0.246207
H18   H     H_    0.726143 0.450374 0.459242 0.119704
H19   H     H_    0.267244 0.539516 0.547841 0.124922
H20   H     H_    0.203131 0.670018 0.304638 0.122399
H21   H     H_    0.281098 0.676761 0.200947 0.130580
H22   H     H_    0.386379 0.733197 0.307512 0.187857
H23   H     H_    0.309982 0.282767 0.295562 0.190865
H24   H     H_    0.319179 0.609979 0.339959 0.262116
H25   H     H_    0.397430 0.617476 0.237105 0.244863
H26   H     H_    0.802871 0.602395 0.783884 0.131058
H27   H     H_    0.733441 0.543828 0.874679 0.129373
H28   H     H_    0.607863 0.408230 0.794885 0.244766
H29   H     H_    0.618365 0.534480 0.788592 0.183414
H30   H     H_    0.678092 0.460081 0.701760 0.263710
H31   H     H_    0.955249 0.315541 0.969651 0.138323
H32   H     H_    0.071238 0.332555 0.999388 0.156211
H33   H     H_    0.152947 0.301038 0.850595 0.248313
H34   H     H_    0.697299 0.727746 0.698138 0.181920
H35   H     H_    0.036017 0.194681 0.875615 0.199888
H36   H     H_    0.038108 0.285313 0.820952 0.254107
H37   H     H_    0.938024 0.721977 0.997561 0.146428
H38   H     H_    0.068754 0.769249 0.012433 0.137090
H39   H     H_    0.008162 0.817197 0.164711 0.250727
H40   H     H_    0.976847 0.880884 0.105436 0.194802
H41   H     H_    0.879158 0.772237 0.148547 0.243678
H42   H     H_    0.840674 0.509066 0.932399 0.150951
H43   H     H_    0.190923 0.528261 0.077456 0.163843
H44   H     H_    0.869365 0.472414 0.131817 0.161081
H45   H     H_    0.604037 0.371954 0.400119 0.131370
H46   H     H_    0.168188 0.618543 0.864319 0.144916
H47   H     H_    0.017100 0.209559 0.333265 0.136622
H48   H     H_    0.935658 0.078938 0.309316 0.088060
H49   H     H_    0.057071 0.017199 0.332902 0.245063
H50   H     H_    0.118753 0.100940 0.257580 0.199581
H51   H     H_    0.140338 0.147798 0.362707 0.246533
H52   H     H_    0.940496 0.772015 0.510863 0.173458
H53   H     H_    0.029214 0.889881 0.480053 0.096846
H54   H     H_    0.944874 0.989496 0.595563 0.258294
H55   H     H_    0.845974 0.882131 0.548514 0.250484
H56   H     H_    0.391712 0.621862 0.605021 0.145096
H57   H     H_    0.869868 0.878460 0.644039 0.231138
H58   H     H_    0.109200 0.058972 0.494453 0.177164
H59   H     H_    0.245905 0.117303 0.478171 0.118151
H60   H     H_    0.232270 0.263518 0.593275 0.223842
H61   H     H_    0.165572 0.247013 0.514066 0.224199
H62   H     H_    0.094475 0.204127 0.610545 0.256924
H63   H     H_    0.879546 0.911432 0.310551 0.160922
H64   H     H_    0.742349 0.862912 0.336428 0.129167
H65   H     H_    0.747874 0.734307 0.405268 0.244549
H66   H     H_    0.807469 0.721762 0.296600 0.217237
H67   H     H_    0.357127 0.171989 0.577048 0.182237
H68   H     H_    0.885408 0.782771 0.374599 0.239859
H69   H     H_    0.632421 0.833694 0.470548 0.185598
H70   H     H_    0.684743 0.239502 0.492907 0.177682
N1    N     N_R   0.208390 0.438070 0.445820 -0.180508
N2    N     N_R   0.791610 0.561930 0.554180 -0.182227
O1    O     O_R   0.020090 0.662480 0.528530 -0.570598
O2    O     O_3   0.526672 0.720916 0.694854 -0.577570
O3    O     O_3   0.201484 0.529002 0.227333 -0.570591
O4    O     O_3   0.808917 0.459489 0.778692 -0.567849
O5    O     O_3   0.082646 0.447141 0.943039 -0.599758
O6    O     O_3   0.967427 0.637458 0.060479 -0.603900
O7    O     O_3   0.954420 0.137843 0.434765 -0.545351
O8    O     O_3   0.041662 0.857832 0.589755 -0.559257
O9    O     O_3   0.170548 0.060758 0.590133 -0.554384
O10   O     O_3   0.820266 0.939427 0.436778 -0.574773
O11   O     O_R   0.979910 0.337520 0.471470 -0.550343
O12   O     O_R   0.160710 0.620650 0.491980 -0.596257
O13   O     O_R   0.839290 0.379350 0.508020 -0.588663
O14   O     O_R   0.921540 0.523360 0.633990 -0.554251
O15   O     O_R   0.078460 0.476640 0.366010 -0.549434
O16   O     O_R   0.062170 0.481520 0.597440 -0.592629
O17   O     O_R   0.937830 0.518480 0.402560 -0.603274
O18   O     O_3   0.464879 0.268852 0.312001 -0.586387

loop_
_geom_bond_atom_site_label_1
_geom_bond_atom_site_label_2
_ccdc_geom_bond_type
C25   C31   A    
C40   C47   S    
C66   C68   S    
C20   H19   S    
C26   C32   A    
C16   O14   A    
C2    H70   S    
Cu1   Cu2   S    
C14   C18   A    
Cu2   N1    S    
C52   H16   S    
C68   H60   S    
C56   O10   S    
C18   N1    A    
C59   H36   S    
C63   H50   S    
C50   H10   S    
C7    C8    A    
C39   C41   A    
C53   C54   S    
C70   H66   S    
C57   H28   S    
C29   H45   S    
Cu1   O14   S    
C18   H12   S    
Cu1   O1    S    
C67   O8    S    
C1    O12   A    
C35   C37   A    
C24   C26   A    
C5    C11   A    
C3    C7    A    
C36   H3    S    
C60   O6    S    
C66   O9    S    
C49   H8    S    
C53   H21   S    
C23   C67   A    
C71   O7    S    
C64   O8    S    
C33   C36   A    
C61   H40   S    
C9    H5    S    
C7    C10   A    
C49   H7    S    
C49   O18   S    
C17   O17   A    
C50   H11   S    
C8    C9    A    
C22   C25   A    
C55   H26   S    
C45   C67   A    
C45   O9    S    
C12   O11   A    
C30   C32   A    
C54   H22   S    
C4    C8    A    
C38   H46   S    
C2    C34   A    
C40   C42   A    
C70   H65   S    
C14   C25   A    
C27   C30   A    
C53   O3    S    
C41   C43   A    
C52   H15   S    
C42   C44   A    
C65   H57   S    
C50   H9    S    
C66   H58   S    
C14   H23   S    
C69   H63   S    
C57   H29   S    
C70   H68   S    
C69   O10   S    
Cu2   O12   S    
C51   C52   S    
C19   N2    A    
C65   H54   S    
C68   H62   S    
C4    C6    A    
C51   H13   S    
Cu2   O16   S    
C10   H6    S    
C15   C26   A    
C16   O16   A    
C58   C59   S    
C30   H56   S    
C5    C45   A    
C44   O4    S    
C60   C61   S    
C58   H32   S    
C15   H34   S    
C15   C19   A    
C61   H41   S    
C62   C63   S    
C60   H38   S    
C16   C33   S    
C66   H59   S    
C11   H67   S    
C63   H49   S    
C47   C48   D    
C29   C31   A    
C56   C71   A    
C72   H2    S    
C9    C11   A    
C63   H51   S    
C17   O15   A    
C43   H43   S    
C42   H42   S    
C20   C22   A    
C1    C23   S    
C64   H52   S    
C22   C27   A    
C55   C57   S    
C61   H39   S    
C54   H25   S    
C1    O1    A    
C12   C34   S    
C62   H48   S    
C58   O5    S    
C55   O4    S    
C69   H64   S    
C57   H30   S    
Cu1   O13   S    
C31   O18   S    
C28   C29   A    
Cu2   O11   S    
C53   H20   S    
C33   C44   A    
C23   C72   A    
C68   H61   S    
C24   C28   A    
C6    C56   A    
C3    C5    A    
C10   C13   A    
C51   H14   S    
Cu2   O15   S    
C65   H55   S    
C32   O2    S    
C39   H44   S    
C37   H4    S    
C55   H27   S    
C62   O7    S    
Cu1   N2    S    
C58   H31   S    
C64   C65   S    
C36   C38   A    
C3    C72   A    
Cu1   O17   S    
C60   H37   S    
C21   N2    A    
C64   H53   S    
C38   C40   A    
C51   O2    S    
C2    C4    A    
C19   H1    S    
C59   H35   S    
C41   C48   S    
C13   H69   S    
C12   O13   A    
C69   C70   S    
C43   C46   A    
C59   H33   S    
C48   O5    S    
C46   O3    S    
C47   O6    S    
C37   C39   A    
C49   C50   S    
C21   C24   A    
C27   C28   A    
C20   N1    A    
C54   H24   S    
C52   H17   S    
C17   C35   S    
C35   C46   A    
C34   C71   A    
C62   H47   S    
C6    C13   A    
C21   H18   S    
