data_mof_unit_24441.cif
_audit_creation_date              2012-12-11T15:18:37-0500
_audit_creation_method            fapswitch 2.2
_symmetry_space_group_name_H-M    P1
_symmetry_Int_Tables_number       1
_space_group_crystal_system       triclinic
_cell_length_a                    6.9395
_cell_length_b                    19.845159
_cell_length_c                    23.769256
_cell_angle_alpha                 93.29685
_cell_angle_beta                  90.457697
_cell_angle_gamma                 90.377735
_cell_volume                      3267.79118253

loop_
_atom_site_label
_atom_site_type_symbol
_atom_type_description
_atom_site_fract_x
_atom_site_fract_y
_atom_site_fract_z
_atom_type_partial_charge
O1    O     O_R   0.620100 0.812200 0.810870 -0.538255
O2    O     O_R   0.379900 0.187800 0.189130 -0.538256
O3    O     O_R   0.296960 0.671650 0.794750 -0.529481
O4    O     O_R   0.703040 0.328350 0.205250 -0.529480
O5    O     O_R   0.120160 0.687800 0.689130 -0.526578
O6    O     O_R   0.879840 0.312200 0.310870 -0.526577
C1    C     C_R   0.464346 0.646801 0.804754 0.759540
C2    C     C_R   0.535654 0.353199 0.195246 0.759541
O7    O     O_R   0.290810 0.810670 0.817290 -0.533850
O8    O     O_R   0.709190 0.189330 0.182710 -0.533854
O9    O     O_R   0.113980 0.827820 0.711840 -0.540711
O10   O     O_R   0.886020 0.172180 0.288160 -0.540713
C3    C     C_R   0.459972 0.832412 0.833852 0.716319
C4    C     C_R   0.540028 0.167588 0.166148 0.716323
O11   O     O_R   0.626290 0.672180 0.788160 -0.533298
O12   O     O_R   0.373710 0.327820 0.211840 -0.533298
O13   O     O_3   0.451520 0.755460 0.715370 -0.376151
O14   O     O_3   0.548480 0.244540 0.284630 -0.376150
V1    V     V_3+5 0.179200 0.748980 0.756420 1.505292
V2    V     V_3+5 0.820800 0.251020 0.243580 1.505285
O15   O     O_R   0.783880 0.828350 0.705250 -0.533938
O16   O     O_R   0.216120 0.171650 0.294750 -0.533936
C5    C     C_R   0.954149 0.853271 0.695243 0.744572
C6    C     C_R   0.045851 0.146728 0.304757 0.744567
O17   O     O_R   0.790030 0.689320 0.682700 -0.550390
O18   O     O_R   0.209970 0.310680 0.317300 -0.550389
C7    C     C_R   0.958197 0.667491 0.666160 0.732740
C8    C     C_R   0.041803 0.332509 0.333840 0.732741
V3    V     V_3+5 0.678400 0.751010 0.743570 1.480751
V4    V     V_3+5 0.321600 0.248990 0.256430 1.480751
O19   O     O_3   0.955950 0.744540 0.784620 -0.366346
O20   O     O_3   0.044050 0.255460 0.215380 -0.366348
C9    C     C_R   0.176047 0.431922 0.392719 -0.144512
C10   C     C_R   0.823953 0.568078 0.607281 -0.144512
C11   C     C_R   0.031807 0.382381 0.382852 -0.073695
C12   C     C_R   0.968193 0.617619 0.617147 -0.073694
C13   C     C_R   0.873238 0.381649 0.419108 -0.169242
C14   C     C_R   0.126762 0.618351 0.580892 -0.169243
C15   C     C_R   0.861115 0.427723 0.465938 0.112151
C16   C     C_R   0.138885 0.572277 0.534061 0.112149
C17   C     C_R   0.006318 0.477043 0.476132 0.093628
C18   C     C_R   0.993682 0.522957 0.523867 0.093627
C19   C     C_R   0.162751 0.480818 0.438334 0.045451
C20   C     C_R   0.837249 0.519182 0.561666 0.045452
C21   C     C_R   0.707729 0.423743 0.503501 -0.220236
C22   C     C_R   0.292271 0.576257 0.496499 -0.220237
C23   C     C_R   0.697524 0.467203 0.552088 -0.031323
C24   C     C_R   0.302477 0.532797 0.447912 -0.031322
H1    H     H_    0.297687 0.432096 0.364502 0.159972
H2    H     H_    0.702313 0.567905 0.635498 0.159972
H3    H     H_    0.761005 0.343826 0.411644 0.116914
H4    H     H_    0.238995 0.656174 0.588356 0.116914
H5    H     H_    0.599799 0.384306 0.496346 0.140253
H6    H     H_    0.400201 0.615694 0.503654 0.140253
C25   C     C_R   0.974802 0.917534 0.666421 -0.109247
C26   C     C_R   0.025198 0.082466 0.333579 -0.109248
C27   C     C_R   0.117149 0.030504 0.663439 -0.068799
C28   C     C_R   0.882843 0.969497 0.336560 -0.068813
C29   C     C_R   0.070576 0.973488 0.694107 -0.083181
C30   C     C_R   0.929422 0.026512 0.305893 -0.083180
C31   C     C_R   0.936099 0.917818 0.608334 -0.226387
C32   C     C_R   0.063901 0.082182 0.391666 -0.226388
C33   C     C_R   0.994188 0.972308 0.575670 0.093549
C34   C     C_R   0.005807 0.027692 0.424330 0.093549
C35   C     C_R   0.079125 0.029875 0.604523 0.055019
C36   C     C_R   0.920866 0.970126 0.395477 0.055022
C37   C     C_R   0.972524 0.971246 0.515184 0.069976
C38   C     C_R   0.027469 0.028754 0.484816 0.069974
C39   C     C_R   0.098399 0.086050 0.516122 -0.184719
C40   C     C_R   0.901583 0.913952 0.483878 -0.184721
C41   C     C_R   0.123818 0.086442 0.574016 -0.144321
C42   C     C_R   0.876165 0.913560 0.425985 -0.144324
H7    H     H_    0.179077 0.132662 0.594636 0.152764
H8    H     H_    0.820900 0.867341 0.405365 0.152775
H9    H     H_    0.132757 0.126890 0.410382 0.102158
H10   H     H_    0.867248 0.873108 0.589618 0.102156
H11   H     H_    0.135445 0.132352 0.497255 0.124716
H12   H     H_    0.864520 0.867652 0.502745 0.124717
C43   C     C_R   0.461885 0.583333 0.834462 -0.105173
C44   C     C_R   0.538115 0.416667 0.165538 -0.105173
C45   C     C_R   0.341450 0.468217 0.839531 -0.055417
C46   C     C_R   0.658551 0.531783 0.160468 -0.055417
C47   C     C_R   0.370365 0.526026 0.808892 0.205698
C48   C     C_R   0.629636 0.473974 0.191107 0.205698
C49   C     C_R   0.518928 0.583638 0.891211 -0.258369
C50   C     C_R   0.481071 0.416362 0.108789 -0.258368
C51   C     C_R   0.481826 0.527652 0.924550 0.090961
C52   C     C_R   0.518174 0.472348 0.075450 0.090961
C53   C     C_R   0.392522 0.469480 0.897648 0.023497
C54   C     C_R   0.607479 0.530520 0.102352 0.023497
C55   C     C_R   0.524510 0.528421 0.984063 0.075863
C56   C     C_R   0.475490 0.471579 0.015937 0.075863
C57   C     C_R   0.386121 0.415622 0.987158 -0.183979
C58   C     C_R   0.613879 0.584378 0.012842 -0.183979
C59   C     C_R   0.346906 0.414572 0.929865 -0.140606
C60   C     C_R   0.653095 0.585428 0.070135 -0.140606
H13   H     H_    0.274713 0.370069 0.911376 0.153391
H14   H     H_    0.725288 0.629931 0.088624 0.153392
H15   H     H_    0.418366 0.369914 0.091373 0.108967
H16   H     H_    0.581633 0.630087 0.908627 0.108967
H17   H     H_    0.341544 0.371301 0.007736 0.126010
H18   H     H_    0.658456 0.628698 0.992264 0.126011
C61   C     C_R   0.387611 0.066428 0.115030 -0.184323
C62   C     C_R   0.612368 0.933579 0.884965 -0.184337
C63   C     C_R   0.529441 0.117428 0.117400 -0.100979
C64   C     C_R   0.470556 0.882573 0.882599 -0.100971
C65   C     C_R   0.662723 0.119756 0.073502 -0.171645
C66   C     C_R   0.337283 0.880242 0.926499 -0.171634
C67   C     C_R   0.649981 0.073778 0.026438 0.098602
C68   C     C_R   0.350013 0.926224 0.973561 0.098613
C69   C     C_R   0.506721 0.022845 0.023953 0.067283
C70   C     C_R   0.493265 0.977160 0.976043 0.067291
C71   C     C_R   0.378089 0.017371 0.069502 0.033317
C72   C     C_R   0.621894 0.982635 0.930494 0.033323
C73   C     C_R   0.775075 0.079580 0.981046 -0.219197
C74   C     C_R   0.224921 0.920421 0.018952 -0.219190
C75   C     C_R   0.758520 0.036231 0.932432 -0.035053
C76   C     C_R   0.241470 0.963772 0.067566 -0.035071
H19   H     H_    0.285835 0.065313 0.149130 0.191962
H20   H     H_    0.714126 0.934699 0.850861 0.191955
H21   H     H_    0.772734 0.158902 0.075141 0.121091
H22   H     H_    0.227284 0.841092 0.924862 0.121085
H23   H     H_    0.880467 0.120280 0.982363 0.149550
H24   H     H_    0.119541 0.879718 0.017638 0.149558
Br1   Br    Br    0.718576 0.472099 0.268417 -0.498920
Br2   Br    Br    0.281426 0.527900 0.731583 -0.498919
C77   C     C_2   0.254347 0.407033 0.810569 0.827471
O21   O     O_2   0.092283 0.409239 0.790208 -0.506177
O22   O     O_R   0.358053 0.346809 0.807022 -0.649053
H25   H     H_    0.283829 0.308562 0.786482 0.320693
C78   C     C_2   0.745654 0.592967 0.189431 0.827470
O23   O     O_2   0.907719 0.590761 0.209791 -0.506178
O24   O     O_R   0.641949 0.653191 0.192977 -0.649053
H26   H     H_    0.716173 0.691437 0.213518 0.320692
C79   C     C_2   0.872540 0.052841 0.882728 0.819323
O25   O     O_2   0.043220 0.067805 0.888090 -0.542885
O26   O     O_R   0.780948 0.055475 0.830300 -0.637388
H27   H     H_    0.869752 0.071558 0.800189 0.341612
C80   C     C_2   0.127475 0.947156 0.117273 0.819332
O27   O     O_2   0.956810 0.932171 0.111915 -0.542876
O28   O     O_R   0.219080 0.944538 0.169701 -0.637390
H28   H     H_    0.130302 0.928441 0.199812 0.341612
C81   C     C_2   0.551960 0.451573 0.594558 0.797835
O29   O     O_2   0.385162 0.439463 0.580132 -0.546517
O30   O     O_R   0.609771 0.445340 0.650455 -0.628087
H29   H     H_    0.504592 0.425773 0.674042 0.345410
C82   C     C_2   0.448042 0.548426 0.405442 0.797833
O31   O     O_2   0.614841 0.560535 0.419868 -0.546518
O32   O     O_R   0.390233 0.554661 0.349545 -0.628087
H30   H     H_    0.495414 0.574227 0.325958 0.345409
C83   C     C_2   0.869137 0.029076 0.245459 0.769318
O33   O     O_2   0.973115 0.056112 0.211991 -0.570011
O34   O     O_R   0.691752 0.001720 0.227074 -0.634773
H31   H     H_    0.669937 0.005280 0.185157 0.330489
C84   C     C_2   0.130864 0.970925 0.754541 0.769287
O35   O     O_2   0.026892 0.943885 0.788009 -0.570006
O36   O     O_R   0.308244 0.998284 0.772925 -0.634776
H32   H     H_    0.330062 0.994723 0.814843 0.330493
C85   C     C_2   0.209933 0.090409 0.693041 0.819622
O37   O     O_2   0.125442 0.121543 0.731132 -0.543734
O38   O     O_R   0.394947 0.110329 0.677699 -0.647228
H33   H     H_    0.443243 0.151444 0.701067 0.320457
C86   C     C_2   0.790054 0.909592 0.306959 0.819624
O39   O     O_2   0.874527 0.878465 0.268860 -0.543724
O40   O     O_R   0.605053 0.889666 0.322308 -0.647242
H34   H     H_    0.556752 0.848554 0.298938 0.320452

loop_
_geom_bond_atom_site_label_1
_geom_bond_atom_site_label_2
_ccdc_geom_bond_type
V4    O20   S    
C33   C35   A    
O40   H34   S    
C25   C29   A    
C84   O36   S    
O13   V3    S    
C17   C18   A    
C39   H11   S    
C86   O39   D    
C44   C48   A    
V1    O19   S    
C70   C72   A    
O30   H29   S    
C79   O25   D    
C15   C17   A    
C16   C22   A    
C63   C65   A    
O9    V1    S    
O36   H32   S    
C34   C38   A    
C61   C71   A    
O3    C1    A    
C67   C69   A    
C13   H3    S    
C50   C52   A    
C27   C29   A    
C40   H12   S    
C28   C30   A    
C81   O29   D    
C24   C82   S    
C23   C81   S    
C79   O26   S    
C39   C41   A    
O7    C3    A    
C32   C34   A    
C82   O31   D    
C9    C11   A    
O5    C7    A    
C28   C36   A    
C4    C63   S    
C36   C42   A    
C52   C56   A    
C8    C11   S    
O8    V2    S    
C38   C39   A    
C73   C75   A    
C60   H14   S    
C44   C50   A    
C83   O33   D    
C85   O38   S    
O3    V1    S    
O14   V4    S    
C74   H24   S    
C19   C24   A    
O14   V2    S    
C20   C23   A    
O4    C2    A    
C15   C21   A    
C26   C32   A    
C45   C53   A    
C21   C23   A    
C27   C85   S    
C21   H5    S    
C5    C25   S    
C2    O12   A    
C45   C77   S    
C66   H22   S    
C17   C19   A    
C22   H6    S    
C18   C20   A    
C28   C86   S    
C62   C64   A    
C45   C47   A    
O7    V1    S    
O11   V3    S    
C22   C24   A    
C49   C51   A    
C31   H10   S    
O17   V3    S    
C13   C15   A    
C33   C37   A    
C10   H2    S    
C73   H23   S    
C51   C55   A    
C37   C38   A    
C9    C19   A    
O12   V4    S    
C10   C20   A    
C69   C71   A    
O8    C4    A    
C57   H17   S    
C55   C56   A    
C41   H7    S    
C29   C84   S    
C1    O11   A    
C35   C41   A    
O15   V3    S    
C26   C30   A    
C30   C83   S    
C34   C36   A    
C53   C59   A    
C77   O22   S    
C16   C18   A    
C85   O37   D    
O10   V2    S    
O1    V3    S    
C61   C63   A    
C58   C60   A    
C50   H15   S    
C74   C76   A    
C62   C72   A    
C42   H8    S    
C52   C54   A    
O18   V4    S    
C46   C48   A    
O15   C5    A    
O24   H26   S    
O16   C6    A    
C32   H9    S    
O1    C3    A    
C65   H21   S    
C47   Br2   S    
C76   C80   S    
C75   C79   S    
C68   C74   A    
C43   C49   A    
C11   C13   A    
C1    C43   S    
O22   H25   S    
V2    O20   S    
C48   Br1   S    
C81   O30   S    
O16   V4    S    
C69   C70   A    
C82   O32   S    
C31   C33   A    
C61   H19   S    
C27   C35   A    
C3    C64   S    
C78   O24   S    
C80   O27   D    
C59   H13   S    
C54   C60   A    
O5    V1    S    
O4    V2    S    
C7    C12   S    
C6    C26   S    
O6    V2    S    
O26   H27   S    
O10   C6    A    
O18   C8    A    
C46   C54   A    
O2    V4    S    
C37   C40   A    
C12   C14   A    
O34   H31   S    
V3    O19   S    
C49   H16   S    
O38   H33   S    
O28   H28   S    
C55   C58   A    
C14   C16   A    
C80   O28   S    
C65   C67   A    
C64   C66   A    
C25   C31   A    
O9    C5    A    
C56   C57   A    
O13   V1    S    
C66   C68   A    
C10   C12   A    
C83   O34   S    
C78   O23   D    
O2    C4    A    
C68   C70   A    
C72   C75   A    
C67   C73   A    
C71   C76   A    
C43   C47   A    
O6    C8    A    
C14   H4    S    
C58   H18   S    
C57   C59   A    
C84   O35   D    
C2    C44   S    
C51   C53   A    
C86   O40   S    
C40   C42   A    
C46   C78   S    
O32   H30   S    
C9    H1    S    
C77   O21   D    
C62   H20   S    
O17   C7    A    
