data_mof_unit_39152.cif
_audit_creation_date              2012-12-10T17:31:12-0500
_audit_creation_method            fapswitch 2.2
_symmetry_space_group_name_H-M    P1
_symmetry_Int_Tables_number       1
_space_group_crystal_system       triclinic
_cell_length_a                    12.224901
_cell_length_b                    12.879113
_cell_length_c                    15.463802
_cell_angle_alpha                 84.179686
_cell_angle_beta                  114.606631
_cell_angle_gamma                 92.352203
_cell_volume                      2202.19724235

loop_
_atom_site_label
_atom_site_type_symbol
_atom_type_description
_atom_site_fract_x
_atom_site_fract_y
_atom_site_fract_z
_atom_type_partial_charge
C1    C     C_R   0.478661 0.300194 0.498707 0.950328
C2    C     C_R   0.584923 0.937204 0.622946 0.140852
C3    C     C_R   0.374540 0.159393 0.402064 0.328838
C4    C     C_R   0.588627 0.833690 0.605451 0.313509
C5    C     C_R   0.541091 0.118180 0.557287 0.110069
C6    C     C_R   0.460118 0.876256 0.435562 0.110381
C7    C     C_R   0.524560 0.012018 0.544757 -0.051151
C8    C     C_R   0.452039 0.981058 0.451730 -0.062806
C9    C     C_R   0.016062 0.620135 0.429871 0.436313
C10   C     C_R   0.987598 0.383043 0.575971 0.377062
C11   C     C_R   0.129419 0.603086 0.428658 0.168439
C12   C     C_R   0.520443 0.698916 0.500189 1.018008
C13   C     C_R   0.874998 0.403246 0.577920 0.181444
C14   C     C_R   0.152910 0.442773 0.524998 0.281516
C15   C     C_R   0.847967 0.556080 0.473890 0.299271
C16   C     C_R   0.574465 0.494928 0.680029 0.900923
C17   C     C_R   0.425405 0.504349 0.319833 0.891276
C18   C     C_R   0.035759 0.454979 0.525372 -0.180347
C19   C     C_R   0.966358 0.544586 0.476394 -0.135022
C20   C     C_R   0.619245 0.503779 0.783116 -0.093817
C21   C     C_R   0.384808 0.521779 0.215479 -0.095614
C22   C     C_R   0.786542 0.517444 0.936091 -0.199300
C23   C     C_R   0.664816 0.564914 0.113766 0.445117
C24   C     C_R   0.245725 0.607210 0.064642 -0.204428
C25   C     C_R   0.742861 0.508454 0.838837 -0.215110
C26   C     C_R   0.273299 0.567867 0.158523 -0.243959
C27   C     C_R   0.538825 0.514644 0.825710 0.188608
C28   C     C_R   0.465947 0.507940 0.174263 0.185664
C29   C     C_R   0.583239 0.550555 0.917390 0.012324
C30   C     C_R   0.448445 0.564801 0.086667 0.016301
C31   C     C_R   0.707276 0.537905 0.977272 -0.023375
C32   C     C_R   0.333408 0.608282 0.027831 -0.020502
C33   C     C_R   0.505067 0.586665 0.954106 -0.144454
C34   C     C_R   0.394429 0.638793 0.896263 0.430099
C35   C     C_R   0.539863 0.571659 0.052926 -0.150780
C36   C     C_3   0.896445 0.423871 0.187838 -0.731989
C37   C     C_3   0.106510 0.637609 0.812522 -0.746376
C38   C     C_3   0.930664 0.375197 0.748265 -0.828218
C39   C     C_3   0.085401 0.671951 0.265352 -0.832403
C40   C     C_3   0.507528 0.321880 0.209411 -0.782121
C41   C     C_3   0.382134 0.394957 0.838873 -0.762576
C42   C     C_3   0.446934 0.818730 0.285297 -0.767765
C43   C     C_3   0.756545 0.137408 0.622767 -0.722824
C44   C     C_3   0.349303 0.079673 0.213321 -0.767097
C45   C     C_R   0.747395 0.545022 0.076239 0.181017
C46   C     C_3   0.756966 0.945545 0.780332 -0.725543
C47   C     C_3   0.821202 0.733663 0.498732 -0.640405
C48   C     C_3   0.170717 0.263728 0.498167 -0.645375
C49   C     C_R   0.309007 0.649767 0.933380 0.168617
C50   C     C_R   0.533584 0.807127 0.511780 -0.182265
C51   C     C_R   0.462085 0.190250 0.487881 -0.204114
C52   C     C_R   0.377074 0.056585 0.379463 0.132810
H1    H     H_    0.207604 0.573900 0.186690 0.169626
H2    H     H_    0.077906 0.578101 0.856119 0.212576
H3    H     H_    0.139592 0.598027 0.767347 0.265839
H4    H     H_    0.027472 0.686271 0.764790 0.235883
H5    H     H_    0.761554 0.351785 0.642118 0.291349
H6    H     H_    0.896323 0.339741 0.800658 0.231923
H7    H     H_    0.938528 0.460879 0.751646 0.241903
H8    H     H_    0.021537 0.342581 0.768998 0.279693
H9    H     H_    0.248916 0.658480 0.371703 0.302484
H10   H     H_    0.123544 0.722733 0.222237 0.221053
H11   H     H_    0.994640 0.702183 0.248038 0.309865
H12   H     H_    0.806209 0.502293 0.807947 0.176529
H13   H     H_    0.078275 0.591433 0.245626 0.250124
H14   H     H_    0.009802 0.767633 0.386795 0.338334
H15   H     H_    0.999231 0.242402 0.638743 0.347009
H16   H     H_    0.627285 0.438638 0.275170 0.280115
H17   H     H_    0.582082 0.265233 0.229457 0.232919
H18   H     H_    0.440250 0.309630 0.136120 0.248544
H19   H     H_    0.465410 0.307142 0.260744 0.265840
H20   H     H_    0.352737 0.523133 0.733993 0.276555
H21   H     H_    0.316000 0.428051 0.860654 0.238650
H22   H     H_    0.459999 0.362780 0.903719 0.245832
H23   H     H_    0.882566 0.510239 0.976572 0.142461
H24   H     H_    0.339033 0.329592 0.795158 0.242242
H25   H     H_    0.652206 0.631620 0.216334 0.324415
H26   H     H_    0.448132 0.701354 0.800789 0.324714
H27   H     H_    0.297136 0.849257 0.315757 0.251979
H28   H     H_    0.381503 0.786620 0.219216 0.236141
H29   H     H_    0.521955 0.762224 0.321525 0.219057
H30   H     H_    0.483079 0.893372 0.265781 0.260332
H31   H     H_    0.640030 0.220517 0.660074 0.204455
H32   H     H_    0.835074 0.153143 0.689552 0.241010
H33   H     H_    0.757426 0.189861 0.561496 0.240462
H34   H     H_    0.156467 0.638611 0.022645 0.147405
H35   H     H_    0.765609 0.056221 0.608586 0.240164
H36   H     H_    0.628719 0.772247 0.735312 0.338656
H37   H     H_    0.224694 0.199995 0.293081 0.329682
H38   H     H_    0.217378 0.032907 0.261999 0.206056
H39   H     H_    0.313609 0.034631 0.149725 0.236818
H40   H     H_    0.449153 0.080089 0.242136 0.245316
H41   H     H_    0.315144 0.160830 0.190385 0.249671
H42   H     H_    0.572776 0.952735 0.751673 0.216858
H43   H     H_    0.765915 0.884171 0.838781 0.218364
H44   H     H_    0.798735 0.018027 0.813125 0.244861
H45   H     H_    0.930876 0.556466 0.114108 0.200814
H46   H     H_    0.806890 0.920547 0.740108 0.250375
H47   H     H_    0.694263 0.644316 0.394475 0.246395
H48   H     H_    0.815223 0.707001 0.567198 0.243346
H49   H     H_    0.762964 0.803271 0.464409 0.217321
H50   H     H_    0.915946 0.757122 0.517043 0.239391
H51   H     H_    0.246105 0.326046 0.631760 0.262086
H52   H     H_    0.080907 0.237820 0.493272 0.236257
H53   H     H_    0.233246 0.196146 0.526711 0.218568
H54   H     H_    0.162088 0.290131 0.424971 0.255167
H55   H     H_    0.880896 0.366647 0.134720 0.221037
H56   H     H_    0.839302 0.403622 0.227259 0.265438
H57   H     H_    0.992033 0.418904 0.240118 0.228905
H58   H     H_    0.168919 0.751928 0.908089 0.210865
N1    N     N_R   0.799120 0.480200 0.517090 -0.187731
N2    N     N_2   0.646164 0.151547 0.634041 -0.264314
N3    N     N_2   0.309385 0.031534 0.283946 -0.301365
N4    N     N_2   0.630879 0.965321 0.718843 -0.280183
N5    N     N_2   0.785114 0.651534 0.434204 -0.219306
N6    N     N_2   0.217497 0.347478 0.559884 -0.237017
N7    N     N_R   0.200880 0.519800 0.482910 -0.171053
N8    N     N_2   0.869764 0.528462 0.140423 -0.270290
N9    N     N_2   0.199460 0.703027 0.874094 -0.260070
N10   N     N_2   0.849549 0.351540 0.652930 -0.319225
N11   N     N_2   0.164565 0.670790 0.365504 -0.317202
N12   N     N_2   0.554529 0.426889 0.212257 -0.290211
N13   N     N_2   0.419154 0.474403 0.783058 -0.294364
N14   N     N_2   0.388203 0.834644 0.347064 -0.300020
O1    O     O_R   0.580150 0.341050 0.504560 -0.649731
O2    O     O_3   0.053981 0.296622 0.629057 -0.808100
O3    O     O_3   0.710982 0.587616 0.207849 -0.748161
O4    O     O_3   0.371010 0.688048 0.806655 -0.768464
O5    O     O_3   0.639287 0.755103 0.678333 -0.778558
O6    O     O_3   0.297226 0.234386 0.337617 -0.787852
O7    O     O_R   0.419850 0.658950 0.495440 -0.641986
O8    O     O_R   0.388090 0.353760 0.493600 -0.558465
O9    O     O_R   0.611910 0.646240 0.506400 -0.624112
O10   O     O_R   0.650890 0.490020 0.640860 -0.624375
O11   O     O_R   0.349110 0.509980 0.359140 -0.612197
O12   O     O_R   0.458830 0.502730 0.629890 -0.606625
O13   O     O_R   0.541170 0.497270 0.370110 -0.648024
O14   O     O_3   0.952167 0.709987 0.383220 -0.739458
Zn1   Zn    Zn3+2 0.628240 0.491510 0.507320 0.918259
Zn2   Zn    Zn3+2 0.371760 0.508490 0.492680 0.961419

loop_
_geom_bond_atom_site_label_1
_geom_bond_atom_site_label_2
_ccdc_geom_bond_type
C45   N8    S    
C21   C26   A    
C42   H28   S    
C47   H49   S    
C40   H19   S    
C36   H56   S    
C3    O6    S    
C14   C18   A    
C2    C7    A    
C42   H30   S    
C6    N14   S    
O12   Zn2   S    
C1    O8    A    
H26   O4    S    
H42   N4    S    
N1    Zn1   S    
C7    C8    A    
C52   N3    S    
O1    Zn1   S    
C15   C19   A    
O13   Zn1   S    
C40   H18   S    
C30   C35   A    
C23   C45   A    
H36   O5    S    
C12   O7    A    
C1    O1    A    
H47   N5    S    
C28   N12   S    
C27   C29   A    
C20   C25   A    
C48   H52   S    
C29   C33   A    
H9    N11   S    
C18   C19   A    
H38   N3    S    
H45   N8    S    
C44   H41   S    
C41   H22   S    
C38   H6    S    
C37   H4    S    
C9    C19   A    
C48   H54   S    
C46   H43   S    
C22   C25   A    
H14   O14   S    
C17   O11   A    
O7    Zn2   S    
C36   N8    S    
C8    C52   A    
H25   O3    S    
C48   N6    S    
C38   N10   S    
C46   H46   S    
C16   O10   A    
C47   H50   S    
C36   H55   S    
C43   H32   S    
C39   H13   S    
C11   N11   S    
C42   H29   S    
C22   H23   S    
O11   Zn2   S    
C22   C31   A    
C46   N4    S    
C42   N14   S    
C43   H33   S    
C15   N1    A    
C40   H17   S    
H15   O2    S    
H16   N12   S    
O10   Zn1   S    
C5    C7    A    
C3    C51   A    
C6    C8    A    
C17   C21   S    
C47   H48   S    
C4    C50   A    
C25   H12   S    
C2    C4    A    
C24   C32   A    
C9    C11   A    
C9    O14   S    
C48   H53   S    
C37   N9    S    
C16   C20   S    
C14   N7    A    
C33   C34   A    
C6    C50   A    
C1    C51   S    
C47   N5    S    
C44   H39   S    
H5    N10   S    
C38   H8    S    
C37   H2    S    
C34   O4    S    
C20   C27   A    
C21   C28   A    
C44   N3    S    
O9    Zn1   S    
C23   C35   A    
C12   O9    A    
H20   N13   S    
C15   N5    S    
N7    Zn2   S    
C43   N2    S    
C16   O12   A    
C26   H1    S    
C13   N10   S    
C40   N12   S    
C23   O3    S    
C39   H10   S    
C34   C49   A    
C27   N13   S    
C24   C26   A    
C10   C13   A    
C44   H40   S    
H58   N9    S    
C12   C50   S    
C3    C52   A    
C4    O5    S    
C5    N2    S    
O8    Zn2   S    
C39   H11   S    
H27   N14   S    
C39   N11   S    
C43   H35   S    
C41   N13   S    
C28   C30   A    
H51   N6    S    
C29   C31   A    
C41   H24   S    
C30   C32   A    
C2    N4    S    
C49   N9    S    
C10   C18   A    
C14   N6    S    
C33   C35   A    
C32   C49   A    
H37   O6    S    
C41   H21   S    
C38   H7    S    
C37   H3    S    
C46   H44   S    
C13   N1    A    
C31   C45   A    
C36   H57   S    
H31   N2    S    
C5    C51   A    
C17   O13   A    
C10   O2    S    
C24   H34   S    
C11   N7    A    
