data_mof_unit_36918.cif
_audit_creation_date              2012-12-10T17:50:37-0500
_audit_creation_method            fapswitch 2.2
_symmetry_space_group_name_H-M    P1
_symmetry_Int_Tables_number       1
_space_group_crystal_system       triclinic
_cell_length_a                    15.708624
_cell_length_b                    10.591654
_cell_length_c                    9.912584
_cell_angle_alpha                 90.710591
_cell_angle_beta                  90.295856
_cell_angle_gamma                 92.697577
_cell_volume                      1647.27723326

loop_
_atom_site_label
_atom_site_type_symbol
_atom_type_description
_atom_site_fract_x
_atom_site_fract_y
_atom_site_fract_z
_atom_type_partial_charge
C1    C     C_R   0.514051 0.262736 0.499306 0.876229
C2    C     C_3   0.082334 0.487913 0.498470 0.120168
C3    C     C_3   0.974419 0.602120 0.533730 -0.185134
C4    C     C_3   0.916566 0.484982 0.500690 0.076050
C5    C     C_3   0.029159 0.571622 0.408955 -0.257195
C6    C     C_3   0.970263 0.454700 0.378053 0.449492
C7    C     C_1   0.173369 0.491500 0.498388 -0.035244
C8    C     C_1   0.825678 0.486170 0.501185 0.036495
C9    C     C_R   0.601407 0.138709 0.731089 -0.163776
C10   C     C_R   0.636281 0.074296 0.837880 -0.013934
C11   C     C_R   0.649580 0.945948 0.825231 -0.201076
C12   C     C_R   0.337958 0.499190 0.499647 0.894953
C13   C     C_R   0.625896 0.881007 0.706181 -0.011253
C14   C     C_R   0.574272 0.939964 0.609612 0.112904
C15   C     C_R   0.569776 0.072639 0.614770 0.029170
C16   C     C_R   0.542403 0.134002 0.496518 -0.254165
C17   C     C_R   0.540416 0.065908 0.373377 0.398663
C18   C     C_R   0.524939 0.937558 0.377758 -0.283406
C19   C     C_R   0.534181 0.874530 0.499005 -0.163355
C20   C     C_R   0.384855 0.337125 0.137439 -0.079340
C21   C     C_R   0.327894 0.256787 0.065865 -0.146010
C22   C     C_R   0.328555 0.255427 0.926175 -0.169420
C23   C     C_R   0.509511 0.740680 0.500551 0.945909
C24   C     C_R   0.385850 0.334857 0.857151 -0.138009
C25   C     C_R   0.443660 0.418846 0.926267 0.161679
C26   C     C_R   0.443350 0.419512 0.070900 0.194545
C27   C     C_R   0.553696 0.577878 0.073133 -0.052263
C28   C     C_R   0.553380 0.578107 0.930196 -0.094520
C29   C     C_R   0.661756 0.495362 0.500207 0.949827
C30   C     C_3   0.970000 0.401412 0.589937 -0.201260
C31   C     C_3   0.024910 0.370320 0.465241 -0.226288
C32   C     C_1   0.248836 0.495283 0.498830 -0.183876
C33   C     C_1   0.750488 0.489594 0.500822 -0.069495
C34   C     C_3   0.029424 0.518697 0.623186 -0.111396
H1    H     H_    0.047338 0.276069 0.435864 0.169625
H2    H     H_    0.687389 0.901377 0.901274 0.167070
H3    H     H_    0.511158 0.886515 0.284121 0.214028
H4    H     H_    0.597524 0.641701 0.128052 0.163793
H5    H     H_    0.382703 0.329742 0.244417 0.189224
H6    H     H_    0.283765 0.194000 0.119282 0.152523
H7    H     H_    0.284656 0.191971 0.870758 0.154544
H8    H     H_    0.382908 0.327560 0.750010 0.203466
H9    H     H_    0.596527 0.642506 0.878367 0.125321
H10   H     H_    0.943824 0.332296 0.664024 0.181154
H11   H     H_    0.054969 0.640271 0.334089 0.159502
H12   H     H_    0.951796 0.696513 0.562139 0.173861
H13   H     H_    0.055998 0.545119 0.724185 0.159610
H14   H     H_    0.606297 0.240312 0.738915 0.184096
H15   H     H_    0.661248 0.127013 0.924639 0.227317
N1    N     N_R   0.499210 0.498800 0.142780 -0.120511
N2    N     N_R   0.499180 0.498720 0.857170 -0.129921
O1    O     O_R   0.500000 0.316780 0.614690 -0.659899
O2    O     O_R   0.499990 0.316750 0.385360 -0.579511
O3    O     O_R   0.376780 0.500000 0.614650 -0.627027
O4    O     O_R   0.376770 0.499980 0.385310 -0.642679
O5    O     O_R   0.500010 0.683250 0.614640 -0.621081
O6    O     O_R   0.500000 0.683220 0.385310 -0.622412
O7    O     O_R   0.623230 0.500020 0.614690 -0.650227
O8    O     O_R   0.623220 0.500000 0.385350 -0.562017
Zn1   Zn    Zn3+2 0.500010 0.500020 0.653130 0.936693
Zn2   Zn    Zn3+2 0.499990 0.499980 0.346870 1.008790
C35   C     C_2   0.678518 0.774664 0.667769 0.393215
H16   H     H_    0.705100 0.715373 0.744189 0.062027
O9    O     O_2   0.699795 0.760321 0.550540 -0.594595
S1    S     S_3+6 0.929083 0.411926 0.215100 0.038287
O10   O     O_2   0.871259 0.295461 0.226022 -0.238823
O11   O     O_2   0.879485 0.517929 0.160085 -0.287660
O12   O     O_3   0.009823 0.381880 0.110637 -0.535315
H17   H     H_    0.046689 0.460385 0.111928 0.339226
S2    S     S_3+6 0.580062 0.125538 0.218629 0.019786
O13   O     O_2   0.507870 0.136836 0.120522 -0.299236
O14   O     O_2   0.627981 0.251018 0.235278 -0.259683
O15   O     O_3   0.646787 0.020383 0.155734 -0.573814
H18   H     H_    0.693857 0.018602 0.222474 0.375584

loop_
_geom_bond_atom_site_label_1
_geom_bond_atom_site_label_2
_ccdc_geom_bond_type
C24   H8    S    
O15   H18   S    
C2    C7    S    
C4    C8    S    
C23   O5    A    
O3    Zn1   S    
C11   H2    S    
C18   H3    S    
C26   N1    A    
C5    C6    S    
C28   N2    A    
C22   H7    S    
C27   H4    S    
O7    Zn1   S    
C15   C16   A    
C29   C33   S    
C18   C19   A    
C1    O2    A    
C35   O9    D    
O1    Zn1   S    
O2    Zn2   S    
C6    S1    S    
C13   C35   S    
C29   O8    A    
C16   C17   A    
S1    O11   D    
S2    O13   D    
C9    C10   A    
C27   N1    A    
C2    C34   S    
C6    C31   S    
C17   S2    S    
C21   C22   A    
C12   C32   S    
C30   H10   S    
O8    Zn2   S    
C30   C34   S    
C24   C25   A    
C4    C6    S    
C20   H5    S    
O12   H17   S    
C3    C34   S    
C25   C26   A    
C5    H11   S    
O5    Zn1   S    
C2    C31   S    
C19   C23   S    
C25   N2    A    
C35   H16   S    
S1    O12   S    
S2    O15   S    
C17   C18   A    
C1    C16   S    
C29   O7    A    
C22   C24   A    
C2    C5    S    
C3    C4    S    
C23   O6    A    
C7    C32   T    
C3    H12   S    
C14   C19   A    
C3    C5    S    
O6    Zn2   S    
N2    Zn1   S    
C28   H9    S    
C9    C15   A    
C11   C13   A    
C30   C31   S    
C21   H6    S    
C20   C26   A    
O4    Zn2   S    
C31   H1    S    
C8    C33   T    
C1    O1    A    
C4    C30   S    
C12   O4    A    
C10   C11   A    
C20   C21   A    
C9    H14   S    
S1    O10   D    
C27   C28   A    
N1    Zn2   S    
C14   C15   A    
S2    O14   D    
C34   H13   S    
C13   C14   A    
C10   H15   S    
C12   O3    A    
