data_mof_unit_54327.cif
_audit_creation_date              2012-12-10T17:27:49-0500
_audit_creation_method            fapswitch 2.2
_symmetry_space_group_name_H-M    P1
_symmetry_Int_Tables_number       1
_space_group_crystal_system       triclinic
_cell_length_a                    10.621901
_cell_length_b                    12.002536
_cell_length_c                    12.844862
_cell_angle_alpha                 93.684144
_cell_angle_beta                  90.226115
_cell_angle_gamma                 86.621194
_cell_volume                      1631.36329554

loop_
_atom_site_label
_atom_site_type_symbol
_atom_type_description
_atom_site_fract_x
_atom_site_fract_y
_atom_site_fract_z
_atom_type_partial_charge
C1    C     C_R   0.498071 0.522333 0.700187 0.842910
C2    C     C_R   0.408952 0.621271 0.857578 -0.188118
C3    C     C_R   0.549438 0.455342 0.869055 -0.229557
C4    C     C_R   0.739430 0.500883 0.502846 0.860395
C5    C     C_R   0.529343 0.457669 0.974994 0.146044
C6    C     C_R   0.448980 0.543907 0.024074 0.083171
C7    C     C_R   0.432062 0.546339 0.131920 0.361146
C8    C     C_R   0.570156 0.376371 0.138242 -0.289698
C9    C     C_R   0.587248 0.373544 0.031715 -0.207916
C10   C     C_R   0.381459 0.953986 0.404317 -0.316127
C11   C     C_R   0.392616 0.838009 0.413112 0.033034
C12   C     C_R   0.936845 0.465803 0.598297 0.102083
C13   C     C_R   0.552122 0.858134 0.541465 -0.036425
C14   C     C_R   0.544801 0.975843 0.535525 0.068850
C15   C     C_R   0.457645 0.023843 0.465685 0.054760
C16   C     C_R   0.498103 0.477689 0.299646 0.936201
C17   C     C_R   0.448692 0.140894 0.458982 -0.051355
C18   C     C_R   0.607751 0.163276 0.587310 -0.007280
C19   C     C_R   0.621260 0.046704 0.597114 -0.004585
C20   C     C_R   0.260517 0.499909 0.502372 0.871478
C21   C     C_R   0.874219 0.432928 0.687244 -0.246141
C22   C     C_R   0.942298 0.399567 0.774072 -0.272371
C23   C     C_R   0.871548 0.502972 0.509950 -0.070682
C24   C     C_R   0.074439 0.399128 0.774533 0.521105
C25   C     C_R   0.136741 0.431790 0.686911 -0.187805
C26   C     C_R   0.068732 0.464819 0.597962 -0.004046
C27   C     C_R   0.932530 0.542159 0.425273 -0.215041
C28   C     C_R   0.061223 0.540734 0.424724 -0.198312
C29   C     C_R   0.128262 0.500429 0.508990 -0.072810
C30   C     C_R   0.496053 0.463826 0.188004 -0.103519
C31   C     C_R   0.488923 0.536243 0.810967 -0.032086
C32   C     C_R   0.387520 0.624457 0.963843 -0.181762
H1    H     H_    0.880298 0.571383 0.358571 0.153259
H2    H     H_    0.772529 0.434442 0.691307 0.154182
H3    H     H_    0.891773 0.375257 0.841305 0.133092
H4    H     H_    0.238412 0.432609 0.690184 0.168296
H5    H     H_    0.109015 0.569328 0.357760 0.172116
H6    H     H_    0.619712 0.313472 0.182396 0.180608
H7    H     H_    0.321258 0.688825 0.996902 0.152979
H8    H     H_    0.753074 0.065002 0.713093 0.183124
H9    H     H_    0.783448 0.957973 0.624803 0.186571
H10   H     H_    0.087432 0.348153 0.914761 0.327960
H11   H     H_    0.371915 0.700583 0.159468 0.319395
H12   H     H_    0.647522 0.306973 0.993969 0.149570
H13   H     H_    0.359113 0.682061 0.811245 0.158068
H14   H     H_    0.610289 0.389070 0.831167 0.134401
H15   H     H_    0.382415 0.178967 0.405634 0.137783
H16   H     H_    0.665426 0.218921 0.633759 0.129551
H17   H     H_    0.313743 0.988688 0.350111 0.150016
H18   H     H_    0.333542 0.784340 0.365977 0.163982
H19   H     H_    0.617379 0.818418 0.594483 0.149411
N1    N     N_R   0.523130 0.207800 0.519340 -0.110173
N2    N     N_R   0.476870 0.792180 0.480660 -0.109561
N3    N     N_3   0.711297 0.000847 0.668945 -0.466383
O1    O     O_R   0.506170 0.421690 0.658830 -0.626466
O2    O     O_3   0.353623 0.626893 0.184481 -0.783132
O3    O     O_R   0.491330 0.609320 0.646410 -0.624622
O4    O     O_R   0.690660 0.406170 0.506210 -0.624029
O5    O     O_R   0.675810 0.593790 0.493790 -0.622522
O6    O     O_R   0.508670 0.390680 0.353590 -0.633271
O7    O     O_R   0.493830 0.578310 0.341170 -0.579676
O8    O     O_R   0.324190 0.406210 0.506210 -0.620667
O9    O     O_R   0.309340 0.593830 0.493790 -0.613035
O10   O     O_3   0.145185 0.368440 0.859453 -0.762593
Zn1   Zn    Zn3+2 0.509910 0.374720 0.508290 0.945430
Zn2   Zn    Zn3+2 0.490090 0.625280 0.491710 0.960794

loop_
_geom_bond_atom_site_label_1
_geom_bond_atom_site_label_2
_ccdc_geom_bond_type
C8    C9    A    
C6    C32   A    
C5    C9    A    
C6    C7    A    
C22   H3    S    
C23   C27   A    
C3    H14   S    
C13   N2    A    
C11   N2    A    
O3    Zn2   S    
C10   C15   A    
C8    C30   A    
C20   O9    A    
C1    O1    A    
O9    Zn2   S    
C18   N1    A    
C18   H16   S    
C24   O10   S    
C7    C30   A    
C13   H19   S    
C21   C22   A    
C27   H1    S    
C3    C31   A    
N2    Zn2   S    
C12   C23   A    
C8    H6    S    
C7    O2    S    
C16   O6    A    
C28   H5    S    
C17   N1    A    
C28   C29   A    
O1    Zn1   S    
O6    Zn1   S    
H8    N3    S    
C20   C29   S    
C2    H13   S    
C20   O8    A    
C5    C6    A    
C22   C24   A    
H9    N3    S    
C16   O7    A    
O7    Zn2   S    
C25   H4    S    
C16   C30   S    
C12   C21   A    
H10   O10   S    
H11   O2    S    
C1    C31   S    
C24   C25   A    
C4    O5    A    
C26   C29   A    
C2    C32   A    
C18   C19   A    
C10   C11   A    
C32   H7    S    
C4    O4    A    
C27   C28   A    
C15   C17   A    
C4    C23   S    
C11   H18   S    
C14   C15   A    
C2    C31   A    
C19   N3    S    
C21   H2    S    
O4    Zn1   S    
O8    Zn1   S    
C3    C5    A    
C25   C26   A    
C13   C14   A    
C10   H17   S    
C14   C19   A    
N1    Zn1   S    
C17   H15   S    
C12   C26   A    
O5    Zn2   S    
C9    H12   S    
C1    O3    A    
