data_mof_unit_8692.cif
_audit_creation_date              2012-12-10T16:46:43-0500
_audit_creation_method            fapswitch 2.2
_symmetry_space_group_name_H-M    P1
_symmetry_Int_Tables_number       1
_space_group_crystal_system       triclinic
_cell_length_a                    15.856071
_cell_length_b                    8.690535
_cell_length_c                    7.451008
_cell_angle_alpha                 103.0096
_cell_angle_beta                  94.077191
_cell_angle_gamma                 92.170324
_cell_volume                      996.312062607

loop_
_atom_site_label
_atom_site_type_symbol
_atom_type_description
_atom_site_fract_x
_atom_site_fract_y
_atom_site_fract_z
_atom_type_partial_charge
C1    C     C_R   0.497502 0.199729 0.453259 0.879162
C2    C     C_3   0.954565 0.440127 0.673683 0.549057
C3    C     C_3   0.917111 0.495977 0.499621 0.181316
C4    C     C_3   0.954797 0.665492 0.509193 -0.320067
C5    C     C_3   0.052594 0.666574 0.513390 -0.367831
C6    C     C_1   0.824669 0.497368 0.493758 -0.055127
C7    C     C_1   0.175306 0.499411 0.508216 -0.082088
C8    C     C_1   0.250871 0.499947 0.507511 -0.165183
C9    C     C_2   0.496314 0.031831 0.426998 -0.365616
C10   C     C_2   0.503751 0.968175 0.573001 -0.365353
C11   C     C_R   0.340337 0.499906 0.502558 0.820129
C12   C     C_R   0.502525 0.800273 0.546740 0.881967
C13   C     C_R   0.659658 0.500016 0.497460 0.822152
C14   C     C_3   0.053163 0.441281 0.675087 -0.377548
C15   C     C_3   0.042244 0.384861 0.327186 -0.365068
C16   C     C_3   0.944513 0.387326 0.320329 -0.441019
C17   C     C_1   0.749093 0.498561 0.492760 -0.141549
C18   C     C_3   0.083068 0.498137 0.506143 0.209182
Cu1   Cu    Cu3+1 0.509300 0.517380 0.684380 0.962654
Cu2   Cu    Cu3+1 0.490700 0.482620 0.315620 0.958450
H1    H     H_    0.082264 0.521521 0.804636 0.184759
H2    H     H_    0.929381 0.708451 0.387212 0.190611
H3    H     H_    0.489302 0.960240 0.286288 0.180194
H4    H     H_    0.510768 0.039766 0.713711 0.180280
H5    H     H_    0.434944 0.376766 0.948650 0.225999
H6    H     H_    0.565059 0.623230 0.051348 0.230246
H7    H     H_    0.077119 0.322447 0.674640 0.166544
H8    H     H_    0.064701 0.420647 0.203517 0.187028
H9    H     H_    0.061599 0.262194 0.321616 0.194124
H10   H     H_    0.916229 0.265118 0.300380 0.213381
H11   H     H_    0.920784 0.431515 0.197956 0.215069
H12   H     H_    0.080861 0.749912 0.641436 0.183988
H13   H     H_    0.073913 0.710254 0.393693 0.184608
H14   H     H_    0.936030 0.749487 0.634187 0.227356
N1    N     N_2   0.476670 0.456430 0.038530 -0.215734
N2    N     N_2   0.523330 0.543570 0.961470 -0.213362
O1    O     O_R   0.506050 0.286130 0.619770 -0.585349
O2    O     O_R   0.490330 0.256780 0.308370 -0.585997
O3    O     O_R   0.387300 0.514690 0.655770 -0.584581
O4    O     O_R   0.371580 0.485340 0.344370 -0.575534
O5    O     O_R   0.509670 0.743220 0.691630 -0.585062
O6    O     O_R   0.493950 0.713870 0.380230 -0.585003
O7    O     O_R   0.628420 0.514660 0.655630 -0.567724
O8    O     O_R   0.612700 0.485310 0.344230 -0.583262
C19   C     C_2   0.916839 0.279404 0.683403 0.294229
H15   H     H_    0.865774 0.272575 0.771390 0.115006
O9    O     O_2   0.940791 0.157125 0.590103 -0.594224
F1    F     F_    0.934295 0.546620 0.831558 -0.715212

loop_
_geom_bond_atom_site_label_1
_geom_bond_atom_site_label_2
_ccdc_geom_bond_type
C15   C18   S    
Cu2   O6    S    
C12   O5    A    
C1    O1    A    
C14   H7    S    
Cu2   O2    S    
C9    C10   D    
C14   C18   S    
N1    N2    D    
C13   C17   S    
C3    C6    S    
C2    F1    S    
C7    C18   S    
C2    C3    S    
C1    C9    S    
C7    C8    T    
C19   H15   S    
C13   O8    A    
C16   H11   S    
C11   O3    A    
C15   H8    S    
C10   C12   S    
C1    O2    A    
H5    N1    S    
C8    C11   S    
C2    C14   S    
Cu1   O3    S    
C14   H1    S    
H6    N2    S    
Cu2   O8    S    
Cu1   O7    S    
C15   H9    S    
Cu1   N2    S    
C19   O9    D    
C2    C19   S    
C11   O4    A    
Cu2   O4    S    
C4    H14   S    
C3    C16   S    
C16   H10   S    
C15   C16   S    
Cu1   O5    S    
C13   O7    A    
C4    H2    S    
C6    C17   T    
C9    H3    S    
C12   O6    A    
C5    C18   S    
Cu1   O1    S    
C10   H4    S    
Cu2   N1    S    
C5    H12   S    
C3    C4    S    
Cu1   Cu2   S    
C4    C5    S    
C5    H13   S    
