data_mof_unit_24049.cif
_audit_creation_date              2012-12-10T17:03:00-0500
_audit_creation_method            fapswitch 2.2
_symmetry_space_group_name_H-M    P1
_symmetry_Int_Tables_number       1
_space_group_crystal_system       triclinic
_cell_length_a                    9.849847
_cell_length_b                    11.068785
_cell_length_c                    13.430404
_cell_angle_alpha                 95.19814
_cell_angle_beta                  81.023576
_cell_angle_gamma                 111.862227
_cell_volume                      1341.46684862

loop_
_atom_site_label
_atom_site_type_symbol
_atom_type_description
_atom_site_fract_x
_atom_site_fract_y
_atom_site_fract_z
_atom_type_partial_charge
C1    C     C_R   0.557417 0.745780 0.507689 0.759787
C2    C     C_R   0.447432 0.465133 0.965847 0.101371
C3    C     C_R   0.472743 0.521165 0.870561 -0.030281
C4    C     C_R   0.555527 0.522144 0.033255 -0.001226
C5    C     C_R   0.695838 0.616820 0.999151 0.085528
C6    C     C_R   0.715256 0.673551 0.905468 0.158372
C7    C     C_R   0.601004 0.630976 0.846352 -0.243215
C8    C     C_R   0.523233 0.495269 0.135891 -0.221070
C9    C     C_R   0.776373 0.618380 0.163164 0.080430
C10   C     C_R   0.371688 0.464855 0.799411 -0.088056
C11   C     C_2   0.591747 0.886002 0.512608 0.229646
C12   C     C_R   0.421739 0.488312 0.690758 0.795643
C13   C     C_2   0.485112 0.930299 0.503271 -0.252920
C14   C     C_2   0.406671 0.113997 0.490005 -0.044035
C15   C     C_2   0.510418 0.068986 0.506000 -0.119986
C16   C     C_2   0.923191 0.489975 0.490242 0.446344
C17   C     C_2   0.076613 0.509472 0.509137 -0.098047
C18   C     C_R   0.442238 0.254248 0.493100 0.891109
C19   C     C_R   0.579653 0.516974 0.309627 0.832314
C20   C     C_R   0.808790 0.657199 0.062597 0.190176
C21   C     C_R   0.630252 0.541180 0.201262 -0.129011
C22   C     C_R   0.235479 0.365393 0.829021 0.113282
C23   C     C_R   0.210582 0.309892 0.922235 -0.243326
C24   C     C_R   0.318587 0.351084 0.987003 0.139719
Cu1   Cu    Cu3+1 0.362000 0.479240 0.482530 0.990174
Cu2   Cu    Cu3+1 0.638000 0.520760 0.517470 1.003054
H1    H     H_    0.375739 0.861545 0.492772 0.153191
H2    H     H_    0.124059 0.577356 0.569083 0.129533
H3    H     H_    0.111251 0.384324 0.398755 0.260837
H4    H     H_    0.893712 0.616095 0.599878 0.152203
H5    H     H_    0.410610 0.446568 0.168300 0.206516
H6    H     H_    0.110784 0.226169 0.940985 0.154949
H7    H     H_    0.615810 0.684454 0.779378 0.164576
H8    H     H_    0.617807 0.137406 0.521149 0.244133
N1    N     N_2   0.845330 0.551960 0.543750 -0.306525
N2    N     N_2   0.154690 0.448120 0.456210 -0.260043
O1    O     O_R   0.426290 0.668220 0.490680 -0.610967
O2    O     O_R   0.659360 0.703290 0.520190 -0.541738
O3    O     O_R   0.326580 0.473880 0.629020 -0.542528
O4    O     O_R   0.559660 0.508940 0.658530 -0.584130
O5    O     O_R   0.340640 0.296710 0.479810 -0.533736
O6    O     O_R   0.573710 0.331780 0.509320 -0.549253
O7    O     O_R   0.440340 0.491060 0.341470 -0.587146
O8    O     O_R   0.673420 0.526120 0.370980 -0.536739
N3    N     N_3   0.892041 0.666696 0.225915 -0.596472
H9    H     H_    0.862120 0.722182 0.286353 0.249365
H10   H     H_    0.907910 0.587859 0.252609 0.279534
N4    N     N_3   0.261651 0.029318 0.469860 -0.541154
H11   H     H_    0.271567 0.971821 0.404965 0.235200
H12   H     H_    0.210023 0.969139 0.531014 0.229761
Cl1   Cl    Cl    0.773476 0.990750 0.529948 -0.602034
Cl2   Cl    Cl    0.849913 0.378890 0.391874 -0.616266
N5    N     N_3   0.847027 0.780195 0.871645 -0.553612
H13   H     H_    0.818245 0.859963 0.862231 0.222638
H14   H     H_    0.891828 0.753458 0.801190 0.221194
N6    N     N_3   0.956972 0.738131 0.025529 -0.544765
H15   H     H_    0.027424 0.689458 0.033242 0.235802
H16   H     H_    0.986865 0.824343 0.069814 0.242599
N7    N     N_3   0.127580 0.311296 0.760899 -0.539516
H17   H     H_    0.028317 0.318599 0.796056 0.228022
H18   H     H_    0.110560 0.212410 0.748132 0.231533
N8    N     N_3   0.302434 0.267370 0.066994 -0.603256
H19   H     H_    0.297119 0.176128 0.035273 0.233899
H20   H     H_    0.202116 0.255259 0.112396 0.228618

loop_
_geom_bond_atom_site_label_1
_geom_bond_atom_site_label_2
_ccdc_geom_bond_type
C12   O4    A    
C2    C4    A    
C23   C24   A    
C9    N3    S    
C6    C7    A    
C17   N2    D    
C11   C13   D    
C14   C18   S    
C15   H8    S    
N8    H20   S    
C1    C11   S    
C13   C15   S    
C1    O1    A    
C4    C8    A    
C9    C21   A    
C23   H6    S    
Cu1   O7    S    
C12   O3    A    
N3    H10   S    
C2    C3    A    
Cu2   O8    S    
N7    H17   S    
C3    C10   A    
N3    H9    S    
Cu1   O3    S    
C7    H7    S    
H3    N2    S    
Cu2   O4    S    
N8    H19   S    
C10   C12   S    
H4    N1    S    
C1    O2    A    
N4    H12   S    
N4    H11   S    
C19   C21   S    
C19   O7    A    
C8    C21   A    
C3    C7    A    
C20   N6    S    
C18   O6    A    
C16   N1    D    
C2    C24   A    
C5    C6    A    
C9    C20   A    
N7    H18   S    
C11   Cl1   S    
N6    H15   S    
C6    N5    S    
C16   C17   S    
Cu2   N1    S    
C19   O8    A    
Cu2   O6    S    
C18   O5    A    
Cu1   O5    S    
C22   N7    S    
C5    C20   A    
C14   N4    S    
C14   C15   D    
C13   H1    S    
C24   N8    S    
Cu1   N2    S    
Cu1   O1    S    
Cu1   Cu2   S    
C22   C23   A    
C17   H2    S    
N5    H14   S    
C10   C22   A    
Cu2   O2    S    
C8    H5    S    
C16   Cl2   S    
N5    H13   S    
N6    H16   S    
C4    C5    A    
