data_mof_unit_41573.cif
_audit_creation_date              2013-03-05T15:48:31-0500
_audit_creation_method            fapswitch 2.2
_symmetry_space_group_name_H-M    P1
_symmetry_Int_Tables_number       1
_space_group_crystal_system       triclinic
_cell_length_a                    20.004751
_cell_length_b                    7.121675
_cell_length_c                    13.853466
_cell_angle_alpha                 89.99747
_cell_angle_beta                  103.718117
_cell_angle_gamma                 90.001921
_cell_volume                      1917.36593396

loop_
_atom_site_label
_atom_site_type_symbol
_atom_site_description
_atom_site_fract_x
_atom_site_fract_y
_atom_site_fract_z
_atom_type_partial_charge
O1    O     O_R   0.449830 0.506740 0.599960 -0.589464
O2    O     O_R   0.550170 0.006740 0.400040 -0.589471
O3    O     O_R   0.588980 0.179860 0.596720 -0.601464
O4    O     O_R   0.411020 0.679860 0.403280 -0.601449
C1    C     C_R   0.616985 0.344043 0.617081 0.877566
C2    C     C_R   0.383023 0.844047 0.382897 0.877601
O5    O     O_R   0.452740 0.177340 0.612040 -0.595775
O6    O     O_R   0.547260 0.677340 0.387960 -0.595776
O7    O     O_R   0.412960 0.002070 0.415460 -0.598168
O8    O     O_R   0.587040 0.502070 0.584540 -0.598174
C3    C     C_R   0.436071 0.347028 0.636759 0.923583
C4    C     C_R   0.563934 0.847035 0.363247 0.923530
O9    O     O_3   0.487110 0.337570 0.435490 -0.282878
O10   O     O_3   0.512890 0.837570 0.564510 -0.282879
V1    V     V_3+5 0.502390 0.064650 0.511970 1.157046
V2    V     V_3+5 0.497610 0.564650 0.488030 1.157044
C5    C     C_R   0.612670 0.034944 0.139970 -0.131613
C6    C     C_R   0.387340 0.534991 0.860013 -0.131685
H1    H     H_    0.518625 0.008768 0.186450 0.112774
H2    H     H_    0.481376 0.508901 0.813507 0.112826
H3    H     H_    0.693152 0.100646 0.021717 0.158709
H4    H     H_    0.306876 0.600645 0.978284 0.158700
H5    H     H_    0.588083 0.111668 0.073416 0.118680
H6    H     H_    0.411921 0.611788 0.926537 0.118685
C7    C     C_R   0.602663 0.868822 0.287552 -0.094778
C8    C     C_R   0.397354 0.368798 0.712467 -0.094829
C9    C     C_R   0.929996 0.792283 0.306422 -0.240886
C10   C     C_R   0.070020 0.292267 0.693605 -0.240894
C11   C     C_R   0.896339 0.771398 0.383277 0.487649
C12   C     C_R   0.103683 0.271313 0.616765 0.487638
C13   C     C_R   0.825680 0.808285 0.364312 -0.298247
C14   C     C_R   0.174345 0.308161 0.635739 -0.298246
C15   C     C_R   0.787777 0.865121 0.269267 0.035962
C16   C     C_R   0.212246 0.365024 0.730777 0.035953
C17   C     C_R   0.822713 0.889412 0.191050 -0.048934
C18   C     C_R   0.177305 0.389368 0.808985 -0.048930
C19   C     C_R   0.715376 0.896894 0.249131 0.118405
C20   C     C_R   0.284646 0.396804 0.750907 0.118412
C21   C     C_R   0.683206 0.995213 0.161668 0.141808
C22   C     C_R   0.316811 0.495180 0.838344 0.141814
C23   C     C_R   0.720034 0.037847 0.091585 -0.315142
C24   C     C_R   0.279989 0.537814 0.908429 -0.315209
C25   C     C_R   0.783198 0.950929 0.096477 0.299197
C26   C     C_R   0.216822 0.450911 0.903553 0.299098
C27   C     C_R   0.673463 0.831926 0.311317 -0.243220
C28   C     C_R   0.326560 0.331819 0.688731 -0.243228
C29   C     C_R   0.572771 0.972448 0.202702 -0.165250
C30   C     C_R   0.427238 0.472506 0.797283 -0.165226
C31   C     C_R   0.894791 0.851950 0.211750 -0.233810
C32   C     C_R   0.105221 0.351958 0.788270 -0.233775
H7    H     H_    0.694276 0.753757 0.378517 0.110115
H8    H     H_    0.305750 0.253591 0.621555 0.110132
H9    H     H_    0.984691 0.763610 0.320418 0.157373
H10   H     H_    0.015322 0.263619 0.679603 0.157364
H11   H     H_    0.801496 0.797741 0.425846 0.157282
H12   H     H_    0.198534 0.297572 0.574212 0.157277
C33   C     C_3   0.219938 0.660996 0.193374 -0.250733
C34   C     C_3   0.780204 0.160723 0.806221 -0.251330
H13   H     H_    0.185910 0.548525 0.210549 0.192288
H14   H     H_    0.814334 0.048598 0.788974 0.191990
H15   H     H_    0.228841 0.637160 0.118544 0.202543
H16   H     H_    0.771228 0.136329 0.880957 0.203125
C35   C     C_3   0.290146 0.652388 0.268841 -0.359220
C36   C     C_3   0.710051 0.152126 0.730630 -0.359583
H17   H     H_    0.329568 0.598463 0.230975 0.172862
H18   H     H_    0.670659 0.097266 0.768279 0.173124
H19   H     H_    0.286995 0.550757 0.328717 0.163266
H20   H     H_    0.713358 0.051256 0.670508 0.163204
H21   H     H_    0.151056 0.796514 0.328246 0.169449
H22   H     H_    0.848927 0.297750 0.671565 0.169595
H23   H     H_    0.258424 0.816178 0.435695 0.149510
H24   H     H_    0.741562 0.318102 0.564122 0.149458
C37   C     C_3   0.182571 0.903946 0.300992 -0.320660
C38   C     C_3   0.817404 0.404821 0.699055 -0.320484
C39   C     C_3   0.234563 0.000771 0.161591 -0.221466
C40   C     C_3   0.765364 0.500149 0.838623 -0.221628
C41   C     C_3   0.186035 0.856485 0.192840 -0.044655
C42   C     C_3   0.813980 0.356469 0.807124 -0.044324
H25   H     H_    0.214025 0.143343 0.169723 0.226517
H26   H     H_    0.785777 0.642888 0.830554 0.226831
H27   H     H_    0.235521 0.977593 0.082470 0.169924
H28   H     H_    0.764488 0.476660 0.917751 0.169605
C43   C     C_3   0.311370 0.849406 0.314439 0.062107
C44   C     C_3   0.688645 0.349392 0.685522 0.062588
C45   C     C_3   0.256300 0.910375 0.370939 -0.336554
C46   C     C_3   0.743656 0.411493 0.629166 -0.336712
C47   C     C_3   0.308641 0.988422 0.227708 -0.361158
C48   C     C_3   0.691267 0.487507 0.772589 -0.361772
H29   H     H_    0.344495 0.941474 0.182150 0.147100
H30   H     H_    0.655533 0.439555 0.818108 0.147005
H31   H     H_    0.325515 0.130709 0.256879 0.181986
H32   H     H_    0.674179 0.629855 0.743785 0.182159
H33   H     H_    0.156928 0.042006 0.302900 0.194100
H34   H     H_    0.843015 0.543001 0.697400 0.193986
H35   H     H_    0.267527 0.055282 0.400455 0.154651
H36   H     H_    0.732344 0.556656 0.600104 0.154733
O11   O     O_R   0.912980 0.203550 0.915410 -0.566353
O12   O     O_R   0.087020 0.703550 0.084590 -0.566342
O13   O     O_R   0.047270 0.535570 0.887960 -0.584565
O14   O     O_R   0.952730 0.035570 0.112040 -0.584561
C49   C     C_R   0.064060 0.367304 0.862417 1.053249
C50   C     C_R   0.935944 0.867298 0.137588 1.053232
O15   O     O_R   0.911030 0.532970 0.903270 -0.573924
O16   O     O_R   0.088970 0.032970 0.096730 -0.573957
O17   O     O_R   0.949820 0.708150 0.099970 -0.584544
O18   O     O_R   0.050180 0.208150 0.900030 -0.584583
C51   C     C_R   0.884646 0.364213 0.879493 0.855372
C52   C     C_R   0.115361 0.864218 0.120490 0.855370
O19   O     O_3   0.012900 0.375230 0.064480 -0.261412
O20   O     O_3   0.987100 0.875230 0.935520 -0.261431
V3    V     V_3+5 0.997610 0.648190 0.988040 1.258182
V4    V     V_3+5 0.002390 0.148190 0.011960 1.258158
N1    N     N_R   0.934039 0.713706 0.480794 0.251421
O21   O     O_R   0.999816 0.680393 0.498582 -0.371441
O22   O     O_R   0.903033 0.693996 0.552826 -0.438894
N2    N     N_R   0.065988 0.213586 0.519257 0.251419
O23   O     O_R   0.000212 0.180252 0.501471 -0.371468
O24   O     O_R   0.096997 0.193875 0.447229 -0.438900
N3    N     N_R   0.789336 0.866842 0.004680 0.195615
O25   O     O_R   0.732895 0.812661 0.943096 -0.491929
O26   O     O_R   0.843754 0.887769 0.970310 -0.448791
N4    N     N_R   0.210672 0.366937 0.995377 0.195586
O27   O     O_R   0.267110 0.312942 0.057031 -0.491932
O28   O     O_R   0.156229 0.387821 0.029689 -0.448823

loop_
_geom_bond_atom_site_label_1
_geom_bond_atom_site_label_2
_geom_bond_distance
_ccdc_geom_bond_type
C34   H16   1.105675 S    
C43   C47   1.547763 S    
C35   H17   1.113928 S    
C47   H31   1.113276 S    
C9    C11   1.396080 A    
C38   H34   1.112181 S    
O1    C3    1.302250 A    
C37   H33   1.112211 S    
O2    C4    1.302255 A    
C2    O7    1.304041 A    
O3    V1    2.021787 S    
C21   C23   1.384484 A    
C12   N2    1.441973 S    
O5    C3    1.320253 A    
C5    H5    1.084184 S    
C6    H6    1.084136 S    
C36   H20   1.113693 S    
C40   C42   1.544242 S    
O19   V3    2.200013 S    
H1    C29   1.084068 S    
C33   H13   1.112812 S    
C27   H7    1.079844 S    
C34   H14   1.112789 S    
C28   H8    1.079825 S    
O12   C52   1.320724 A    
N2    O23   1.301802 A    
C50   O17   1.304578 A    
O15   V3    2.021776 S    
C5    C21   1.400128 A    
C6    C22   1.400105 A    
O20   V3    1.765030 S    
C36   C44   1.555820 S    
C14   C16   1.413814 A    
H23   C45   1.112875 S    
C10   C32   1.399471 A    
C48   H32   1.113132 S    
H22   C38   1.112705 S    
C13   C15   1.413835 A    
H21   C37   1.112748 S    
O12   V3    2.002242 S    
C12   C14   1.399962 A    
C17   C25   1.429027 A    
C40   C48   1.548876 S    
C8    C30   1.396567 A    
O5    V1    2.050775 S    
O17   V3    2.050351 S    
O6    V2    2.050703 S    
C23   C25   1.394222 A    
C34   C42   1.547888 S    
C24   C26   1.394222 A    
C33   C35   1.540442 S    
N3    O26   1.296097 A    
C34   C36   1.540411 S    
C35   H19   1.113835 S    
C33   C41   1.547889 S    
O4    C2    1.298328 A    
O19   V4    1.765076 S    
C40   H28   1.113117 S    
C31   C50   1.465055 S    
O16   V4    2.021783 S    
C1    C44   1.520137 S    
C10   H10   1.084375 S    
C39   H27   1.113125 S    
O18   V4    2.050309 S    
C3    C8    1.452326 S    
C15   C19   1.426592 A    
C35   C43   1.555893 S    
C42   C51   1.527873 S    
C36   H18   1.113793 S    
O4    V2    2.021792 S    
C17   C31   1.427017 A    
O6    C4    1.320257 A    
O13   V3    2.050820 S    
O14   C50   1.315465 A    
O1    V2    2.047189 S    
C38   C46   1.561653 S    
O2    V1    2.047230 S    
C39   C41   1.544318 S    
C37   C45   1.561612 S    
H2    C30   1.084054 S    
C46   H36   1.113028 S    
H3    C23   1.085893 S    
C39   C47   1.548871 S    
O13   C49   1.315472 A    
C48   H30   1.113123 S    
O14   V4    2.050747 S    
C47   H29   1.113255 S    
C18   C26   1.429066 A    
C40   H26   1.110957 S    
C19   C27   1.414839 A    
C7    C27   1.400823 A    
O16   C52   1.322487 A    
C18   C32   1.427041 A    
N1    O21   1.301801 A    
C49   O18   1.304551 A    
O11   V4    2.002244 S    
C11   N1    1.442003 S    
C7    C29   1.396608 A    
C2    C43   1.520119 S    
C43   C45   1.556877 S    
C16   C20   1.426575 A    
C41   C52   1.527876 S    
C5    C29   1.385407 A    
C44   C46   1.556798 S    
C22   C24   1.384468 A    
O3    C1    1.298318 A    
C6    C30   1.385385 A    
H24   C46   1.112749 S    
N3    O25   1.301816 A    
C9    H9    1.084376 S    
C33   H15   1.105785 S    
C4    C7    1.452329 S    
C10   C12   1.396045 A    
O7    V1    2.013040 S    
C1    O8    1.304054 A    
C11   C13   1.399976 A    
O8    V2    2.013043 S    
C20   C22   1.415103 A    
C45   H35   1.113149 S    
H4    C24   1.085895 S    
C44   C48   1.547645 S    
C39   H25   1.111037 S    
C26   N4    1.437042 S    
C15   C17   1.432368 A    
N2    O24   1.301449 A    
C16   C18   1.432382 A    
O20   V4    2.200078 S    
C20   C28   1.414834 A    
C8    C28   1.400803 A    
O11   C51   1.320703 A    
C32   C49   1.465014 S    
C19   C21   1.415156 A    
C38   C42   1.553465 S    
O9    V2    1.765438 S    
C37   C41   1.553449 S    
O10   V1    1.765392 S    
O15   C51   1.322502 A    
C13   H11   1.077972 S    
N4    O27   1.301813 A    
N4    O28   1.296080 A    
C14   H12   1.077959 S    
C9    C31   1.399496 A    
C25   N3    1.437022 S    
N1    O22   1.301457 A    
