data_mof_unit_44122.cif
_audit_creation_date              2012-12-10T18:33:40-0500
_audit_creation_method            fapswitch 2.2
_symmetry_space_group_name_H-M    P1
_symmetry_Int_Tables_number       1
_space_group_crystal_system       triclinic
_cell_length_a                    10.582378
_cell_length_b                    14.997769
_cell_length_c                    15.537363
_cell_angle_alpha                 82.123114
_cell_angle_beta                  90.201672
_cell_angle_gamma                 104.24299
_cell_volume                      2366.44259305

loop_
_atom_site_label
_atom_site_type_symbol
_atom_type_description
_atom_site_fract_x
_atom_site_fract_y
_atom_site_fract_z
_atom_type_partial_charge
C1    C     C_R   0.483981 0.441908 0.662009 0.936561
C2    C     C_R   0.520549 0.558108 0.337974 0.934902
C3    C     C_R   0.531741 0.472698 0.810891 -0.201912
C4    C     C_R   0.532685 0.526382 0.188691 -0.221018
C5    C     C_R   0.546947 0.445419 0.898933 0.103578
C6    C     C_R   0.579570 0.550278 0.102896 0.089927
C7    C     C_R   0.511785 0.349309 0.931235 0.158667
C8    C     C_R   0.633365 0.645310 0.071586 0.156698
C9    C     C_R   0.587037 0.511891 0.956374 0.054155
C10   C     C_R   0.567874 0.482241 0.046629 0.062377
C11   C     C_R   0.537811 0.385792 0.077491 -0.179078
C12   C     C_R   0.644280 0.606902 0.926727 -0.189917
C13   C     C_R   0.512918 0.320477 0.020250 -0.190819
C14   C     C_R   0.669350 0.672194 0.983990 -0.190828
C15   C     C_R   0.668139 0.839438 0.650420 -0.189991
C16   C     C_R   0.334862 0.162096 0.347513 -0.199572
C17   C     C_R   0.656996 0.754812 0.619363 0.117283
C18   C     C_R   0.348861 0.247540 0.377293 0.094458
C19   C     C_R   0.517279 0.795652 0.509297 -0.094944
C20   C     C_R   0.478412 0.202830 0.492415 -0.093676
C21   C     C_R   0.540759 0.886236 0.532445 -0.010732
C22   C     C_R   0.454729 0.112316 0.468754 -0.006415
C23   C     C_R   0.741782 0.499811 0.501132 0.979218
C24   C     C_R   0.258258 0.500237 0.498721 0.985280
C25   C     C_R   0.599664 0.902093 0.612272 0.051809
C26   C     C_R   0.397909 0.097260 0.388063 0.053476
C27   C     C_R   0.504193 0.960381 0.480635 0.016743
C28   C     C_R   0.489948 0.037578 0.520767 0.013928
C29   C     C_R   0.508947 0.035892 0.611623 -0.010264
C30   C     C_R   0.485181 0.961832 0.389841 -0.008738
C31   C     C_R   0.584793 0.978170 0.652549 -0.035810
C32   C     C_R   0.410556 0.020155 0.348606 -0.044750
C33   C     C_3   0.930710 0.415044 0.486892 -0.002336
C34   C     C_3   0.069396 0.585015 0.512750 -0.000331
C35   C     C_3   0.021415 0.435942 0.563331 -0.030548
C36   C     C_3   0.978669 0.564090 0.436326 -0.027472
C37   C     C_3   0.123955 0.501196 0.498831 -0.099384
C38   C     C_3   0.876118 0.498871 0.500837 -0.096889
C39   C     C_3   0.033965 0.481076 0.422533 -0.088774
C40   C     C_3   0.966154 0.519004 0.577137 -0.086788
C41   C     C_R   0.490155 0.407551 0.754242 -0.016988
C42   C     C_R   0.550716 0.592134 0.245830 -0.022831
C43   C     C_R   0.472636 0.283494 0.874136 -0.187607
C44   C     C_R   0.649013 0.712176 0.128327 -0.187497
C45   C     C_R   0.462079 0.312540 0.785785 -0.170133
C46   C     C_R   0.609119 0.685560 0.215577 -0.138497
H1    H     H_    0.539044 0.221640 0.546501 0.135633
H2    H     H_    0.454599 0.775952 0.456386 0.137222
H3    H     H_    0.729338 0.855189 0.704867 0.229283
H4    H     H_    0.275603 0.147386 0.292009 0.231945
H5    H     H_    0.489145 0.247208 0.046027 0.185288
H6    H     H_    0.713042 0.744358 0.959075 0.179676
H7    H     H_    0.479489 0.456211 0.211901 0.176362
H8    H     H_    0.546777 0.545231 0.785923 0.150119
H9    H     H_    0.625117 0.737343 0.259268 0.164794
H10   H     H_    0.430318 0.261193 0.742574 0.159820
H11   H     H_    0.448071 0.209877 0.898207 0.143765
H12   H     H_    0.692885 0.784612 0.105120 0.145484
H13   H     H_    0.536192 0.358987 0.145717 0.164148
H14   H     H_    0.674071 0.632202 0.859753 0.196558
N1    N     N_R   0.574200 0.731700 0.552740 -0.141185
N2    N     N_R   0.425800 0.268300 0.447260 -0.139886
O1    O     O_R   0.462600 0.383110 0.605620 -0.604116
O2    O     O_R   0.537400 0.616890 0.394380 -0.608183
O3    O     O_R   0.510210 0.531900 0.639510 -0.661166
O4    O     O_R   0.489790 0.468100 0.360490 -0.657567
O5    O     O_R   0.662240 0.425610 0.483080 -0.643289
O6    O     O_R   0.337760 0.574390 0.516920 -0.640657
O7    O     O_R   0.709860 0.574400 0.516970 -0.630254
O8    O     O_R   0.290140 0.425600 0.483030 -0.632201
Zn1   Zn    Zn3+2 0.468210 0.400660 0.477370 0.948893
Zn2   Zn    Zn3+2 0.531790 0.599340 0.522630 0.948700
C47   C     C_2   0.042460 0.365461 0.636887 0.381477
H15   H     H_    0.959287 0.322347 0.675870 0.094317
O9    O     O_2   0.151657 0.356197 0.653407 -0.585119
C48   C     C_2   0.957797 0.634639 0.362795 0.381180
H16   H     H_    0.040911 0.677314 0.323483 0.094713
O10   O     O_2   0.848790 0.644513 0.346725 -0.590821
C49   C     C_2   0.282675 0.314240 0.328444 0.346589
H17   H     H_    0.275957 0.376345 0.351972 0.163960
O11   O     O_2   0.232555 0.299903 0.259052 -0.583393
C50   C     C_2   0.733304 0.691825 0.662858 0.313667
H18   H     H_    0.718784 0.621841 0.650827 0.173119
O12   O     O_2   0.816455 0.718423 0.714711 -0.622968
C51   C     C_3   0.429493 0.079629 0.668289 -0.449971
C52   C     C_3   0.330983 0.004991 0.728828 -0.317640
C53   C     C_3   0.245380 0.048223 0.780769 -0.837874
H19   H     H_    0.306207 0.094481 0.823062 0.257935
H20   H     H_    0.190754 0.088792 0.736422 0.267064
H21   H     H_    0.174106 0.992447 0.822481 0.262990
H22   H     H_    0.267027 0.956833 0.689383 0.229359
H23   H     H_    0.381612 0.963718 0.775307 0.256979
H24   H     H_    0.495924 0.127585 0.706619 0.183948
H25   H     H_    0.369534 0.119893 0.629274 0.224272
C54   C     C_3   0.564567 0.918208 0.332927 -0.442035
C55   C     C_3   0.665418 0.993422 0.274452 -0.309475
C56   C     C_3   0.735500 0.950911 0.211459 -0.865379
H26   H     H_    0.784407 0.900192 0.247435 0.264827
H27   H     H_    0.664474 0.915711 0.166601 0.261857
H28   H     H_    0.810488 0.006554 0.172414 0.265369
H29   H     H_    0.619012 0.043896 0.235885 0.257383
H30   H     H_    0.738848 0.032303 0.315819 0.223637
H31   H     H_    0.623011 0.876187 0.371179 0.218046
H32   H     H_    0.498168 0.871607 0.293316 0.191271
C57   C     C_3   0.849021 0.318033 0.474361 -0.400558
C58   C     C_3   0.932190 0.249169 0.464841 -0.361800
C59   C     C_3   0.845487 0.152405 0.459732 -0.865307
H33   H     H_    0.788316 0.124803 0.521623 0.257515
H34   H     H_    0.777159 0.155057 0.405577 0.263276
H35   H     H_    0.906810 0.104540 0.448304 0.254513
H36   H     H_    0.995055 0.272311 0.404991 0.225470
H37   H     H_    0.996231 0.244642 0.521085 0.238763
H38   H     H_    0.781346 0.290899 0.531727 0.209549
H39   H     H_    0.790599 0.324445 0.415291 0.224114
C60   C     C_3   0.151315 0.682279 0.524270 -0.412077
C61   C     C_3   0.068266 0.750876 0.534987 -0.355903
C62   C     C_3   0.154412 0.848942 0.534185 -0.856239
H40   H     H_    0.228996 0.849395 0.584666 0.263964
H41   H     H_    0.204313 0.874691 0.469559 0.253318
H42   H     H_    0.093659 0.896519 0.547555 0.258461
H43   H     H_    0.998286 0.752097 0.481801 0.240229
H44   H     H_    0.011867 0.729706 0.597501 0.249606
H45   H     H_    0.211647 0.676548 0.582479 0.226873
H46   H     H_    0.217101 0.709145 0.465957 0.209960
C63   C     C_2   0.073116 0.464838 0.334556 0.350333
H47   H     H_    0.014597 0.408354 0.304132 0.105747
O13   O     O_2   0.167774 0.517748 0.295082 -0.590918
C64   C     C_2   0.927249 0.535176 0.665182 0.358515
H48   H     H_    0.986402 0.591231 0.695817 0.115858
O14   O     O_2   0.832322 0.482513 0.704572 -0.600254
C65   C     C_2   0.636395 0.994916 0.739780 0.353776
H49   H     H_    0.675758 0.065638 0.752513 0.074832
O15   O     O_2   0.628541 0.931216 0.799164 -0.578708
C66   C     C_2   0.359156 0.003263 0.261329 0.359055
H50   H     H_    0.315403 0.932697 0.249755 0.075080
O16   O     O_2   0.372232 0.066297 0.200771 -0.580032

loop_
_geom_bond_atom_site_label_1
_geom_bond_atom_site_label_2
_ccdc_geom_bond_type
C25   C31   A    
C32   C66   S    
C53   H19   S    
C26   C32   A    
C39   C63   S    
C55   H30   S    
C4    H7    S    
C34   C37   S    
C59   H34   S    
C47   H15   S    
C23   O7    A    
C54   C55   S    
C64   H48   S    
C56   H26   S    
C24   O8    A    
C58   H37   S    
C51   C52   S    
C33   C39   S    
C61   H44   S    
C34   C40   S    
C57   H38   S    
C28   C29   A    
C35   C37   S    
C48   O10   D    
C52   H22   S    
C62   H41   S    
C19   N1    A    
C3    H8    S    
C15   C25   A    
C58   C59   S    
C60   C61   S    
C40   C64   S    
C61   C62   S    
C17   C50   S    
C42   C46   A    
C23   O5    A    
C31   C65   S    
C36   C48   S    
C17   N1    A    
C13   H5    S    
C51   H24   S    
C14   H6    S    
C45   H10   S    
C44   C46   A    
C18   C49   S    
C54   H31   S    
C46   H9    S    
C1    O3    A    
C59   H33   S    
O8    Zn1   S    
C7    C43   A    
C9    C10   A    
C29   C51   S    
O2    Zn2   S    
C21   C27   A    
C38   C40   S    
C22   C28   A    
C55   H29   S    
C27   C30   A    
C47   O9    D    
C11   H13   S    
C1    O1    A    
C56   H27   S    
C2    O2    A    
C58   H36   S    
C16   C26   A    
C60   H45   S    
C61   H43   S    
C57   H39   S    
C33   C57   S    
C48   H16   S    
C4    C6    A    
C62   H42   S    
C44   H12   S    
C5    C7    A    
C24   O6    A    
C52   C53   S    
C18   N2    A    
C66   O16   D    
C3    C5    A    
C34   C60   S    
O7    Zn2   S    
C5    C9    A    
C30   C54   S    
C51   H25   S    
O4    Zn1   S    
O6    Zn2   S    
C55   C56   S    
C24   C37   S    
C16   C18   A    
C43   C45   A    
O1    Zn1   S    
N1    Zn2   S    
C1    C41   S    
C12   C14   A    
C50   O12   D    
C53   H20   S    
C63   H47   S    
C59   H35   S    
C65   H49   S    
O3    Zn2   S    
C56   H28   S    
C54   H32   S    
C49   O11   D    
C15   C17   A    
C21   C25   A    
C35   C47   S    
C8    C14   A    
C60   H46   S    
C19   C21   A    
C19   H2    S    
C36   C39   S    
C8    C44   A    
C20   C22   A    
C65   O15   D    
C64   O14   D    
C6    C10   A    
C6    C8    A    
C2    O4    A    
C66   H50   S    
C23   C38   S    
C57   C58   S    
C33   C38   S    
C36   C38   S    
C35   C40   S    
C37   C39   S    
C52   H23   S    
C62   H40   S    
C30   C32   A    
C11   C13   A    
C4    C42   A    
C2    C42   S    
C33   C35   S    
C34   C36   S    
N2    Zn1   S    
O5    Zn1   S    
C15   H3    S    
C20   N2    A    
C16   H4    S    
C9    C12   A    
C20   H1    S    
C3    C41   A    
C10   C11   A    
C43   H11   S    
C49   H17   S    
C12   H14   S    
C7    C13   A    
C29   C31   A    
C50   H18   S    
C22   C26   A    
C53   H21   S    
C27   C28   A    
C63   O13   D    
C41   C45   A    
