data_mof_unit_43398.cif
_audit_creation_date              2012-12-10T17:36:48-0500
_audit_creation_method            fapswitch 2.2
_symmetry_space_group_name_H-M    P1
_symmetry_Int_Tables_number       1
_space_group_crystal_system       triclinic
_cell_length_a                    10.60559
_cell_length_b                    12.325884
_cell_length_c                    13.320363
_cell_angle_alpha                 116.849048
_cell_angle_beta                  77.230817
_cell_angle_gamma                 101.593341
_cell_volume                      1504.87797562

loop_
_atom_site_label
_atom_site_type_symbol
_atom_type_description
_atom_site_fract_x
_atom_site_fract_y
_atom_site_fract_z
_atom_type_partial_charge
C1    C     C_R   0.504774 0.854209 0.287790 0.778625
C2    C     C_3   0.012526 0.908704 0.524819 -0.130666
C3    C     C_3   0.954766 0.891834 0.421150 -0.172780
C4    C     C_3   0.877600 0.000143 0.499572 0.023944
C5    C     C_R   0.450360 0.266950 0.034334 -0.239582
C6    C     C_R   0.465782 0.226542 0.836001 -0.151653
C7    C     C_R   0.530600 0.814565 0.085087 -0.194412
C8    C     C_R   0.538040 0.735631 0.970133 -0.138488
C9    C     C_R   0.508903 0.610018 0.935631 -0.168365
C10   C     C_R   0.463712 0.560728 0.016221 0.080446
C11   C     C_R   0.448423 0.641259 0.133677 0.086243
C12   C     C_R   0.740504 0.999827 0.499641 0.781956
C13   C     C_R   0.444748 0.432378 0.983550 0.028235
C14   C     C_R   0.433646 0.388511 0.066719 0.135033
C15   C     C_R   0.400277 0.466011 0.180482 -0.224410
C16   C     C_R   0.395211 0.588833 0.211659 -0.202008
C17   C     C_R   0.435776 0.345768 0.871574 -0.086929
C18   C     C_R   0.476316 0.188064 0.919156 -0.038217
C19   C     C_R   0.490766 0.769209 0.168123 -0.111181
C20   C     C_R   0.710031 0.348168 0.331186 -0.304966
C21   C     C_R   0.320308 0.756936 0.641143 0.091499
C22   C     C_R   0.275330 0.655829 0.665017 -0.247645
C23   C     C_R   0.482134 0.144997 0.713352 0.803707
C24   C     C_R   0.340012 0.551578 0.607992 -0.190779
C25   C     C_R   0.453103 0.548097 0.528388 -0.016083
C26   C     C_R   0.493069 0.652508 0.503983 0.283640
C27   C     C_R   0.526781 0.444872 0.471172 -0.041996
C28   C     C_R   0.635622 0.446812 0.388047 0.173907
C29   C     C_R   0.670075 0.547344 0.362377 -0.281624
C30   C     C_R   0.600816 0.647909 0.419278 -0.182254
C31   C     C_R   0.499112 0.339915 0.493801 0.019283
C32   C     C_R   0.678043 0.248342 0.357873 0.066118
C33   C     C_R   0.259463 0.000151 0.500383 0.780150
C34   C     C_3   0.987390 0.090918 0.475044 -0.135535
C35   C     C_3   0.066833 0.982521 0.396653 -0.170078
C36   C     C_3   0.122314 0.999532 0.500306 0.022152
C37   C     C_3   0.045089 0.107773 0.578723 -0.172391
C38   C     C_3   0.933056 0.017082 0.603206 -0.162978
Cu1   Cu    Cu3+1 0.529830 0.098270 0.475420 0.940844
Cu2   Cu    Cu3+1 0.470170 0.901730 0.524580 0.928767
H1    H     H_    0.124830 0.968368 0.312267 0.132426
H2    H     H_    0.560903 0.911202 0.108739 0.162864
H3    H     H_    0.527997 0.552297 0.845471 0.148441
H4    H     H_    0.572768 0.771532 0.907044 0.170570
H5    H     H_    0.350201 0.639664 0.297453 0.187157
H6    H     H_    0.735469 0.172178 0.314613 0.123645
H7    H     H_    0.752515 0.548931 0.298047 0.150164
H8    H     H_    0.793040 0.348711 0.267079 0.138657
H9    H     H_    0.418626 0.330912 0.555641 0.147846
H10   H     H_    0.268670 0.836994 0.684526 0.127353
H11   H     H_    0.974545 0.165572 0.454591 0.139962
H12   H     H_    0.297820 0.474052 0.625454 0.170072
H13   H     H_    0.188989 0.657525 0.726592 0.150887
H14   H     H_    0.635044 0.719739 0.393039 0.206296
H15   H     H_    0.085144 0.196024 0.643109 0.154007
H16   H     H_    0.875036 0.031194 0.687580 0.139229
H17   H     H_    0.025417 0.834048 0.545251 0.138962
H18   H     H_    0.914423 0.803563 0.356896 0.123481
H19   H     H_    0.374634 0.431192 0.244855 0.150472
H20   H     H_    0.447809 0.235050 0.098623 0.142961
N1    N     N_R   0.575030 0.246270 0.438190 -0.182131
N2    N     N_R   0.425760 0.754330 0.561190 -0.207956
O1    O     O_R   0.537510 0.972500 0.318130 -0.582895
O2    O     O_R   0.487140 0.806530 0.359650 -0.614860
O3    O     O_R   0.708330 0.082950 0.479220 -0.586767
O4    O     O_R   0.657960 0.916980 0.520740 -0.593176
O5    O     O_R   0.512860 0.193470 0.640350 -0.572314
O6    O     O_R   0.462490 0.027500 0.681870 -0.574574
O7    O     O_R   0.342040 0.083020 0.479260 -0.582369
O8    O     O_R   0.291670 0.917050 0.520780 -0.603615
C39   C     C_1   0.355873 0.366750 0.808414 0.239658
N3    N     N_1   0.288864 0.382873 0.760059 -0.354978
C40   C     C_1   0.508876 0.068020 0.890077 0.261576
N4    N     N_1   0.535019 0.971900 0.866865 -0.310581

loop_
_geom_bond_atom_site_label_1
_geom_bond_atom_site_label_2
_ccdc_geom_bond_type
C24   H12   S    
C34   C37   S    
C40   N4    T    
C31   N1    A    
C35   C36   S    
C2    H17   S    
C7    C8    A    
C30   H14   S    
C11   C19   A    
C34   H11   S    
C29   C30   A    
Cu2   O8    S    
C29   H7    S    
C36   C37   S    
C32   N1    A    
C15   C16   A    
C33   C36   S    
Cu2   N2    S    
C34   C35   S    
C7    H2    S    
C23   O5    A    
Cu1   O5    S    
C8    C9    A    
C4    C12   S    
C9    C10   A    
C33   O7    A    
Cu2   O4    S    
C21   C22   A    
Cu1   O3    S    
C15   H19   S    
C31   H9    S    
Cu1   N1    S    
C1    O1    A    
C21   H10   S    
C22   H13   S    
C6    C18   A    
C4    C34   S    
C9    H3    S    
C1    C19   S    
C27   C31   A    
C24   C25   A    
Cu1   Cu2   S    
C5    C18   A    
C20   C28   A    
C25   C26   A    
C12   O4    A    
C23   O6    A    
C37   C38   S    
C11   C16   A    
C2    C38   S    
C3    C35   S    
Cu1   O7    S    
C5    C14   A    
C20   H8    S    
C33   O8    A    
C4    C38   S    
C17   C39   S    
C18   C40   S    
C7    C19   A    
C22   C24   A    
C3    C4    S    
C1    O2    A    
C20   C32   A    
C2    C36   S    
C6    C17   A    
C28   C29   A    
C5    H20   S    
C32   H6    S    
C8    H4    S    
C10   C13   A    
C16   H5    S    
C26   C30   A    
C25   C27   A    
Cu1   O1    S    
C12   O3    A    
Cu2   O2    S    
C13   C17   A    
C2    C3    S    
C26   N2    A    
C39   N3    T    
C6    C23   S    
C35   H1    S    
C10   C11   A    
C37   H15   S    
C3    H18   S    
C38   H16   S    
Cu2   O6    S    
C27   C28   A    
C14   C15   A    
C21   N2    A    
C13   C14   A    
