data_mof_unit_56231.cif
_audit_creation_date              2012-12-10T17:16:34-0500
_audit_creation_method            fapswitch 2.2
_symmetry_space_group_name_H-M    P1
_symmetry_Int_Tables_number       1
_space_group_crystal_system       triclinic
_cell_length_a                    10.014502
_cell_length_b                    10.639334
_cell_length_c                    10.751273
_cell_angle_alpha                 89.113108
_cell_angle_beta                  95.106657
_cell_angle_gamma                 83.651489
_cell_volume                      1133.60794466

loop_
_atom_site_label
_atom_site_type_symbol
_atom_type_description
_atom_site_fract_x
_atom_site_fract_y
_atom_site_fract_z
_atom_type_partial_charge
C1    C     C_R   0.443246 0.510621 0.266209 0.907179
C2    C     C_R   0.496090 0.739495 0.476164 0.896914
C3    C     C_R   0.645593 0.125700 0.278909 0.207470
C4    C     C_R   0.231869 0.886140 0.403269 0.200669
C5    C     C_R   0.755028 0.057731 0.226432 0.178700
C6    C     C_R   0.114060 0.942940 0.450918 0.186662
C7    C     C_R   0.778436 0.927857 0.245967 -0.191033
C8    C     C_R   0.107373 0.071690 0.472378 -0.272841
C9    C     C_R   0.687438 0.862651 0.303999 0.099159
C10   C     C_R   0.215258 0.139337 0.449812 0.068475
C11   C     C_R   0.584760 0.929915 0.369720 -0.003949
C12   C     C_R   0.556651 0.494373 0.733156 0.875694
C13   C     C_R   0.346294 0.075466 0.437374 0.036242
C14   C     C_R   0.571760 0.064560 0.364758 -0.028258
C15   C     C_R   0.353713 0.943452 0.424009 -0.005511
C16   C     C_R   0.481708 0.871601 0.423875 -0.196886
C17   C     C_R   0.467957 0.133713 0.427625 -0.177638
C18   C     C_3   0.490398 0.211059 0.110141 -0.811037
C19   C     C_3   0.235865 0.833656 0.187107 -0.826569
C20   C     C_3   0.932493 0.177498 0.169696 -0.837898
C21   C     C_3   0.909611 0.915388 0.556965 -0.790476
C22   C     C_3   0.823860 0.511879 0.940056 -0.794467
C23   C     C_2   0.409720 0.530997 0.132153 0.055330
C24   C     C_3   0.198945 0.425701 0.115625 -0.803954
C25   C     C_2   0.590908 0.502886 0.865947 0.042179
C26   C     C_2   0.511539 0.556049 0.065585 -0.247202
C27   C     C_2   0.499218 0.566531 0.931497 -0.190035
C28   C     C_2   0.060920 0.530443 0.468954 -0.244844
C29   C     C_2   0.921296 0.523078 0.504071 -0.150838
C30   C     C_R   0.490057 0.261850 0.477419 0.926551
H1    H     H_    0.012543 0.124159 0.490401 0.169656
H2    H     H_    0.452746 0.298473 0.055444 0.265705
H3    H     H_    0.403271 0.168738 0.143970 0.246707
H4    H     H_    0.541124 0.144830 0.045522 0.244381
H5    H     H_    0.145401 0.735264 0.316702 0.234151
H6    H     H_    0.217391 0.758328 0.120182 0.252877
H7    H     H_    0.338555 0.860859 0.178077 0.250881
H8    H     H_    0.159489 0.915967 0.161407 0.234055
H9    H     H_    0.837726 0.053583 0.056127 0.223188
H10   H     H_    0.014735 0.109047 0.215014 0.252012
H11   H     H_    0.902571 0.251700 0.235538 0.232802
H12   H     H_    0.854710 0.874798 0.196061 0.153628
H13   H     H_    0.969997 0.223264 0.088170 0.244271
H14   H     H_    0.021180 0.778412 0.464648 0.227641
H15   H     H_    0.836907 0.844869 0.566395 0.239246
H16   H     H_    0.849640 0.006785 0.528188 0.250074
H17   H     H_    0.967343 0.923347 0.649135 0.236105
H18   H     H_    0.580600 0.717057 0.252717 0.191994
H19   H     H_    0.745773 0.673117 0.318240 0.239111
H20   H     H_    0.110386 0.281529 0.345849 0.158707
H21   H     H_    0.136597 0.304809 0.501209 0.216151
H22   H     H_    0.739538 0.351389 0.883015 0.233228
H23   H     H_    0.408929 0.618942 0.884863 0.149580
H24   H     H_    0.911352 0.455400 0.992241 0.235992
H25   H     H_    0.796337 0.597721 0.993876 0.248784
H26   H     H_    0.853734 0.540603 0.847548 0.238199
H27   H     H_    0.247579 0.560564 0.987097 0.226886
H28   H     H_    0.173699 0.366355 0.034670 0.228381
H29   H     H_    0.103920 0.468517 0.150786 0.234277
H30   H     H_    0.255979 0.362943 0.189968 0.261345
H31   H     H_    0.613201 0.555005 0.109942 0.206653
H32   H     H_    0.884797 0.581405 0.578559 0.176580
H33   H     H_    0.084502 0.506454 0.375264 0.184356
H34   H     H_    0.879120 0.398340 0.375998 0.150957
H35   H     H_    0.130743 0.568155 0.640358 0.173338
H36   H     H_    0.652011 0.296927 0.188659 0.272072
N1    N     N_2   0.157300 0.551390 0.551120 -0.193629
N2    N     N_2   0.274741 0.525496 0.076573 -0.306140
N3    N     N_2   0.842700 0.448610 0.448880 -0.204939
N4    N     N_2   0.583820 0.238001 0.214900 -0.291039
N5    N     N_2   0.224164 0.789134 0.313309 -0.274381
N6    N     N_2   0.817809 0.113290 0.128600 -0.308505
N7    N     N_2   0.000099 0.874917 0.463590 -0.304139
N8    N     N_3   0.680264 0.737196 0.261277 -0.474152
N9    N     N_3   0.181828 0.270111 0.423083 -0.409108
N10   N     N_2   0.712411 0.436219 0.924226 -0.292471
O1    O     O_R   0.568940 0.489660 0.307530 -0.658818
O2    O     O_R   0.431060 0.510340 0.692470 -0.619556
O3    O     O_R   0.348880 0.522640 0.340350 -0.586209
O4    O     O_R   0.651120 0.477360 0.659650 -0.598713
O5    O     O_R   0.610030 0.300280 0.483580 -0.606116
O6    O     O_R   0.389970 0.699720 0.516420 -0.596225
O7    O     O_R   0.389970 0.333270 0.516400 -0.582940
O8    O     O_R   0.610030 0.666730 0.483600 -0.632194
Zn1   Zn    Zn3+2 0.646940 0.477980 0.478080 0.909131
Zn2   Zn    Zn3+2 0.353060 0.522020 0.521920 0.938384

loop_
_geom_bond_atom_site_label_1
_geom_bond_atom_site_label_2
_ccdc_geom_bond_type
C18   N4    S    
C1    O1    A    
C2    O8    A    
C22   N10   S    
C20   H11   S    
C22   H24   S    
C26   C27   S    
C28   C29   S    
C26   H31   S    
H21   N9    S    
C5    N6    S    
C19   H6    S    
C20   H10   S    
C11   C14   A    
C7    H12   S    
C15   C16   A    
C21   N7    S    
C10   N9    S    
C23   C26   D    
C30   O7    A    
C19   H7    S    
C19   N5    S    
H35   N1    S    
C12   O2    A    
H9    N6    S    
C2    C16   S    
C29   N3    D    
O2    Zn2   S    
O1    Zn1   S    
C17   C30   S    
C14   C17   A    
C21   H15   S    
H18   N8    S    
C3    N4    S    
O8    Zn1   S    
C4    C6    A    
C5    C7    A    
C22   H26   S    
C3    C5    A    
O6    Zn2   S    
C23   N2    S    
O4    Zn1   S    
C19   H8    S    
C9    C11   A    
C11   C16   A    
C24   H30   S    
C28   N1    D    
H34   N3    S    
C18   H4    S    
C3    C14   A    
C24   H28   S    
C1    C23   S    
C13   C15   A    
C1    O3    A    
C2    O6    A    
C18   H2    S    
C9    N8    S    
H27   N2    S    
C20   H13   S    
N3    Zn1   S    
C6    N7    S    
C21   H16   S    
C7    C9    A    
C29   H32   S    
N1    Zn2   S    
C8    H1    S    
H22   N10   S    
C10   C13   A    
C6    C8    A    
C27   H23   S    
C22   H25   S    
C25   C27   D    
C13   C17   A    
C12   C25   S    
C25   N10   S    
C30   O5    A    
H20   N9    S    
H36   N4    S    
C4    C15   A    
C24   H29   S    
C12   O4    A    
O3    Zn2   S    
H14   N7    S    
C18   H3    S    
C24   N2    S    
H5    N5    S    
C28   H33   S    
O7    Zn2   S    
C8    C10   A    
H19   N8    S    
C20   N6    S    
C4    N5    S    
O5    Zn1   S    
C21   H17   S    
