data_mof_unit_37907.cif
_audit_creation_date              2012-12-11T16:48:27-0500
_audit_creation_method            fapswitch 2.2
_symmetry_space_group_name_H-M    P1
_symmetry_Int_Tables_number       1
_space_group_crystal_system       triclinic
_cell_length_a                    17.306903
_cell_length_b                    24.292958
_cell_length_c                    15.040717
_cell_angle_alpha                 90.111401
_cell_angle_beta                  125.727581
_cell_angle_gamma                 90.125618
_cell_volume                      5133.50782512

loop_
_atom_site_label
_atom_site_type_symbol
_atom_type_description
_atom_site_fract_x
_atom_site_fract_y
_atom_site_fract_z
_atom_type_partial_charge
C1    C     C_R   0.310453 0.375744 0.908187 -0.136103
C2    C     C_R   0.513927 0.498555 0.687295 -0.092430
C3    C     C_R   0.053412 0.845733 0.910301 0.044300
C4    C     C_R   0.312237 0.360967 0.998324 0.046842
C5    C     C_R   0.676575 0.347891 0.002310 0.038344
C6    C     C_R   0.812376 0.860676 0.998005 0.055772
C7    C     C_R   0.115303 0.814407 0.001805 0.008176
C8    C     C_R   0.062374 0.999180 0.364244 -0.093829
C9    C     C_R   0.044554 0.998943 0.718739 -0.090367
C10   C     C_R   0.192381 0.499511 0.640159 0.131250
C11   C     C_R   0.824893 0.500414 0.277318 0.107591
C12   C     C_R   0.689572 0.999660 0.642327 0.136804
C13   C     C_R   0.323457 0.999217 0.268481 0.114969
C14   C     C_2   0.978908 0.456559 0.362403 -0.109734
C15   C     C_2   0.077748 0.459289 0.459416 -0.110149
C16   C     C_2   0.478378 0.955501 0.361849 -0.106801
C17   C     C_R   0.678365 0.363691 0.091403 -0.120355
C18   C     C_2   0.576165 0.959073 0.461130 -0.118488
C19   C     C_2   0.925440 0.501992 0.323086 -0.185825
C20   C     C_2   0.107162 0.501592 0.529691 -0.189426
C21   C     C_2   0.424901 0.000641 0.317222 -0.186629
C22   C     C_2   0.603253 0.001166 0.531655 -0.191479
C23   C     C_R   0.262819 0.688614 0.103441 0.159510
C24   C     C_R   0.609612 0.765419 0.895805 0.166227
C25   C     C_R   0.892313 0.264232 0.107010 0.158649
C26   C     C_R   0.108818 0.266017 0.896467 0.160647
C27   C     C_R   0.240763 0.667238 0.004383 0.032763
C28   C     C_R   0.810615 0.875535 0.908027 -0.148408
C29   C     C_R   0.637884 0.741444 0.995109 0.029413
C30   C     C_R   0.867042 0.241128 0.007803 0.030385
C31   C     C_R   0.137383 0.241782 0.995686 0.028537
C32   C     C_R   0.152660 0.681552 0.907438 -0.191756
C33   C     C_R   0.697393 0.772368 0.091730 -0.195002
C34   C     C_R   0.804482 0.270625 0.910916 -0.196836
C35   C     C_R   0.197481 0.272486 0.092478 -0.194925
C36   C     C_R   0.747367 0.311269 0.910290 -0.198102
C37   C     C_R   0.246267 0.318356 0.091683 -0.194716
C38   C     C_R   0.101683 0.726203 0.907725 -0.190049
C39   C     C_R   0.144986 0.847172 0.091113 -0.157298
C40   C     C_R   0.745953 0.818307 0.090883 -0.198940
C41   C     C_R   0.754136 0.321857 0.006679 0.045169
C42   C     C_R   0.235407 0.332915 0.994344 0.035700
C43   C     C_R   0.138955 0.756336 0.005078 0.034840
C44   C     C_R   0.735522 0.832619 0.993711 0.034053
C45   C     C_R   0.401532 0.623233 0.091273 -0.141712
C46   C     C_R   0.557089 0.650956 0.909040 -0.143296
C47   C     C_R   0.945876 0.151169 0.091884 -0.138231
C48   C     C_R   0.056637 0.151213 0.909309 -0.145270
C49   C     C_R   0.835724 0.304160 0.106190 0.161568
C50   C     C_R   0.313307 0.638967 0.000500 0.067578
C51   C     C_R   0.157462 0.310843 0.895722 0.166873
C52   C     C_R   0.212456 0.732473 0.103722 0.171839
C53   C     C_R   0.658083 0.810290 0.895028 0.172327
C54   C     C_3   0.849520 0.282404 0.207519 -0.518888
C55   C     C_3   0.147869 0.290341 0.795594 -0.513735
C56   C     C_3   0.299486 0.757543 0.203329 -0.513074
C57   C     C_3   0.649411 0.789527 0.795564 -0.520862
C58   C     C_3   0.354664 0.709761 0.203050 -0.523515
C59   C     C_3   0.595967 0.740760 0.796187 -0.524740
C60   C     C_3   0.911415 0.238672 0.208879 -0.518139
C61   C     C_R   0.618953 0.683228 0.999085 0.075779
C62   C     C_3   0.094278 0.241632 0.796191 -0.522273
C63   C     C_R   0.575201 0.446848 0.597455 0.105145
C64   C     C_R   0.599048 0.446253 0.524730 0.194779
C65   C     C_R   0.070578 0.947008 0.598272 0.208133
C66   C     C_R   0.075658 0.947384 0.510721 0.220226
C67   C     C_R   0.559497 0.496798 0.630972 0.070148
C68   C     C_R   0.605594 0.495905 0.482153 0.081379
C69   C     C_R   0.082601 0.995841 0.654749 0.056959
C70   C     C_R   0.092166 0.996390 0.476218 0.069246
C71   C     C_R   0.592686 0.545374 0.612454 -0.196928
C72   C     C_R   0.885197 0.183385 0.002460 0.072151
C73   C     C_R   0.616302 0.544876 0.538199 -0.215907
C74   C     C_R   0.117332 0.042841 0.634020 -0.207413
C75   C     C_R   0.121892 0.043187 0.544032 -0.210855
C76   C     C_3   0.541172 0.395126 0.469417 -0.474576
C77   C     C_3   0.514919 0.396240 0.548050 -0.419627
C78   C     C_3   0.994219 0.907805 0.446027 -0.530129
C79   C     C_3   0.987957 0.907362 0.541324 -0.447478
C80   C     C_R   0.558003 0.453515 0.304696 0.658613
C81   C     C_R   0.489563 0.453407 0.722592 0.679353
C82   C     C_R   0.050466 0.953900 0.302365 0.672364
C83   C     C_R   0.118472 0.183476 0.999401 0.077218
C84   C     C_R   0.019256 0.953743 0.751667 0.690170
C85   C     C_R   0.241813 0.545240 0.700974 -0.155253
C86   C     C_R   0.767837 0.546000 0.247825 -0.147525
C87   C     C_R   0.739788 0.045499 0.703258 -0.136487
C88   C     C_R   0.267824 0.045289 0.245114 -0.145285
C89   C     C_R   0.552187 0.544490 0.304768 -0.263049
C90   C     C_R   0.501159 0.545257 0.731497 -0.237993
C91   C     C_R   0.045310 0.045307 0.301436 -0.245230
C92   C     C_R   0.016067 0.045446 0.746540 -0.246241
C93   C     C_R   0.243096 0.453626 0.699524 -0.115986
C94   C     C_R   0.573914 0.498233 0.369052 -0.078932
C95   C     C_R   0.769683 0.454504 0.258096 -0.066832
C96   C     C_R   0.741873 0.953757 0.700502 -0.144643
C97   C     C_R   0.266888 0.953199 0.245012 -0.073105
C98   C     C_R   0.310347 0.625987 0.908038 -0.118239
C99   C     C_R   0.648858 0.651930 0.090895 -0.136551
C100  C     C_R   0.852135 0.151796 0.909675 -0.119150
C101  C     C_R   0.148761 0.151964 0.091065 -0.136821
C102  C     C_R   0.402284 0.374080 0.091335 -0.116640
C103  C     C_R   0.591440 0.365778 0.909570 -0.141528
C104  C     C_R   0.902307 0.873773 0.091105 -0.123055
F1    F     F_    0.603066 0.404472 0.341989 -0.737070
F2    F     F_    0.459430 0.403418 0.675209 -0.769309
F3    F     F_    0.089390 0.903633 0.342295 -0.738692
F4    F     F_    0.043310 0.901072 0.751179 -0.761654
H1    H     H_    0.250997 0.373753 0.823440 0.109219
H2    H     H_    0.715839 0.757783 0.169747 0.126719
H3    H     H_    0.789232 0.257462 0.833417 0.127003
H4    H     H_    0.216219 0.257735 0.170521 0.127466
H5    H     H_    0.691524 0.328905 0.832530 0.131182
H6    H     H_    0.300628 0.337256 0.169183 0.126658
H7    H     H_    0.040656 0.740688 0.829930 0.126961
H8    H     H_    0.799883 0.837456 0.168303 0.128924
H9    H     H_    0.889644 0.311553 0.277680 0.187591
H10   H     H_    0.102628 0.317627 0.723783 0.193890
H11   H     H_    0.320551 0.797458 0.187003 0.201326
H12   H     H_    0.726828 0.351012 0.174407 0.104885
H13   H     H_    0.604245 0.816573 0.723317 0.195535
H14   H     H_    0.783590 0.264710 0.192758 0.204497
H15   H     H_    0.216722 0.278113 0.811297 0.203458
H16   H     H_    0.296374 0.757437 0.275093 0.195669
H17   H     H_    0.718614 0.777435 0.812042 0.199846
H18   H     H_    0.406724 0.722812 0.186407 0.202451
H19   H     H_    0.519924 0.739966 0.724645 0.194970
H20   H     H_    0.987346 0.242514 0.279885 0.191242
H21   H     H_    0.018073 0.241096 0.725072 0.193776
H22   H     H_    0.383529 0.682303 0.274913 0.193222
H23   H     H_    0.751295 0.873387 0.823283 0.113311
H24   H     H_    0.634974 0.701441 0.812720 0.200327
H25   H     H_    0.879726 0.196983 0.195974 0.205975
H26   H     H_    0.132885 0.202232 0.811929 0.200691
H27   H     H_    0.591695 0.584576 0.645863 0.132514
H28   H     H_    0.629370 0.583811 0.514319 0.133557
H29   H     H_    0.131157 0.080658 0.679341 0.140036
H30   H     H_    0.138990 0.081262 0.521748 0.138077
H31   H     H_    0.477837 0.401347 0.383748 0.186329
H32   H     H_    0.544344 0.360584 0.604934 0.220494
H33   H     H_    0.930609 0.926283 0.371144 0.184449
H34   H     H_    0.178893 0.833536 0.174361 0.126644
H35   H     H_    0.005877 0.866232 0.580813 0.246233
H36   H     H_    0.586079 0.359101 0.482113 0.237764
H37   H     H_    0.437577 0.404233 0.505090 0.241414
H38   H     H_    0.016473 0.867375 0.433365 0.246225
H39   H     H_    0.920765 0.925605 0.521748 0.186947
H40   H     H_    0.427212 0.624559 0.175891 0.115065
H41   H     H_    0.507311 0.664606 0.825712 0.103435
H42   H     H_    0.997496 0.164681 0.175162 0.100870
H43   H     H_    0.006517 0.165002 0.826147 0.100358
H44   H     H_    0.228951 0.587237 0.671955 0.097788
H45   H     H_    0.957709 0.542471 0.338554 0.131371
H46   H     H_    0.788828 0.588490 0.253733 0.104932
H47   H     H_    0.725455 0.087819 0.676007 0.095279
H48   H     H_    0.289830 0.087739 0.253406 0.104795
H49   H     H_    0.568644 0.586729 0.332705 0.132169
H50   H     H_    0.510483 0.587933 0.719685 0.133286
H51   H     H_    0.059512 0.087721 0.328628 0.134305
H52   H     H_    0.024403 0.088023 0.732916 0.139470
H53   H     H_    0.230949 0.411648 0.670084 0.098418
H54   H     H_    0.795473 0.413544 0.285405 0.087752
H55   H     H_    0.729402 0.911851 0.670658 0.087619
H56   H     H_    0.064688 0.538238 0.510785 0.130407
H57   H     H_    0.287038 0.910555 0.252537 0.089268
H58   H     H_    0.252171 0.632601 0.823477 0.094679
H59   H     H_    0.685990 0.666749 0.174135 0.088030
H60   H     H_    0.813612 0.166049 0.826132 0.086296
H61   H     H_    0.185958 0.166650 0.174400 0.086880
H62   H     H_    0.428712 0.369013 0.175984 0.126634
H63   H     H_    0.564399 0.356028 0.826721 0.179398
H64   H     H_    0.928535 0.868336 0.175554 0.139610
H65   H     H_    0.004039 0.830150 0.828010 0.125467
H66   H     H_    0.946842 0.415905 0.338392 0.113187
H67   H     H_    0.457779 0.041037 0.334139 0.132486
H68   H     H_    0.120673 0.422462 0.481787 0.126334
H69   H     H_    0.446591 0.914752 0.339464 0.118847
H70   H     H_    0.620576 0.922894 0.483968 0.120097
H71   H     H_    0.558779 0.037030 0.511633 0.133451
H72   H     H_    0.128833 0.663240 0.829667 0.127757
N1    N     N_R   0.395410 0.396350 0.944340 -0.043938
N2    N     N_R   0.474920 0.471030 0.794350 -0.095473
N3    N     N_R   0.025080 0.971030 0.205650 -0.101853
N4    N     N_R   0.974920 0.971030 0.794350 -0.108574
N5    N     N_R   0.320260 0.527820 0.794570 -0.042366
N6    N     N_R   0.679740 0.527820 0.205430 -0.045318
N7    N     N_R   0.820260 0.027820 0.794570 -0.040514
N8    N     N_R   0.179740 0.027820 0.205430 -0.045783
N9    N     N_R   0.524590 0.527840 0.205200 -0.069681
N10   N     N_R   0.475410 0.527840 0.794800 -0.068696
N11   N     N_R   0.024590 0.027840 0.205200 -0.069892
N12   N     N_R   0.604590 0.396350 0.055660 -0.041447
N13   N     N_R   0.975410 0.027840 0.794800 -0.069268
N14   N     N_R   0.320750 0.471000 0.795020 -0.047638
N15   N     N_R   0.679250 0.471000 0.204980 -0.039719
N16   N     N_R   0.820750 0.971000 0.795020 -0.047869
N17   N     N_R   0.179250 0.971000 0.204980 -0.042024
N18   N     N_R   0.393620 0.602490 0.942710 -0.040768
N19   N     N_R   0.606380 0.602490 0.057290 -0.040195
N20   N     N_R   0.893620 0.102490 0.942710 -0.039314
N21   N     N_R   0.106380 0.102490 0.057290 -0.037803
N22   N     N_R   0.451720 0.396350 0.057510 -0.038089
N23   N     N_R   0.895410 0.896350 0.944340 -0.050971
N24   N     N_R   0.548280 0.396350 0.942490 -0.045768
N25   N     N_R   0.951720 0.896350 0.057510 -0.038261
N26   N     N_R   0.048280 0.896350 0.942490 -0.048235
N27   N     N_R   0.104590 0.896350 0.055660 -0.048416
N28   N     N_R   0.449930 0.602500 0.055880 -0.038773
N29   N     N_R   0.550070 0.602500 0.944120 -0.037098
N30   N     N_R   0.949930 0.102500 0.055880 -0.036561
N31   N     N_R   0.050070 0.102500 0.944120 -0.033060
N32   N     N_R   0.525080 0.471030 0.205650 -0.100530
Ni1   Ni    Ni4+2 0.435420 0.434270 0.870230 0.248985
Ni2   Ni    Ni4+2 0.564580 0.434270 0.129770 0.274009
Ni3   Ni    Ni4+2 0.935420 0.934270 0.870230 0.213828
Ni4   Ni    Ni4+2 0.064580 0.934270 0.129770 0.262993
Ni5   Ni    Ni4+2 0.563430 0.564580 0.128740 0.201248
Ni6   Ni    Ni4+2 0.436570 0.564580 0.871260 0.204145
Ni7   Ni    Ni4+2 0.063430 0.064580 0.128740 0.202380
Ni8   Ni    Ni4+2 0.936570 0.064580 0.871260 0.200867

loop_
_geom_bond_atom_site_label_1
_geom_bond_atom_site_label_2
_ccdc_geom_bond_type
N26   Ni3   S    
C102  H62   S    
N13   Ni8   S    
C5    C103  A    
C10   C85   A    
C16   C21   D    
C65   C79   S    
C29   C33   A    
N7    N16   A    
C23   C58   S    
C45   H40   S    
C93   N14   A    
N19   Ni5   S    
C77   H32   S    
N5    N14   A    
N14   Ni1   S    
C54   C60   S    
N31   Ni8   S    
N23   N25   A    
C11   C19   S    
C15   H68   S    
C8    C82   A    
N29   Ni6   S    
C56   H16   S    
C98   N18   A    
N23   Ni3   S    
C86   H46   S    
C35   C37   A    
C9    C69   S    
C3    C7    A    
C71   H27   S    
C97   H57   S    
C43   C52   A    
C57   C59   S    
C5    C17   A    
C11   C86   A    
C59   H19   S    
C49   C54   S    
C20   H56   S    
C55   C62   S    
C12   C22   S    
C37   C42   A    
C31   C83   S    
N20   Ni8   S    
C51   C55   S    
C96   N16   A    
C41   C49   A    
C89   C94   A    
C2    C90   A    
C103  N24   A    
N15   Ni2   S    
C17   H12   S    
C1    H1    S    
C24   C29   A    
C44   C53   A    
C3    H65   S    
C79   H35   S    
C23   C27   A    
N1    N22   A    
N25   Ni4   S    
C10   C20   S    
C21   H67   S    
C90   N10   A    
N2    Ni1   S    
C95   N15   A    
C47   H42   S    
C101  H61   S    
N18   Ni6   S    
C25   C60   S    
C7    C43   S    
C83   C101  A    
C91   H51   S    
C80   F1    S    
C27   C50   S    
C42   C51   A    
C80   N32   A    
C63   C77   S    
C48   H43   S    
C54   H14   S    
C26   C31   A    
C6    C44   S    
C103  H63   S    
C34   H3    S    
C28   N23   A    
C62   H21   S    
C36   C41   A    
C61   C99   A    
C81   N2    A    
C36   H5    S    
N10   Ni6   S    
C9    C92   A    
N12   Ni2   S    
N6    Ni5   S    
N9    Ni5   S    
C99   H59   S    
N7    Ni8   S    
C17   N12   A    
C85   N5    A    
C15   C20   D    
C66   C78   S    
C74   H29   S    
C29   C61   S    
C59   H24   S    
C50   C98   A    
C33   C40   A    
N5    Ni6   S    
C30   C34   A    
C46   C61   A    
N18   N28   A    
C97   N17   A    
N6    N15   A    
C84   N4    A    
C76   C77   S    
N21   Ni7   S    
C2    C67   S    
C74   C75   A    
C95   H54   S    
N11   Ni7   S    
C71   C73   A    
N16   Ni3   S    
C1    N1    A    
N26   N27   A    
C25   C30   A    
N4    Ni3   S    
C87   N7    A    
C37   H6    S    
C10   C93   A    
C68   C73   A    
C82   F3    S    
C91   N11   A    
N24   Ni1   S    
C75   H30   S    
C68   C94   S    
N30   Ni7   S    
C39   N27   A    
N19   N29   A    
C90   H50   S    
C63   C67   A    
C102  N22   A    
C48   N31   A    
C88   N8    A    
C64   C76   S    
C13   C21   S    
C69   C74   A    
C8    C91   A    
C104  N25   A    
N22   Ni2   S    
C89   H49   S    
C92   N13   A    
C98   H58   S    
N17   Ni4   S    
C79   H39   S    
C100  N20   A    
N32   Ni2   S    
C93   H53   S    
C86   N6    A    
C45   N28   A    
C32   C38   A    
C19   H45   S    
C56   H11   S    
C31   C35   A    
C78   H33   S    
C80   C94   A    
C88   H48   S    
C55   H15   S    
C64   C68   A    
C16   H69   S    
C72   C100  A    
C76   H31   S    
C11   C95   A    
N28   Ni5   S    
C5    C41   S    
C81   F2    S    
C53   C57   S    
N12   N24   A    
C12   C87   A    
C27   C32   A    
C18   C22   D    
C3    N26   A    
C14   C19   D    
C32   H72   S    
C60   H20   S    
C22   H71   S    
C76   H36   S    
N9    N32   A    
N3    N11   A    
C92   H52   S    
C73   H28   S    
C30   C72   S    
C96   H55   S    
C58   H18   S    
C33   H2    S    
C87   H47   S    
C46   N29   A    
C66   C70   A    
C8    C70   S    
C6    C104  A    
C48   C83   A    
C104  H64   S    
C7    C39   A    
C100  H60   S    
C1    C4    A    
C28   H23   S    
N20   N30   A    
C24   C53   A    
C85   H44   S    
C38   C43   A    
C14   H66   S    
C101  N21   A    
C26   C51   A    
N3    Ni4   S    
C57   H17   S    
C38   H7    S    
C78   C79   S    
C62   H26   S    
C23   C52   A    
C40   H8    S    
C77   H37   S    
C4    C42   S    
N8    N17   A    
C58   H22   S    
C24   C59   S    
C65   C69   A    
C26   C62   S    
C82   N3    A    
C13   C88   A    
N27   Ni4   S    
C84   F4    S    
C34   C36   A    
C56   C58   S    
C39   H34   S    
C67   C71   A    
C13   C97   A    
C25   C49   A    
C47   C72   A    
C78   H38   S    
C9    C84   A    
C57   H13   S    
C63   C64   A    
C4    C102  A    
C52   C56   S    
C6    C28   A    
C40   C44   A    
C46   H41   S    
C18   H70   S    
C16   C18   S    
C65   C66   A    
C54   H9    S    
C47   N30   A    
C99   N19   A    
C70   C75   A    
C89   N9    A    
C14   C15   S    
C12   C96   A    
C2    C81   A    
N1    Ni1   S    
C45   C50   A    
N2    N10   A    
N8    Ni7   S    
C60   H25   S    
N21   N31   A    
C35   H4    S    
N4    N13   A    
C55   H10   S    
