data_mof_unit_57450.cif
_audit_creation_date              2012-12-11T14:08:39-0500
_audit_creation_method            fapswitch 2.2
_symmetry_space_group_name_H-M    P1
_symmetry_Int_Tables_number       1
_space_group_crystal_system       triclinic
_cell_length_a                    27.989295
_cell_length_b                    7.246633
_cell_length_c                    17.232231
_cell_angle_alpha                 89.929397
_cell_angle_beta                  101.13514
_cell_angle_gamma                 90.04082
_cell_volume                      3429.37963373

loop_
_atom_site_label
_atom_site_type_symbol
_atom_type_description
_atom_site_fract_x
_atom_site_fract_y
_atom_site_fract_z
_atom_type_partial_charge
O1    O     O_R   0.000700 0.436510 0.857920 -0.533229
O2    O     O_R   0.999300 0.563490 0.142080 -0.533744
O3    O     O_R   0.999300 0.936510 0.642080 -0.532478
O4    O     O_R   0.000700 0.063490 0.357920 -0.532971
O5    O     O_R   0.930080 0.766380 0.721890 -0.540074
O6    O     O_R   0.069920 0.233620 0.278110 -0.539332
O7    O     O_R   0.069920 0.266380 0.778110 -0.542989
O8    O     O_R   0.930080 0.733620 0.221890 -0.540025
C1    C     C_R   0.910743 0.597760 0.707497 0.712861
C2    C     C_R   0.089325 0.402657 0.288073 0.713953
C3    C     C_R   0.089085 0.097827 0.793934 0.713950
C4    C     C_R   0.910692 0.902553 0.211216 0.712560
O9    O     O_R   0.996180 0.766230 0.862310 -0.542860
O10   O     O_R   0.003820 0.233770 0.137690 -0.542233
O11   O     O_R   0.003820 0.266230 0.637690 -0.542929
O12   O     O_R   0.996180 0.733770 0.362310 -0.542721
O13   O     O_R   0.065870 0.936460 0.783500 -0.537157
O14   O     O_R   0.934130 0.063540 0.216500 -0.538641
O15   O     O_R   0.934130 0.436460 0.716500 -0.539632
O16   O     O_R   0.065870 0.563540 0.283500 -0.539295
C5    C     C_R   0.998567 0.596374 0.894380 0.753123
C6    C     C_R   0.001585 0.403662 0.105670 0.755048
C7    C     C_R   0.001526 0.096452 0.605624 0.755277
C8    C     C_R   0.998503 0.903540 0.394384 0.752349
O17   O     O_3   0.022790 0.603020 0.723980 -0.378251
O18   O     O_3   0.977210 0.396980 0.276020 -0.379304
O19   O     O_3   0.977210 0.103020 0.776020 -0.379469
O20   O     O_3   0.022790 0.896980 0.223980 -0.379227
V1    V     V_3+5 0.995770 0.877900 0.754830 1.397277
V2    V     V_3+5 0.004230 0.122100 0.245170 1.393415
V3    V     V_3+5 0.004230 0.377900 0.745170 1.393453
V4    V     V_3+5 0.995770 0.622100 0.254830 1.390232
C9    C     C_2   0.001697 0.082177 0.519563 -0.338436
C10   C     C_2   0.998356 0.917800 0.480448 -0.337392
C11   C     C_2   0.998499 0.582171 0.980440 -0.337837
C12   C     C_2   0.001837 0.417920 0.019677 -0.335791
H1    H     H_    0.004422 0.210042 0.487762 0.154309
H2    H     H_    0.995634 0.789931 0.512248 0.153694
H3    H     H_    0.995824 0.710024 0.012135 0.156008
H4    H     H_    0.004594 0.290090 0.988008 0.154350
C13   C     C_R   0.682658 0.981433 0.053986 0.621058
C14   C     C_R   0.312532 0.026102 0.008778 0.685744
C15   C     C_R   0.316372 0.482687 0.441176 0.619506
C16   C     C_R   0.687281 0.536308 0.498786 0.610730
O21   O     O_2   0.712844 0.998085 0.002091 -0.505956
O22   O     O_2   0.281872 0.020936 0.060256 -0.491595
O23   O     O_2   0.285343 0.499342 0.491709 -0.506956
O24   O     O_2   0.718444 0.543750 0.448227 -0.517663
N1    N     N_R   0.702046 0.960279 0.132633 -0.542767
N2    N     N_R   0.293912 0.053201 0.929859 -0.544647
N3    N     N_R   0.297958 0.460561 0.362224 -0.547720
N4    N     N_R   0.705123 0.553033 0.578273 -0.538405
C17   C     C_R   0.672724 0.960928 0.187717 0.522808
C18   C     C_R   0.324175 0.066130 0.876527 0.568623
C19   C     C_R   0.328099 0.461812 0.308355 0.537967
C20   C     C_R   0.674477 0.557169 0.630999 0.593218
C21   C     C_R   0.781864 0.074482 0.201334 -0.213718
C22   C     C_R   0.222179 0.226957 0.861622 -0.184037
C23   C     C_R   0.218019 0.571991 0.292182 -0.186864
C24   C     C_R   0.782397 0.408902 0.642100 -0.199032
C25   C     C_R   0.832592 0.063521 0.218990 -0.230718
C26   C     C_R   0.172952 0.237555 0.826444 -0.214830
C27   C     C_R   0.167217 0.562520 0.276910 -0.223767
C28   C     C_R   0.832114 0.419546 0.674636 -0.204632
C29   C     C_R   0.829197 0.772362 0.149726 -0.309136
C30   C     C_R   0.161301 0.926120 0.869911 -0.322480
C31   C     C_R   0.171142 0.271294 0.346463 -0.308018
C32   C     C_R   0.831579 0.744619 0.642226 -0.307130
C33   C     C_R   0.777518 0.780834 0.131672 0.459446
C34   C     C_R   0.211209 0.913940 0.907143 0.474193
C35   C     C_R   0.222817 0.278980 0.362789 0.462084
C36   C     C_R   0.781763 0.732847 0.606247 0.468428
C37   C     C_R   0.754133 0.936603 0.156761 0.318078
C38   C     C_R   0.241787 0.066191 0.901122 0.308901
C39   C     C_R   0.246006 0.434611 0.336905 0.307103
C40   C     C_R   0.756965 0.564597 0.607948 0.324324
C41   C     C_R   0.600845 0.986894 0.082910 -0.104266
C42   C     C_R   0.395069 0.026984 0.982051 -0.112197
C43   C     C_R   0.398931 0.488040 0.415442 -0.106155
C44   C     C_R   0.604359 0.525581 0.523346 -0.105010
C45   C     C_R   0.631689 0.987291 0.027112 -0.147527
C46   C     C_R   0.363541 0.006872 0.036429 -0.128824
C47   C     C_R   0.367160 0.489348 0.469818 -0.142898
C48   C     C_R   0.636563 0.513678 0.469753 -0.120027
C49   C     C_R   0.610843 0.984158 0.946041 0.452509
C50   C     C_R   0.383711 0.966845 0.116225 0.457706
C51   C     C_R   0.386882 0.489051 0.551333 0.451831
C52   C     C_R   0.617471 0.476101 0.389502 0.445609
C53   C     C_R   0.621669 0.974120 0.163953 -0.008909
C54   C     C_R   0.374906 0.055696 0.901566 -0.000128
C55   C     C_R   0.379094 0.474863 0.333946 -0.021322
C56   C     C_R   0.623802 0.545468 0.604625 -0.005814
C57   C     C_R   0.856773 0.913036 0.192916 -0.080320
C58   C     C_R   0.141974 0.086969 0.829484 -0.082173
C59   C     C_R   0.143280 0.412852 0.304425 -0.084219
C60   C     C_R   0.857360 0.587891 0.675612 -0.087895
H5    H     H_    0.848602 0.660115 0.128608 0.137496
H6    H     H_    0.136661 0.812965 0.872493 0.137683
H7    H     H_    0.151983 0.159127 0.368307 0.138321
H8    H     H_    0.850248 0.875635 0.643209 0.132664
C61   C     C_R   0.477547 0.031650 0.951204 0.080543
C62   C     C_R   0.518520 0.987581 0.114437 0.076862
C63   C     C_R   0.521210 0.524862 0.551560 0.079926
C64   C     C_R   0.482056 0.489502 0.387054 0.075367
C65   C     C_R   0.466863 0.987516 0.088533 -0.021565
C66   C     C_R   0.528873 0.012904 0.976083 -0.024139
C67   C     C_R   0.533604 0.490817 0.414576 -0.021330
C68   C     C_R   0.469840 0.511653 0.524617 -0.023199
C69   C     C_R   0.446664 0.016156 0.007489 0.067266
C70   C     C_R   0.549245 0.996198 0.057752 0.060753
C71   C     C_R   0.552866 0.514780 0.496267 0.064269
C72   C     C_R   0.450454 0.496767 0.442451 0.061123
C73   C     C_R   0.455770 0.064056 0.871307 -0.181636
C74   C     C_R   0.540747 0.982295 0.195470 -0.206022
C75   C     C_R   0.542375 0.544316 0.632612 -0.177642
C76   C     C_R   0.460777 0.484548 0.305563 -0.210548
C77   C     C_R   0.405668 0.073087 0.847214 -0.146254
C78   C     C_R   0.591179 0.975933 0.219508 -0.185782
C79   C     C_R   0.592400 0.551761 0.658238 -0.151488
C80   C     C_R   0.410476 0.477074 0.279788 -0.175289
O25   O     O_2   0.305127 0.088209 0.798969 -0.546563
O26   O     O_2   0.692796 0.950054 0.265224 -0.550160
O27   O     O_2   0.693084 0.574843 0.708873 -0.544401
O28   O     O_2   0.308931 0.451876 0.230394 -0.521987
C81   C     C_R   0.560595 0.004809 0.921559 -0.278283
C82   C     C_R   0.434555 0.953990 0.140675 -0.285663
C83   C     C_R   0.437008 0.509045 0.577482 -0.277310
C84   C     C_R   0.566765 0.461619 0.363443 -0.281300
H9    H     H_    0.159292 0.363242 0.796016 0.147278
H10   H     H_    0.852956 0.173400 0.252953 0.145680
H11   H     H_    0.850635 0.295852 0.699764 0.150136
H12   H     H_    0.146608 0.673261 0.243957 0.144183
H13   H     H_    0.245583 0.344015 0.857174 0.163052
H14   H     H_    0.763951 0.193436 0.220661 0.138260
H15   H     H_    0.763437 0.279044 0.643627 0.165064
H16   H     H_    0.235728 0.690367 0.271700 0.148376
H17   H     H_    0.391168 0.093921 0.785178 0.140081
H18   H     H_    0.606277 0.973288 0.282334 0.171537
H19   H     H_    0.606316 0.561659 0.720927 0.139420
H20   H     H_    0.396194 0.473843 0.216711 0.178455
H21   H     H_    0.476307 0.085923 0.825348 0.114232
H22   H     H_    0.520090 0.987911 0.242133 0.129869
H23   H     H_    0.521595 0.554475 0.678781 0.113138
H24   H     H_    0.482060 0.490825 0.259755 0.130361
H25   H     H_    0.547636 0.005842 0.858587 0.130602
H26   H     H_    0.447731 0.910051 0.200738 0.132264
H27   H     H_    0.448737 0.516510 0.640556 0.129395
H28   H     H_    0.554402 0.419125 0.303045 0.131714
O29   O     O_3   0.748211 0.651309 0.084681 -0.580154
C85   C     C_3   0.768216 0.471533 0.087820 0.046370
H29   H     H_    0.737791 0.371940 0.085658 0.157363
H30   H     H_    0.793744 0.441952 0.144464 0.114763
C86   C     C_3   0.791362 0.436486 0.015334 -0.291409
H31   H     H_    0.762195 0.415903 0.962404 0.215479
H32   H     H_    0.813200 0.557708 0.003581 0.197039
C87   C     C_3   0.824170 0.266653 0.026662 -0.770785
H33   H     H_    0.854663 0.286666 0.077744 0.219392
H34   H     H_    0.839645 0.244131 0.972765 0.227805
H35   H     H_    0.803072 0.142381 0.036926 0.269236
O30   O     O_3   0.233345 0.757951 0.946694 -0.561799
C88   C     C_3   0.201434 0.623720 0.968043 0.103875
H36   H     H_    0.224019 0.501777 0.990336 0.169007
H37   H     H_    0.175166 0.571677 0.916172 0.094716
C89   C     C_3   0.176755 0.689405 0.035447 -0.298642
H38   H     H_    0.205037 0.718514 0.088821 0.239243
H39   H     H_    0.155951 0.818398 0.018783 0.183243
C90   C     C_3   0.141824 0.542884 0.055532 -0.827689
H40   H     H_    0.113961 0.508434 0.002351 0.226642
H41   H     H_    0.122840 0.595969 0.101817 0.227614
H42   H     H_    0.162127 0.415872 0.077931 0.248558
O31   O     O_3   0.252381 0.149098 0.409228 -0.579562
C91   C     C_3   0.232266 0.969401 0.406308 0.051936
H43   H     H_    0.262552 0.869620 0.407852 0.156486
H44   H     H_    0.206413 0.940463 0.349930 0.113548
C92   C     C_3   0.209597 0.933829 0.479317 -0.293095
H45   H     H_    0.238994 0.909036 0.531526 0.214368
H46   H     H_    0.188791 0.056451 0.492532 0.196955
C93   C     C_3   0.175599 0.767268 0.467613 -0.771759
H47   H     H_    0.144890 0.791523 0.417260 0.218589
H48   H     H_    0.160494 0.744357 0.521869 0.227828
H49   H     H_    0.195656 0.641559 0.455984 0.269029
O32   O     O_3   0.755614 0.885420 0.573071 -0.567068
C94   C     C_3   0.779625 0.972941 0.518000 0.019255
H50   H     H_    0.798305 0.872094 0.484907 0.133563
H51   H     H_    0.806765 0.073028 0.549362 0.119504
C95   C     C_3   0.742165 0.077345 0.457910 -0.215046
H52   H     H_    0.715449 0.977845 0.425153 0.239034
H53   H     H_    0.722196 0.175646 0.489318 0.202977
C96   C     C_3   0.766684 0.182455 0.399531 -0.701197
H54   H     H_    0.791871 0.288538 0.430961 0.222330
H55   H     H_    0.738667 0.252002 0.354696 0.282598
H56   H     H_    0.787551 0.085754 0.368883 0.220188
O33   O     O_3   0.639692 0.960764 0.889857 -0.542229
C97   C     C_3   0.633724 0.779667 0.858364 0.108839
H57   H     H_    0.649266 0.779343 0.803884 0.185475
H58   H     H_    0.594666 0.740315 0.840258 0.082289
C98   C     C_3   0.661452 0.635864 0.915713 -0.303012
H59   H     H_    0.701071 0.665703 0.925403 0.253415
H60   H     H_    0.649657 0.643116 0.973356 0.198622
C99   C     C_3   0.652216 0.439406 0.884726 -0.780153
H61   H     H_    0.612607 0.408183 0.872747 0.224474
H62   H     H_    0.670824 0.340691 0.929933 0.261911
H63   H     H_    0.666805 0.419985 0.829928 0.275201
O34   O     O_3   0.353549 0.916194 0.167839 -0.536971
C100  C     C_3   0.360294 0.032347 0.235170 0.129925
H64   H     H_    0.325715 0.107346 0.234409 0.194687
H65   H     H_    0.389805 0.135999 0.237502 0.101880
C101  C     C_3   0.371003 0.914038 0.309592 -0.324424
H66   H     H_    0.339381 0.822396 0.310006 0.212903
H67   H     H_    0.404246 0.832226 0.308687 0.214768
C102  C     C_3   0.379723 0.026442 0.385354 -0.850927
H68   H     H_    0.412777 0.112922 0.388795 0.246713
H69   H     H_    0.385553 0.931613 0.437008 0.239547
H70   H     H_    0.347571 0.113661 0.387770 0.254769
O35   O     O_3   0.356979 0.470774 0.606357 -0.544013
C103  C     C_3   0.362796 0.293046 0.641478 0.108419
H71   H     H_    0.346171 0.297614 0.694889 0.179950
H72   H     H_    0.401805 0.255875 0.662103 0.082841
C104  C     C_3   0.336339 0.143479 0.585974 -0.303230
H73   H     H_    0.296583 0.171354 0.574022 0.248969
H74   H     H_    0.349110 0.145773 0.529067 0.199399
C105  C     C_3   0.345797 0.950505 0.621039 -0.784570
H75   H     H_    0.385498 0.921326 0.634963 0.225666
H76   H     H_    0.328060 0.846822 0.577438 0.264315
H77   H     H_    0.330515 0.936658 0.675494 0.274405
O36   O     O_3   0.648673 0.424895 0.339722 -0.553855
C106  C     C_3   0.642272 0.536303 0.270948 0.109219
H78   H     H_    0.676865 0.611074 0.271452 0.198335
H79   H     H_    0.612613 0.639668 0.266682 0.111225
C107  C     C_3   0.632339 0.412807 0.198220 -0.329612
H80   H     H_    0.663934 0.319753 0.200405 0.212277
H81   H     H_    0.598864 0.332304 0.199181 0.216172
C108  C     C_3   0.624776 0.519868 0.120920 -0.847215
H82   H     H_    0.591827 0.607670 0.115123 0.245993
H83   H     H_    0.619406 0.421430 0.070628 0.238327
H84   H     H_    0.657215 0.605518 0.118294 0.256184

loop_
_geom_bond_atom_site_label_1
_geom_bond_atom_site_label_2
_ccdc_geom_bond_type
O17   V3    S    
C97   H58   S    
O31   C91   S    
N1    C17   A    
O1    C5    A    
C30   H6    S    
C50   O34   S    
C50   C82   A    
O13   V1    S    
O3    C7    A    
C11   C12   D    
C14   C46   A    
C103  C104  S    
C65   C82   A    
C44   C48   A    
N1    C37   S    
O15   V3    S    
C51   C83   A    
C88   H36   S    
C82   H26   S    
C34   C38   A    
C90   H41   S    
C100  H64   S    
C42   C54   A    
C98   C99   S    
O7    C3    A    
C66   C81   A    
C41   C53   A    
C32   C60   A    
C43   C72   A    
C62   C65   A    
C74   H22   S    
C63   C71   A    
C89   H38   S    
C56   C79   A    
N3    C39   S    
C67   C84   A    
C18   C54   A    
C17   O26   S    
N2    C38   S    
C66   C70   A    
O4    C8    A    
C25   C57   A    
C97   C98   S    
O19   V1    S    
C61   C69   A    
C27   C59   A    
C23   H16   S    
O1    V3    S    
C15   C47   A    
C107  C108  S    
O2    V4    S    
C14   O22   S    
C21   C37   A    
O3    V1    S    
O32   C94   S    
C19   C55   A    
C76   H24   S    
C49   C81   A    
C87   H34   S    
C1    O15   A    
C52   O36   S    
C68   C83   A    
C92   H45   S    
C2    O16   A    
C99   H61   S    
C7    C9    S    
C85   C86   S    
O2    C6    A    
C31   C35   A    
C33   C37   A    
C63   C68   A    
C80   H20   S    
C86   H32   S    
C108  H82   S    
C34   O30   S    
C91   C92   S    
C32   C36   A    
C30   C58   A    
C16   N4    A    
O11   C7    A    
C97   H57   S    
O12   C8    A    
C64   C76   A    
C31   C59   A    
C26   H9    S    
C98   H59   S    
C67   C71   A    
O10   V2    S    
C89   C90   S    
C13   N1    A    
C88   H37   S    
C91   H44   S    
C45   C49   A    
C93   H47   S    
C90   H42   S    
O5    V1    S    
C100  H65   S    
C22   H13   S    
C75   H23   S    
O7    V3    S    
O8    V4    S    
C20   O27   S    
C12   H4    S    
C103  H71   S    
C28   C60   A    
C92   H46   S    
O6    V2    S    
C94   C95   S    
C104  H73   S    
C64   C72   A    
C92   C93   S    
C101  H66   S    
C98   H60   S    
C105  H77   S    
C16   C48   A    
C46   C50   A    
O11   V3    S    
C24   C40   A    
C96   H54   S    
C8    C10   S    
C68   C72   A    
C87   H33   S    
C44   C56   A    
C96   H56   S    
C11   H3    S    
O35   C103  S    
C54   C77   A    
C94   H50   S    
O5    C1    A    
C63   C75   A    
C62   C74   A    
C85   H30   S    
C104  H74   S    
C42   C46   A    
C106  H78   S    
C24   H15   S    
C28   H11   S    
C41   C45   A    
O8    C4    A    
C13   C45   A    
C102  H70   S    
C9    C10   D    
O9    C5    A    
C36   C40   A    
N2    C18   A    
C27   H12   S    
O34   C100  S    
C86   C87   S    
C107  H81   S    
C108  H83   S    
C1    C60   S    
C74   C78   A    
C22   C26   A    
C14   N2    A    
C73   C77   A    
C25   H10   S    
C3    C58   S    
C99   H62   S    
C106  H79   S    
C18   O25   S    
O36   C106  S    
C75   C79   A    
C26   C58   A    
C17   C53   A    
O14   V2    S    
C35   O31   S    
C21   H14   S    
C62   C70   A    
C84   H28   S    
C95   H53   S    
C23   C39   A    
C90   H40   S    
C88   C89   S    
C91   H43   S    
C22   C38   A    
O16   V4    S    
C100  C101  S    
O9    V1    S    
C61   C66   A    
C65   C69   A    
C19   O28   S    
C105  H76   S    
C13   O21   S    
C102  H69   S    
C10   H2    S    
C43   C55   A    
C32   H8    S    
C55   C80   A    
C87   H35   S    
C77   H17   S    
C48   C52   A    
C103  H72   S    
N4    C40   S    
C3    O13   A    
C47   C51   A    
O6    C2    A    
C93   H48   S    
C21   C25   A    
O18   V4    S    
C31   H7    S    
O12   V4    S    
C6    C12   S    
C23   C27   A    
C61   C73   A    
C24   C28   A    
C79   H19   S    
O30   C88   S    
O10   C6    A    
C95   C96   S    
C94   H51   S    
C5    C11   S    
C86   H31   S    
C33   O29   S    
C107  H80   S    
C52   C84   A    
C81   H25   S    
O29   C85   S    
C104  C105  S    
C35   C39   A    
C15   N3    A    
C30   C34   A    
N4    C20   A    
C2    C59   S    
C99   H63   S    
C29   C33   A    
C44   C71   A    
C89   H39   S    
C29   C57   A    
O20   V2    S    
C42   C69   A    
N3    C19   A    
C49   O33   S    
C73   H21   S    
C105  H75   S    
C4    C57   S    
C108  H84   S    
C9    H1    S    
C93   H49   S    
C36   O32   S    
C102  H68   S    
C43   C47   A    
C76   C80   A    
C20   C56   A    
C106  C107  S    
C53   C78   A    
C29   H5    S    
C101  H67   S    
O33   C97   S    
C101  C102  S    
C4    O14   A    
C51   O35   S    
C85   H29   S    
C96   H55   S    
C95   H52   S    
C78   H18   S    
C15   O23   S    
C41   C70   A    
C64   C67   A    
O4    V2    S    
C16   O24   S    
C83   H27   S    
