data_mof_unit_50348.cif
_audit_creation_date              2012-12-10T17:31:55-0500
_audit_creation_method            fapswitch 2.2
_symmetry_space_group_name_H-M    P1
_symmetry_Int_Tables_number       1
_space_group_crystal_system       triclinic
_cell_length_a                    12.110608
_cell_length_b                    11.510625
_cell_length_c                    12.866391
_cell_angle_alpha                 90.526815
_cell_angle_beta                  93.887194
_cell_angle_gamma                 86.237436
_cell_volume                      1785.57991046

loop_
_atom_site_label
_atom_site_type_symbol
_atom_type_description
_atom_site_fract_x
_atom_site_fract_y
_atom_site_fract_z
_atom_type_partial_charge
C1    C     C_R   0.477784 0.504258 0.299727 0.834465
C2    C     C_R   0.522303 0.498018 0.700278 0.857147
C3    C     C_R   0.043064 0.639832 0.554809 -0.387809
C4    C     C_R   0.958446 0.355172 0.460114 -0.381886
C5    C     C_R   0.159435 0.620586 0.559859 0.521229
C6    C     C_R   0.841832 0.373280 0.452894 0.549185
C7    C     C_R   0.142964 0.432850 0.484541 0.519597
C8    C     C_R   0.857424 0.570970 0.504683 0.521140
C9    C     C_R   0.025729 0.445958 0.487438 -0.125537
C10   C     C_R   0.975012 0.553146 0.515891 -0.122697
C11   C     C_R   0.499875 0.282210 0.499665 0.888532
C12   C     C_R   0.500067 0.717792 0.500292 0.889819
C13   C     C_1   0.499726 0.161688 0.499540 -0.155172
C14   C     C_1   0.499989 0.838326 0.500306 -0.187598
C15   C     C_1   0.499757 0.059378 0.499680 0.004049
C16   C     C_1   0.499877 0.940635 0.500061 -0.007040
C17   C     C_R   0.535814 0.499111 0.811984 -0.046566
C18   C     C_R   0.464415 0.509419 0.187987 -0.042031
C19   C     C_R   0.353981 0.484948 0.027926 -0.233657
C20   C     C_R   0.645722 0.529568 0.971524 -0.237840
C21   C     C_R   0.361768 0.492715 0.135372 -0.206951
C22   C     C_R   0.637980 0.520316 0.863873 -0.192264
C23   C     C_R   0.557903 0.526184 0.133274 -0.290387
C24   C     C_R   0.442283 0.484663 0.867028 -0.283189
C25   C     C_R   0.551265 0.517759 0.026341 0.198485
C26   C     C_R   0.448791 0.495368 0.973578 0.183603
H1    H     H_    0.363432 0.466581 0.827074 0.157570
H2    H     H_    0.636784 0.543102 0.173780 0.150090
H3    H     H_    0.710705 0.531822 0.821421 0.169325
H4    H     H_    0.288517 0.483269 0.176849 0.149420
H5    H     H_    0.274663 0.469719 0.987595 0.138426
H6    H     H_    0.724731 0.546374 0.011679 0.140491
H7    H     H_    0.006814 0.722174 0.581820 0.203156
H8    H     H_    0.996577 0.268998 0.448199 0.198914
N1    N     N_R   0.792200 0.479100 0.480660 -0.186414
N2    N     N_R   0.207800 0.520900 0.519340 -0.180542
O1    O     O_R   0.578300 0.494420 0.341180 -0.638399
O2    O     O_R   0.421700 0.505580 0.658820 -0.621037
O3    O     O_R   0.390690 0.507830 0.353590 -0.648404
O4    O     O_R   0.609310 0.492170 0.646410 -0.611284
O5    O     O_R   0.593810 0.327740 0.493800 -0.546083
O6    O     O_R   0.406190 0.672260 0.506200 -0.552174
O7    O     O_R   0.406190 0.341150 0.506220 -0.582546
O8    O     O_R   0.593810 0.658850 0.493780 -0.597915
Zn1   Zn    Zn3+2 0.625270 0.491050 0.491710 0.988455
Zn2   Zn    Zn3+2 0.374730 0.508950 0.508290 0.985714
O9    O     O_3   0.809531 0.682365 0.515541 -0.627436
C27   C     C_3   0.788082 0.733432 0.415370 0.132431
H9    H     H_    0.720398 0.802498 0.421570 0.180739
H10   H     H_    0.757518 0.670541 0.355100 0.119112
C28   C     C_3   0.888975 0.791895 0.379051 -0.412140
H11   H     H_    0.920508 0.851480 0.441023 0.242711
H12   H     H_    0.955756 0.724793 0.362814 0.223264
C29   C     C_3   0.858894 0.861730 0.279687 -0.962795
H13   H     H_    0.829149 0.803585 0.215815 0.262984
H14   H     H_    0.933218 0.903340 0.255555 0.271130
H15   H     H_    0.793130 0.931024 0.293174 0.258093
O10   O     O_3   0.191641 0.331189 0.445150 -0.628472
C30   C     C_3   0.204427 0.343525 0.337105 0.156017
H16   H     H_    0.292838 0.320854 0.323705 0.181832
H17   H     H_    0.183033 0.433379 0.306713 0.099231
C31   C     C_3   0.134262 0.258594 0.273742 -0.421611
H18   H     H_    0.146121 0.170538 0.309134 0.244516
H19   H     H_    0.045552 0.289021 0.273925 0.215113
C32   C     C_3   0.165062 0.250965 0.160672 -0.956788
H20   H     H_    0.149303 0.337183 0.122532 0.259972
H21   H     H_    0.113601 0.187568 0.117625 0.268790
H22   H     H_    0.253855 0.221357 0.156642 0.270442
O11   O     O_3   0.776483 0.281325 0.427555 -0.601013
C33   C     C_3   0.799685 0.228443 0.330736 0.067659
H23   H     H_    0.754400 0.147560 0.324471 0.165965
H24   H     H_    0.888216 0.199261 0.325998 0.118388
C34   C     C_3   0.757772 0.306233 0.238245 -0.360525
H25   H     H_    0.666286 0.320819 0.238379 0.245440
H26   H     H_    0.795440 0.391683 0.244887 0.201550
C35   C     C_3   0.786407 0.249494 0.135026 -0.957478
H27   H     H_    0.877815 0.236174 0.131732 0.267803
H28   H     H_    0.753433 0.306827 0.069634 0.275135
H29   H     H_    0.748776 0.164233 0.125666 0.267530
O12   O     O_3   0.225288 0.706390 0.598798 -0.604076
C36   C     C_3   0.220126 0.713309 0.708028 0.088913
H30   H     H_    0.230261 0.625282 0.744532 0.128362
H31   H     H_    0.139337 0.756843 0.727702 0.130774
C37   C     C_3   0.313866 0.785288 0.753145 -0.291590
H32   H     H_    0.395112 0.741444 0.735540 0.225582
H33   H     H_    0.306626 0.872671 0.716205 0.228077
C38   C     C_3   0.310166 0.799997 0.870915 -0.964641
H34   H     H_    0.231252 0.847543 0.890099 0.263970
H35   H     H_    0.380394 0.850598 0.901344 0.270730
H36   H     H_    0.317194 0.713831 0.909661 0.272917

loop_
_geom_bond_atom_site_label_1
_geom_bond_atom_site_label_2
_ccdc_geom_bond_type
C6    O11   S    
C38   H34   S    
C22   H3    S    
C18   C21   A    
C7    N2    A    
C35   H29   S    
C19   H5    S    
C36   H30   S    
C1    C18   S    
C19   C21   A    
C24   C26   A    
O6    Zn2   S    
C20   C25   A    
C3    H7    S    
C15   C16   S    
C5    N2    A    
C6    N1    A    
C34   H25   S    
C19   C26   A    
C12   O6    A    
C27   C28   S    
C32   H21   S    
C31   H19   S    
C24   H1    S    
N2    Zn2   S    
C33   H23   S    
C9    C10   A    
C7    O10   S    
C1    O1    A    
C27   H10   S    
C30   H16   S    
C2    C17   S    
C34   H26   S    
C36   H31   S    
C29   H14   S    
O4    Zn1   S    
C4    H8    S    
C30   H17   S    
C17   C24   A    
C18   C23   A    
C35   H27   S    
C4    C6    A    
C25   C26   A    
C28   H11   S    
C28   H12   S    
C8    N1    A    
C31   H18   S    
C2    O2    A    
O9    C27   S    
C32   H22   S    
C33   C34   S    
C23   H2    S    
C37   H32   S    
C5    O12   S    
C11   O7    A    
O3    Zn2   S    
C27   H9    S    
C12   C14   S    
C13   C15   T    
C34   C35   S    
C14   C16   T    
C20   C22   A    
O1    Zn1   S    
N1    Zn1   S    
C36   C37   S    
O8    Zn1   S    
C20   H6    S    
C7    C9    A    
C29   H13   S    
C30   C31   S    
C31   C32   S    
C35   H28   S    
O12   C36   S    
C3    C5    A    
C37   C38   S    
C21   H4    S    
C17   C22   A    
C28   C29   S    
C38   H35   S    
O10   C30   S    
C8    O9    S    
C12   O8    A    
C3    C10   A    
C11   C13   S    
C11   O5    A    
C23   C25   A    
O11   C33   S    
O7    Zn2   S    
O2    Zn2   S    
C1    O3    A    
C2    O4    A    
C8    C10   A    
C32   H20   S    
C38   H36   S    
O5    Zn1   S    
C37   H33   S    
C33   H24   S    
C4    C9    A    
C29   H15   S    
