data_mof_unit_26528.cif
_audit_creation_date              2012-12-11T19:09:21-0500
_audit_creation_method            fapswitch 2.2
_symmetry_space_group_name_H-M    P1
_symmetry_Int_Tables_number       1
_space_group_crystal_system       triclinic
_cell_length_a                    8.233688
_cell_length_b                    15.182128
_cell_length_c                    26.952725
_cell_angle_alpha                 98.996646
_cell_angle_beta                  92.322794
_cell_angle_gamma                 81.298917
_cell_volume                      3288.9824545

loop_
_atom_site_label
_atom_site_type_symbol
_atom_type_description
_atom_site_fract_x
_atom_site_fract_y
_atom_site_fract_z
_atom_type_partial_charge
Ba1   Ba    Ba6+2 0.860050 0.456430 0.522540 1.624664
Ba2   Ba    Ba6+2 0.329780 0.543490 0.477450 1.626000
C1    C     C_3   0.689323 0.144034 0.653976 -0.377857
C2    C     C_3   0.686671 0.232517 0.634079 0.347741
C3    C     C_3   0.557301 0.689719 0.633074 0.338086
C4    C     C_3   0.607767 0.720024 0.687841 -0.206814
C5    C     C_3   0.029546 0.720019 0.336307 0.405318
C6    C     C_3   0.088877 0.724939 0.283319 -0.060980
C7    C     C_3   0.471267 0.774593 0.366848 0.342707
C8    C     C_3   0.417483 0.862729 0.346520 -0.365183
C9    C     C_R   0.037710 0.428706 0.177564 0.593121
C10   C     C_R   0.877669 0.574747 0.179570 0.575194
C11   C     C_2   0.734995 0.519715 0.270429 -0.091031
C12   C     C_3   0.191481 0.260346 0.654662 0.287875
C13   C     C_3   0.691274 0.515197 0.324125 -0.035967
C14   C     C_1   0.983398 0.480178 0.342414 0.043600
C15   C     C_2   0.024322 0.478353 0.294856 -0.117847
C16   C     C_2   0.894242 0.500767 0.255772 0.187697
C17   C     C_R   0.020593 0.502564 0.102526 -0.080133
C18   C     C_R   0.081170 0.428672 0.127149 -0.035273
C19   C     C_R   0.182850 0.355590 0.100714 -0.063593
C20   C     C_R   0.917902 0.575925 0.129076 -0.025873
C21   C     C_2   0.838679 0.520319 0.359082 -0.301893
C22   C     C_2   0.350990 0.483643 0.640897 -0.261728
C23   C     C_3   0.166784 0.243382 0.707759 -0.346541
C24   C     C_R   0.211732 0.430205 0.974384 0.001734
C25   C     C_R   0.036072 0.576940 0.975336 0.027586
C26   C     C_R   0.144348 0.503602 0.949442 0.046996
C27   C     C_R   0.322217 0.360391 0.947507 -0.128637
C28   C     C_R   0.363288 0.360508 0.897608 0.166057
C29   C     C_R   0.294565 0.432227 0.871938 -0.024413
C30   C     C_R   0.185519 0.503856 0.898116 -0.112465
C31   C     C_R   0.117466 0.576155 0.873015 -0.026067
C32   C     C_R   0.158530 0.576776 0.822575 0.584668
C33   C     C_R   0.331564 0.434549 0.820918 0.594782
C34   C     C_3   0.224638 0.266924 0.411884 0.310548
C35   C     C_2   0.460902 0.494549 0.728917 -0.071248
C36   C     C_3   0.500584 0.495056 0.674215 -0.058409
C37   C     C_1   0.205620 0.521464 0.658051 0.034863
C38   C     C_2   0.167856 0.522354 0.705615 -0.111082
C39   C     C_2   0.302414 0.507259 0.744292 0.200746
C40   C     C_R   0.167809 0.428889 0.025214 0.027377
C41   C     C_R   0.062229 0.502996 0.051319 0.050137
C42   C     C_R   0.997582 0.577498 0.026789 0.018340
C43   C     C_R   0.225069 0.355476 0.051139 -0.100794
C44   C     C_R   0.857822 0.649541 0.104734 -0.054219
C45   C     C_3   0.267915 0.165965 0.394527 -0.394790
C46   C     C_R   0.969199 0.647431 0.948499 -0.100394
C47   C     C_R   0.009260 0.646985 0.898800 -0.060551
C48   C     C_R   0.896461 0.650504 0.054995 -0.102151
C49   C     C_R   0.346402 0.175804 0.532057 -0.001474
C50   C     C_R   0.576444 0.212791 0.491264 0.074023
C51   C     C_R   0.750095 0.771685 0.476028 -0.264425
C52   C     C_R   0.839004 0.828528 0.456035 0.049175
C53   C     C_R   0.775479 0.921184 0.457328 -0.029192
C54   C     C_R   0.635578 0.959745 0.489244 0.020169
C55   C     C_R   0.553571 0.898578 0.511605 -0.026571
C56   C     C_3   0.079421 0.747707 0.605957 0.426315
C57   C     C_R   0.570888 0.055034 0.500391 0.001528
C58   C     C_R   0.418064 0.083657 0.525716 -0.017453
C59   C     C_R   0.342190 0.020786 0.545136 -0.108510
C60   C     C_R   0.411589 0.931437 0.539925 -0.053845
C61   C     C_R   0.652372 0.124202 0.488562 -0.157282
C62   C     C_R   0.426573 0.239019 0.514419 -0.287548
C63   C     C_R   0.612726 0.804948 0.505043 0.017657
C64   C     C_3   0.048380 0.843396 0.634959 -0.322456
C65   C     C_3   0.711900 0.327243 0.369206 0.298649
C66   C     C_3   0.746738 0.289010 0.314278 -0.388285
H1    H     H_    0.805159 0.230339 0.615351 0.107825
H2    H     H_    0.361352 0.153307 0.364427 0.132158
H3    H     H_    0.318695 0.131279 0.426356 0.057178
H4    H     H_    0.155864 0.137180 0.379536 0.115695
H5    H     H_    0.213003 0.726491 0.604069 0.052829
H6    H     H_    0.913859 0.867531 0.637302 0.106124
H7    H     H_    0.105905 0.889971 0.615476 0.075609
H8    H     H_    0.099912 0.845057 0.673768 0.087381
H9    H     H_    0.826233 0.347759 0.387316 0.028892
H10   H     H_    0.613160 0.386227 0.371469 0.042298
H11   H     H_    0.702211 0.087152 0.622296 0.074766
H12   H     H_    0.844544 0.229505 0.311766 0.132877
H13   H     H_    0.790189 0.339415 0.294516 0.083550
H14   H     H_    0.633241 0.268578 0.295058 0.125734
H15   H     H_    0.584002 0.238975 0.606348 -0.027787
H16   H     H_    0.573043 0.144903 0.673581 0.121070
H17   H     H_    0.440753 0.661551 0.632393 -0.081285
H18   H     H_    0.652252 0.635208 0.616985 0.079330
H19   H     H_    0.606728 0.662925 0.709008 0.038844
H20   H     H_    0.736120 0.735135 0.689673 0.132378
H21   H     H_    0.794446 0.133985 0.680671 0.131461
H22   H     H_    0.217399 0.295094 0.735166 0.130061
H23   H     H_    0.080826 0.652588 0.345521 0.066268
H24   H     H_    0.224110 0.721724 0.283900 0.150254
H25   H     H_    0.060934 0.665234 0.256854 0.089036
H26   H     H_    0.584521 0.781143 0.389486 -0.004989
H27   H     H_    0.375979 0.764651 0.392214 0.120087
H28   H     H_    0.418770 0.920533 0.377564 0.068681
H29   H     H_    0.290967 0.865305 0.330400 0.139320
H30   H     H_    0.131217 0.329973 0.651752 0.079190
H31   H     H_    0.501242 0.868823 0.316263 0.132277
H32   H     H_    0.152082 0.461812 0.284127 0.133196
H33   H     H_    0.230722 0.297352 0.118359 0.121690
H34   H     H_    0.561407 0.487407 0.756019 0.103082
H35   H     H_    0.382057 0.303890 0.964230 0.065387
H36   H     H_    0.301893 0.295522 0.034179 0.067996
H37   H     H_    0.636682 0.532259 0.243205 0.113086
H38   H     H_    0.779685 0.707472 0.124196 0.123838
H39   H     H_    0.883382 0.704391 0.964531 0.066581
H40   H     H_    0.325323 0.254546 0.648146 -0.009248
H41   H     H_    0.953928 0.703120 0.880454 0.117507
H42   H     H_    0.040362 0.533886 0.716688 0.130893
H43   H     H_    0.845445 0.710627 0.040057 0.068964
H44   H     H_    0.824129 0.552838 0.397863 0.076744
H45   H     H_    0.362621 0.443962 0.603641 0.068741
H46   H     H_    0.369983 0.308649 0.517164 0.069429
H47   H     H_    0.229357 0.040031 0.565806 0.105062
H48   H     H_    0.775274 0.113404 0.477229 0.123711
H49   H     H_    0.796569 0.700424 0.472533 0.060982
H50   H     H_    0.033465 0.247508 0.714778 0.138183
H51   H     H_    0.347367 0.888039 0.557527 0.108462
H52   H     H_    0.230669 0.175543 0.713069 0.114510
H53   H     H_    0.338246 0.295069 0.424103 0.018611
H54   H     H_    0.138427 0.278162 0.443632 0.062414
N1    N     N_R   0.937556 0.501573 0.203588 -0.424673
N2    N     N_R   0.263761 0.506234 0.796811 -0.431152
O1    O     O_2   0.906490 0.548660 0.619040 -0.463037
O2    O     O_3   0.659433 0.260367 0.391998 -0.644548
O3    O     O_3   0.120682 0.196660 0.620470 -0.611781
O4    O     O_2   0.283210 0.451320 0.380930 -0.461665
O5    O     O_3   0.051220 0.451340 0.441130 -0.494514
O6    O     O_3   0.503420 0.617610 0.414270 -0.485667
O7    O     O_3   0.152057 0.306642 0.371518 -0.627210
O8    O     O_3   0.617160 0.609950 0.527080 -0.479985
O9    O     O_3   0.088220 0.664410 0.439630 -0.489553
O10   O     O_2   0.180222 0.823413 0.465634 -0.489992
O11   O     O_3   0.089227 0.787756 0.370879 -0.630857
O12   O     O_3   0.138490 0.548590 0.558860 -0.497173
O13   O     O_3   0.572560 0.389970 0.472910 -0.485202
O14   O     O_2   0.345680 0.723560 0.528460 -0.471720
O15   O     O_3   0.540066 0.762919 0.606212 -0.659334
O16   O     O_2   0.351603 0.565443 0.328882 -0.510802
O17   O     O_3   0.500056 0.703213 0.326488 -0.605713
O18   O     O_2   0.087226 0.363004 0.197949 -0.597350
O19   O     O_2   0.423010 0.372219 0.797714 -0.563284
O20   O     O_2   0.790346 0.639583 0.202278 -0.608932
O21   O     O_2   0.101949 0.641031 0.801803 -0.605876
O22   O     O_3   0.686290 0.382320 0.585720 -0.488339
O23   O     O_2   0.842361 0.429886 0.671354 -0.497917
O24   O     O_3   0.006043 0.691415 0.631700 -0.639535
O25   O     O_3   0.663325 0.304420 0.674062 -0.586538
O26   O     O_2   0.844020 0.276410 0.471510 -0.470470
O27   O     O_3   0.101490 0.335510 0.560360 -0.485127
O28   O     O_2   0.006407 0.176623 0.528199 -0.496128
P1    P     P_3+3 0.071960 0.575810 0.612130 0.974848
P2    P     P_3+3 0.664360 0.290070 0.457280 0.973556
P3    P     P_3+3 0.143439 0.219363 0.559669 0.926781
P4    P     P_3+3 0.117760 0.424110 0.387870 0.993876
P5    P     P_3+3 0.048199 0.777439 0.433117 0.932141
P6    P     P_3+3 0.673623 0.405498 0.651256 0.969351
P7    P     P_3+3 0.533792 0.725221 0.541337 0.928785
P8    P     P_3+3 0.513163 0.599448 0.348648 0.942751
N3    N     N_3   0.004105 0.749421 0.556282 -0.482138
H55   H     H_    0.880329 0.742141 0.559577 0.131247
H56   H     H_    0.057765 0.692523 0.532173 0.225406
C67   C     C_3   0.490248 0.801763 0.713183 -0.151007
C68   C     C_3   0.544166 0.892293 0.706616 -0.158656
C69   C     C_3   0.395191 0.965456 0.701279 -0.405422
H57   H     H_    0.330185 0.948463 0.664408 0.134534
H58   H     H_    0.308674 0.971701 0.733007 0.131824
H59   H     H_    0.437492 0.031771 0.701886 0.120998
H60   H     H_    0.620651 0.915668 0.740299 0.104190
H61   H     H_    0.622308 0.884621 0.672623 0.147853
H62   H     H_    0.363629 0.796896 0.698254 0.110321
H63   H     H_    0.486896 0.798628 0.754113 0.099654
N4    N     N_3   0.850372 0.731236 0.336842 -0.496230
H64   H     H_    0.818980 0.700717 0.366471 0.106721
H65   H     H_    0.808135 0.693128 0.304545 0.202471
N5    N     N_3   0.013989 0.807176 0.264174 -0.482306
H66   H     H_    0.031714 0.863447 0.290600 0.195435
H67   H     H_    0.886983 0.807206 0.259281 0.225072
N6    N     N_3   0.476781 0.286612 0.873488 -0.432175
H68   H     H_    0.428320 0.226987 0.874125 0.170839
H69   H     H_    0.586764 0.283312 0.894395 0.172602
C70   C     C_3   0.852897 0.970547 0.420910 -0.202663
C71   C     C_3   0.731636 0.006781 0.381559 -0.231299
C72   C     C_3   0.813016 0.062000 0.349855 -0.395936
H70   H     H_    0.863675 0.117474 0.374370 0.159953
H71   H     H_    0.914774 0.018847 0.327952 0.118883
H72   H     H_    0.720985 0.090796 0.323265 0.145764
H73   H     H_    0.693565 0.948652 0.356120 0.131478
H74   H     H_    0.619273 0.047925 0.398376 0.128942
H75   H     H_    0.933829 0.017493 0.440042 0.097453
H76   H     H_    0.944918 0.925664 0.397478 0.150864

loop_
_geom_bond_atom_site_label_1
_geom_bond_atom_site_label_2
_ccdc_geom_bond_type
C25   C46   A    
C68   H61   S    
C53   C54   A    
C66   H12   S    
C68   C69   S    
O11   P5    S    
C17   C18   A    
C65   H9    S    
C63   P7    S    
Ba1   O8    S    
C1    H11   S    
C70   H76   S    
C22   C37   D    
N3    H55   S    
C55   C60   A    
C51   C52   A    
C71   C72   S    
C5    O11   S    
C21   H44   S    
C2    H15   S    
C49   P3    S    
C23   H22   S    
C35   C36   S    
C11   C16   D    
C37   P1    S    
C3    C4    S    
C66   H13   S    
C39   N2    S    
C33   N2    Am   
Ba1   O1    S    
C51   H49   S    
Ba1   O5    S    
C28   C29   A    
C32   O21   D    
C56   O24   S    
C72   H71   S    
C46   H39   S    
C31   C47   A    
C64   H6    S    
C5    N4    S    
C10   C20   A    
Ba2   O5    S    
C4    H20   S    
C54   C55   A    
C27   H35   S    
C34   C45   S    
O6    P8    S    
Ba1   Ba2   S    
N4    H64   S    
C6    N5    S    
C56   C64   S    
C17   C41   A    
C14   C15   D    
N5    H67   S    
O4    P4    D    
C14   P4    S    
C22   C36   S    
C3    O15   S    
C6    H24   S    
O27   P3    S    
Ba1   O12   S    
C51   C63   A    
O25   P6    S    
C7    H27   S    
C59   C60   A    
C16   N1    S    
C3    H17   S    
C13   C21   S    
O15   P7    S    
C57   C58   A    
C23   H50   S    
C69   H58   S    
C67   C68   S    
Ba1   O22   S    
Ba1   P2    S    
C65   H10   S    
O14   P7    D    
C2    H1    S    
N3    H56   S    
O1    P1    D    
C12   H30   S    
C19   C43   A    
C9    C18   A    
Ba2   O9    S    
C62   H46   S    
C6    H25   S    
C65   C66   S    
O8    P7    S    
C26   C30   A    
C17   C20   A    
C36   P6    S    
C11   H37   S    
C50   C62   A    
C65   O2    S    
O3    P3    S    
C37   C38   D    
C7    O17   S    
C72   H72   S    
C38   H42   S    
Ba2   O12   S    
C4    H19   S    
C10   O20   D    
C58   C59   A    
C40   C43   A    
Ba2   O14   S    
C8    H29   S    
C34   H54   S    
C41   C42   A    
C45   H2    S    
C59   H47   S    
C27   C28   A    
C2    O25   S    
C43   H36   S    
O17   P8    S    
Ba2   O8    S    
C29   C30   A    
O28   P3    D    
C8    H28   S    
C64   H8    S    
C15   C16   S    
C70   C71   S    
Ba1   O26   S    
Ba1   P1    S    
C45   H3    S    
C60   H51   S    
C53   C70   S    
C24   C27   A    
C61   H48   S    
O2    P2    S    
C38   C39   S    
C20   C44   A    
C4    C67   S    
C14   C21   D    
C11   C13   S    
C69   H57   S    
C71   H74   S    
C67   H62   S    
C40   C41   A    
C3    H18   S    
C1    C2    S    
C23   H52   S    
C5    H23   S    
C1    H16   S    
Ba1   O13   S    
N6    H68   S    
C24   C40   A    
C47   H41   S    
C7    C8    S    
C42   C48   A    
C68   H60   S    
C52   C53   A    
O7    P4    S    
C32   N2    Am   
N6    H69   S    
Ba2   O13   S    
C24   C26   A    
C9    N1    Am   
C49   C62   A    
C55   C63   A    
C50   C61   A    
C70   H75   S    
C15   H32   S    
O5    P4    S    
O22   P6    S    
C44   C48   A    
C57   C61   A    
C54   C57   A    
C1    H21   S    
C66   H14   S    
C30   C31   A    
C34   H53   S    
C19   H33   S    
C13   P8    S    
O16   P8    D    
C52   P5    S    
O12   P1    S    
O23   P6    D    
C72   H70   S    
C35   H34   S    
C10   N1    Am   
C46   C47   A    
C64   H7    S    
C44   H38   S    
C29   C33   A    
C12   H40   S    
C48   H43   S    
Ba2   O6    S    
C31   C32   A    
O13   P2    S    
Ba1   O27   S    
O9    P5    S    
C12   C23   S    
C35   C39   D    
C8    H31   S    
C9    O18   D    
N4    H65   S    
C45   H4    S    
C5    C6    S    
C12   O3    S    
C67   H63   S    
C22   H45   S    
O10   P5    D    
C18   C19   A    
C69   H59   S    
N5    H66   S    
O26   P2    D    
C25   C26   A    
C28   N6    S    
C71   H73   S    
C49   C58   A    
O24   P1    S    
C25   C42   A    
C56   N3    S    
C50   P2    S    
C7    H26   S    
Ba2   P4    S    
C34   O7    S    
C56   H5    S    
C33   O19   D    
Ba2   O4    S    
