data_mof_unit_23281.cif
_audit_creation_date              2012-12-10T17:08:43-0500
_audit_creation_method            fapswitch 2.2
_symmetry_space_group_name_H-M    P1
_symmetry_Int_Tables_number       1
_space_group_crystal_system       triclinic
_cell_length_a                    15.741107
_cell_length_b                    10.695517
_cell_length_c                    10.074046
_cell_angle_alpha                 90.488707
_cell_angle_beta                  90.890917
_cell_angle_gamma                 90.667102
_cell_volume                      1695.6747685

loop_
_atom_site_label
_atom_site_type_symbol
_atom_type_description
_atom_site_fract_x
_atom_site_fract_y
_atom_site_fract_z
_atom_type_partial_charge
C1    C     C_R   0.502866 0.263030 0.499356 1.005509
C2    C     C_2   0.523360 0.868089 0.500659 -0.448752
C3    C     C_2   0.545652 0.067197 0.402079 -0.170569
C4    C     C_R   0.338519 0.499614 0.499120 0.876075
C5    C     C_2   0.503941 0.130807 0.495893 -0.474698
C6    C     C_2   0.540774 0.583291 0.927762 0.002826
C7    C     C_2   0.549872 0.569341 0.075567 -0.162583
C8    C     C_R   0.503500 0.737561 0.500211 0.964956
C9    C     C_R   0.661441 0.500341 0.500893 0.931122
C10   C     C_3   0.051423 0.446696 0.648545 -0.247436
C11   C     C_3   0.046380 0.398052 0.397407 0.271360
C12   C     C_3   0.949987 0.439526 0.641042 0.284099
C13   C     C_3   0.948396 0.413973 0.386763 -0.415507
C14   C     C_1   0.750094 0.499313 0.503162 -0.092186
C15   C     C_3   0.082627 0.491012 0.505870 -0.090185
C16   C     C_2   0.086803 0.538444 0.755670 0.912153
C17   C     C_3   0.896899 0.418538 0.855927 0.127531
C18   C     C_3   0.864863 0.492366 0.974345 -0.718875
C19   C     C_3   0.432294 0.950058 0.208978 0.137516
C20   C     C_3   0.380979 0.862611 0.117934 -0.677013
C21   C     C_2   0.612651 0.120270 0.314834 0.973927
C22   C     C_2   0.583646 0.694255 0.872225 0.949998
C23   C     C_3   0.916966 0.494910 0.506794 -0.002110
C24   C     C_2   0.086870 0.316836 0.684774 0.821640
C25   C     C_2   0.417013 0.470624 0.101998 1.031238
C26   C     C_3   0.086565 0.312911 0.193342 0.084995
C27   C     C_3   0.126211 0.345079 0.061249 -0.699009
C28   C     C_2   0.902684 0.288526 0.369795 0.878434
C29   C     C_2   0.080436 0.684458 0.350486 0.941129
C30   C     C_3   0.919450 0.832648 0.562575 0.094768
C31   C     C_3   0.906080 0.911129 0.686962 -0.692274
C32   C     C_3   0.951186 0.630900 0.489282 0.294260
C33   C     C_3   0.049742 0.627594 0.479558 -0.287251
C34   C     C_1   0.825254 0.497653 0.504965 0.053017
C35   C     C_1   0.174555 0.493499 0.500075 0.129459
C36   C     C_1   0.249768 0.496599 0.497656 -0.037932
C37   C     C_2   0.523410 0.935622 0.388982 0.481323
H1    H     H_    0.927374 0.340971 0.636027 0.154665
H2    H     H_    0.188718 0.597857 0.864154 0.340483
H3    H     H_    0.956810 0.372137 0.886532 0.151980
H4    H     H_    0.848170 0.346436 0.827839 0.145913
H5    H     H_    0.804770 0.540034 0.947367 0.259956
H6    H     H_    0.852821 0.428234 0.058180 0.224791
H7    H     H_    0.913132 0.563437 0.006367 0.282930
H8    H     H_    0.457330 0.029113 0.149631 0.187203
H9    H     H_    0.387786 0.987282 0.284634 0.123633
H10   H     H_    0.354235 0.784206 0.176299 0.270190
H11   H     H_    0.327930 0.914342 0.070668 0.197849
H12   H     H_    0.922112 0.666584 0.395083 0.083101
H13   H     H_    0.421801 0.824116 0.039131 0.297487
H14   H     H_    0.680068 0.101802 0.147136 0.351411
H15   H     H_    0.605172 0.880243 0.886529 0.345060
H16   H     H_    0.065236 0.139774 0.745920 0.354217
H17   H     H_    0.309922 0.524638 0.007134 0.345214
H18   H     H_    0.021280 0.276009 0.173218 0.155252
H19   H     H_    0.125763 0.239520 0.241392 0.151156
H20   H     H_    0.192964 0.377008 0.077259 0.269945
H21   H     H_    0.125343 0.261518 0.995057 0.216971
H22   H     H_    0.089749 0.420834 0.013048 0.256572
H23   H     H_    0.541742 0.909940 0.595867 0.147006
H24   H     H_    0.885500 0.111537 0.432244 0.342553
H25   H     H_    0.065004 0.702637 0.152213 0.356441
H26   H     H_    0.863695 0.844580 0.494750 0.135498
H27   H     H_    0.977902 0.867407 0.513329 0.138897
H28   H     H_    0.961271 0.901538 0.756027 0.264955
H29   H     H_    0.899540 0.011065 0.660353 0.228261
H30   H     H_    0.847490 0.879612 0.737520 0.260639
H31   H     H_    0.460366 0.084546 0.562935 0.160700
H32   H     H_    0.485622 0.416814 0.893880 0.168844
H33   H     H_    0.602174 0.618845 0.125013 0.183605
H34   H     H_    0.061813 0.301917 0.431671 0.121369
H35   H     H_    0.934182 0.467548 0.294732 0.212480
H36   H     H_    0.076869 0.689700 0.559036 0.175949
N1    N     N_2   0.500900 0.501330 0.852150 -0.206954
N2    N     N_2   0.500920 0.501360 0.147810 -0.172380
O1    O     O_R   0.499990 0.319060 0.613040 -0.622495
O2    O     O_R   0.172076 0.531172 0.796197 -0.791297
O3    O     O_3   0.910338 0.500982 0.749201 -0.510795
O4    O     O_3   0.500702 0.883577 0.266213 -0.540710
O5    O     O_2   0.653024 0.213896 0.348712 -0.609257
O6    O     O_R   0.632762 0.058370 0.196799 -0.769881
O7    O     O_2   0.634392 0.683127 0.782746 -0.604894
O8    O     O_R   0.571112 0.811497 0.930501 -0.795129
O9    O     O_2   0.163397 0.298375 0.681710 -0.579913
O10   O     O_R   0.033326 0.219093 0.724552 -0.841516
O11   O     O_2   0.385688 0.369673 0.131189 -0.641388
O12   O     O_R   0.500010 0.319100 0.386900 -0.585000
O13   O     O_R   0.368748 0.557663 0.031451 -0.825927
O14   O     O_3   0.084756 0.421963 0.273236 -0.566265
O15   O     O_2   0.851363 0.273605 0.278474 -0.614167
O16   O     O_R   0.919736 0.189705 0.455773 -0.824347
O17   O     O_2   0.142387 0.754606 0.352598 -0.642364
O18   O     O_R   0.037768 0.659243 0.230154 -0.783960
O19   O     O_3   0.926859 0.705974 0.599047 -0.511459
O20   O     O_R   0.377130 0.499990 0.613120 -0.580231
O21   O     O_R   0.377160 0.500030 0.386980 -0.614024
O22   O     O_R   0.499990 0.680900 0.613100 -0.608351
O23   O     O_R   0.500010 0.680940 0.386960 -0.564874
O24   O     O_R   0.622840 0.499970 0.613020 -0.577782
O25   O     O_R   0.622870 0.500010 0.386880 -0.609422
O26   O     O_2   0.043422 0.621981 0.801565 -0.548700
Zn1   Zn    Zn3+2 0.499980 0.499970 0.650990 1.015882
Zn2   Zn    Zn3+2 0.500020 0.500030 0.349010 1.033473

loop_
_geom_bond_atom_site_label_1
_geom_bond_atom_site_label_2
_ccdc_geom_bond_type
C1    O12   A    
C31   H29   S    
C32   O19   S    
C4    C36   S    
C30   H27   S    
C35   C36   T    
C8    O22   A    
C26   H18   S    
C7    H33   S    
C19   H9    S    
C26   O14   S    
C31   H30   S    
C37   O4    S    
C12   C23   S    
C26   C27   S    
C1    C5    S    
C22   O7    D    
C10   C15   S    
C18   H5    S    
C30   C31   S    
C2    H23   S    
O23   Zn2   S    
C6    C22   S    
C29   C33   S    
C13   C23   S    
C16   O2    S    
C8    O23   A    
C17   O3    S    
C20   H13   S    
C4    O21   A    
C11   C15   S    
C19   C20   S    
C12   O3    S    
C13   C28   S    
C24   O10   S    
H14   O6    S    
O22   Zn1   S    
O20   Zn1   S    
N1    Zn1   S    
C9    O24   A    
C30   H26   S    
N2    Zn2   S    
C5    H31   S    
C15   C35   S    
C6    N1    D    
O1    Zn1   S    
C27   H20   S    
C10   C16   S    
C7    N2    D    
C10   C24   S    
C25   O13   S    
C25   N2    S    
C17   H3    S    
H15   O8    S    
C9    C14   S    
C18   H7    S    
C4    O20   A    
C11   O14   S    
C23   C34   S    
C17   C18   S    
H32   N1    S    
C19   O4    S    
C20   H11   S    
C10   C12   S    
O12   Zn2   S    
C33   H36   S    
C21   O6    S    
C9    O25   A    
C3    C21   S    
H2    O2    S    
C31   H28   S    
C1    O1    A    
C2    C8    S    
C23   C32   S    
C3    C5    D    
C27   H21   S    
C26   H19   S    
C14   C34   T    
C28   O15   D    
C19   H8    S    
C6    C7    S    
C13   H35   S    
C32   C33   S    
H17   O13   S    
C24   O9    D    
C30   O19   S    
C27   H22   S    
C18   H6    S    
C22   O8    S    
C29   O18   S    
C11   C13   S    
C2    C37   D    
C21   O5    D    
C25   O11   D    
C28   O16   S    
C11   H34   S    
O25   Zn2   S    
C12   H1    S    
C17   H4    S    
C32   H12   S    
C20   H10   S    
C16   O26   D    
O24   Zn1   S    
C3    C37   S    
H25   O18   S    
H16   O10   S    
O21   Zn2   S    
C15   C33   S    
C29   O17   D    
H24   O16   S    
