data_mof_unit_15225.cif
_audit_creation_date              2012-10-26T20:37:58-0400
_audit_creation_method            fapswitch 2.2
_symmetry_space_group_name_H-M    P1
_symmetry_Int_Tables_number       1
_space_group_crystal_system       triclinic
_cell_length_a                    10.018601
_cell_length_b                    10.953303
_cell_length_c                    12.966523
_cell_angle_alpha                 87.510721
_cell_angle_beta                  74.856413
_cell_angle_gamma                 108.858441
_cell_volume                      1286.96537234

loop_
_atom_site_label
_atom_site_type_symbol
_atom_type_description
_atom_site_fract_x
_atom_site_fract_y
_atom_site_fract_z
_atom_type_partial_charge
C1    C     C_R   0.441157 0.255224 0.508084 0.547063
C2    C     C_R   0.656298 0.640901 0.009719 -0.147477
C3    C     C_R   0.351870 0.378614 0.881659 -0.158242
C4    C     C_R   0.651881 0.615808 0.115999 -0.160529
C5    C     C_R   0.551767 0.586328 0.859101 0.012570
C6    C     C_R   0.438130 0.417090 0.143163 0.007434
C7    C     C_R   0.550674 0.557960 0.967206 0.052396
C8    C     C_R   0.443494 0.442301 0.033613 0.049062
C9    C     C_2   0.407118 0.116178 0.522273 -0.133470
C10   C     C_2   0.590902 0.884219 0.469998 -0.137926
C11   C     C_2   0.505009 0.065589 0.471623 -0.178609
C12   C     C_R   0.558855 0.745147 0.489833 0.546615
C13   C     C_2   0.484160 0.931826 0.506048 -0.171962
C14   C     C_3   0.327617 0.292482 0.215776 -0.261102
C15   C     C_3   0.172508 0.299505 0.255947 -0.415982
C16   C     C_3   0.647642 0.718887 0.791578 -0.274298
C17   C     C_3   0.590534 0.826660 0.832794 -0.452882
C18   C     C_3   0.814600 0.355370 0.579425 -0.208411
C19   C     C_3   0.812095 0.238393 0.518549 -0.434408
C20   C     C_3   0.151818 0.671353 0.494190 -0.208247
C21   C     C_3   0.249548 0.726428 0.378193 -0.401603
C22   C     C_2   0.075021 0.525436 0.510323 0.118799
C23   C     C_2   0.916773 0.482355 0.508066 0.126480
C24   C     C_R   0.472897 0.497983 0.701778 0.532894
C25   C     C_R   0.526848 0.502169 0.298113 0.534275
C26   C     C_R   0.541807 0.508114 0.183401 0.010837
C27   C     C_R   0.456123 0.490889 0.816480 0.016191
C28   C     C_R   0.344336 0.354948 0.988717 -0.147897
Cu1   Cu    Cu3+1 0.647370 0.522180 0.481340 0.896194
Cu2   Cu    Cu3+1 0.352630 0.477820 0.518660 0.896643
H1    H     H_    0.731261 0.684870 0.147296 0.120644
H2    H     H_    0.070155 0.347477 0.565603 0.212627
H3    H     H_    0.172860 0.382274 0.302269 0.191378
H4    H     H_    0.127596 0.311621 0.188156 0.137664
H5    H     H_    0.097378 0.208060 0.309646 0.124952
H6    H     H_    0.324646 0.206457 0.173050 0.117987
H7    H     H_    0.362690 0.271213 0.286867 0.160803
H8    H     H_    0.476106 0.805008 0.828273 0.154786
H9    H     H_    0.591335 0.836794 0.917355 0.153366
H10   H     H_    0.661458 0.921050 0.781582 0.134602
H11   H     H_    0.764654 0.742422 0.789725 0.129651
H12   H     H_    0.278610 0.306016 0.848324 0.119127
H13   H     H_    0.649097 0.721535 0.705956 0.178224
H14   H     H_    0.802522 0.259339 0.436976 0.172880
H15   H     H_    0.912955 0.213486 0.507140 0.110104
H16   H     H_    0.718677 0.151541 0.565524 0.149200
H17   H     H_    0.849350 0.342583 0.652583 0.089311
H18   H     H_    0.702719 0.354203 0.615258 0.212722
H19   H     H_    0.300309 0.833834 0.371316 0.132132
H20   H     H_    0.338305 0.685533 0.353241 0.205873
H21   H     H_    0.184151 0.704738 0.320011 0.109666
H22   H     H_    0.070001 0.721571 0.513706 0.093840
H23   H     H_    0.262106 0.265127 0.033840 0.113300
H24   H     H_    0.205480 0.697954 0.557610 0.168740
H25   H     H_    0.743154 0.727118 0.962418 0.113277
H26   H     H_    0.380796 0.872125 0.563448 0.138932
H27   H     H_    0.602928 0.124375 0.408309 0.139868
H28   H     H_    0.699455 0.946572 0.419978 0.097233
H29   H     H_    0.303704 0.055415 0.580097 0.094772
H30   H     H_    0.942737 0.637953 0.403057 0.202496
N1    N     N_2   0.131210 0.444490 0.546730 -0.359621
N2    N     N_2   0.868790 0.555510 0.453270 -0.354843
O1    O     O_R   0.578710 0.332530 0.490040 -0.502298
O2    O     O_R   0.421290 0.667470 0.509960 -0.504202
O3    O     O_R   0.329810 0.295070 0.521560 -0.504673
O4    O     O_R   0.670190 0.704930 0.478440 -0.500295
O5    O     O_R   0.604230 0.515670 0.637800 -0.522946
O6    O     O_R   0.395770 0.484330 0.362200 -0.507066
O7    O     O_R   0.355330 0.478200 0.669330 -0.486981
O8    O     O_R   0.644670 0.521800 0.330670 -0.491639

loop_
_geom_bond_atom_site_label_1
_geom_bond_atom_site_label_2
_ccdc_geom_bond_type
C10   C13   D    
H2    N1    S    
C2    C4    A    
C28   H23   S    
Cu1   O1    S    
C3    H12   S    
Cu1   Cu2   S    
Cu2   O2    S    
C6    C14   S    
C9    C11   D    
C15   H4    S    
C4    C26   A    
C2    C7    A    
C14   C15   S    
C24   C27   S    
C17   H8    S    
C13   H26   S    
C18   H17   S    
C19   H15   S    
C19   H16   S    
C7    C8    A    
C20   H22   S    
C11   H27   S    
C20   C21   S    
C14   H7    S    
C11   C13   S    
C16   H13   S    
C6    C26   A    
C25   O6    A    
C10   C12   S    
C8    C28   A    
C21   H19   S    
C1    O1    A    
C3    C27   A    
C21   H20   S    
C10   H28   S    
C20   C22   S    
C24   O7    A    
Cu1   O8    S    
C2    H25   S    
C14   H6    S    
C12   O2    A    
Cu2   O3    S    
C16   H11   S    
Cu1   O4    S    
C4    H1    S    
Cu1   O5    S    
C22   N1    D    
C21   H21   S    
Cu2   O7    S    
C1    C9    S    
C19   H14   S    
Cu1   N2    S    
H30   N2    S    
C18   C19   S    
C17   H9    S    
Cu2   N1    S    
C15   H5    S    
C5    C7    A    
C22   C23   S    
C3    C28   A    
C5    C16   S    
C6    C8    A    
C25   O8    A    
C20   H24   S    
C24   O5    A    
C25   C26   S    
C5    C27   A    
C12   O4    A    
C1    O3    A    
C15   H3    S    
C23   N2    D    
Cu2   O6    S    
C18   C23   S    
C16   C17   S    
C9    H29   S    
C17   H10   S    
C18   H18   S    
