data_mof_unit_32222.cif
_audit_creation_date              2012-12-11T17:37:47-0500
_audit_creation_method            fapswitch 2.2
_symmetry_space_group_name_H-M    P1
_symmetry_Int_Tables_number       1
_space_group_crystal_system       triclinic
_cell_length_a                    12.996316
_cell_length_b                    13.119351
_cell_length_c                    15.248138
_cell_angle_alpha                 116.34649
_cell_angle_beta                  63.499989
_cell_angle_gamma                 97.215265
_cell_volume                      2076.49912263

loop_
_atom_site_label
_atom_site_type_symbol
_atom_type_description
_atom_site_fract_x
_atom_site_fract_y
_atom_site_fract_z
_atom_type_partial_charge
C1    C     C_R   0.066547 0.819744 0.990045 -0.211128
C2    C     C_R   0.296471 0.597654 0.790845 -0.148687
C3    C     C_R   0.259347 0.413758 0.043691 -0.218373
C4    C     C_R   0.679032 0.474727 0.220350 -0.095511
C5    C     C_R   0.059691 0.282124 0.685016 -0.235980
C6    C     C_R   0.362188 0.433003 0.970696 0.164970
C7    C     C_R   0.044169 0.173282 0.676102 -0.026728
C8    C     C_R   0.290538 0.573167 0.694780 0.098966
C9    C     C_R   0.976382 0.167861 0.075596 0.057158
C10   C     C_R   0.379942 0.643975 0.218654 -0.018246
C11   C     C_R   0.274595 0.706586 0.300229 -0.136163
C12   C     C_R   0.669537 0.550549 0.324050 0.100977
C13   C     C_R   0.269250 0.825816 0.357722 0.126033
C14   C     C_R   0.372762 0.879459 0.336669 -0.150727
C15   C     C_R   0.478349 0.815835 0.257702 -0.143689
C16   C     C_R   0.756404 0.519955 0.892646 -0.140631
C17   C     C_R   0.481762 0.698377 0.197806 -0.018644
C18   C     C_R   0.142779 0.990382 0.527712 -0.247968
C19   C     C_R   0.058245 0.079638 0.576300 0.120151
C20   C     C_R   0.992744 0.082863 0.524967 -0.012080
C21   C     C_R   0.002139 0.988711 0.432444 -0.233570
C22   C     C_R   0.077016 0.894617 0.390154 0.069775
C23   C     C_R   0.662348 0.462011 0.926804 0.141392
C24   C     C_R   0.157579 0.898220 0.429332 0.006196
C25   C     C_R   0.798200 0.187557 0.643882 -0.200271
C26   C     C_R   0.711627 0.259313 0.664474 -0.092430
C27   C     C_R   0.738278 0.331543 0.613807 -0.222684
C28   C     C_R   0.011459 0.704579 0.305222 -0.144579
C29   C     C_R   0.851494 0.329317 0.539298 -0.129584
C30   C     C_R   0.938645 0.253022 0.512742 0.537727
C31   C     C_R   0.911216 0.180245 0.565333 -0.042430
C32   C     C_R   0.782353 0.798614 0.631692 -0.144442
C33   C     C_R   0.704916 0.721272 0.605800 -0.193968
C34   C     C_R   0.069672 0.798987 0.301204 0.053893
C35   C     C_R   0.651375 0.732631 0.548010 0.155753
C36   C     C_R   0.676144 0.821700 0.516656 -0.137208
C37   C     C_R   0.752551 0.899317 0.543943 -0.130922
C38   C     C_R   0.805936 0.887684 0.601294 -0.080529
C39   C     C_R   0.468077 0.656542 0.618267 -0.242704
C40   C     C_R   0.676042 0.422881 0.990883 -0.146922
C41   C     C_R   0.369208 0.608118 0.610097 0.025532
C42   C     C_R   0.355282 0.584975 0.516357 -0.151761
C43   C     C_R   0.453993 0.578128 0.422035 0.464150
C44   C     C_R   0.561140 0.600669 0.425520 -0.025138
C45   C     C_R   0.338070 0.515289 0.948013 -0.100361
C46   C     C_R   0.562120 0.658213 0.528149 -0.046636
C47   C     C_R   0.197420 0.496537 0.461396 -0.195415
C48   C     C_R   0.094014 0.508510 0.458369 -0.076852
C49   C     C_R   0.030323 0.614645 0.518073 -0.159314
C50   C     C_R   0.070354 0.709685 0.580425 -0.054937
C51   C     C_R   0.174515 0.698512 0.582577 -0.097726
C52   C     C_R   0.092502 0.801657 0.206309 -0.123090
C53   C     C_R   0.239417 0.592118 0.522194 0.132673
C54   C     C_2   0.476085 0.395226 0.944584 -0.239509
C55   C     C_2   0.566390 0.446873 0.900686 -0.212758
C56   C     C_R   0.970089 0.180218 0.777965 0.510414
C57   C     C_2   0.049606 0.914214 0.880192 -0.162884
C58   C     C_2   0.147372 0.965732 0.864643 -0.155833
C59   C     C_R   0.781464 0.559225 0.315247 -0.156299
C60   C     C_R   0.956598 0.741512 0.904639 0.514449
C61   C     C_R   0.018175 0.835226 0.931396 -0.035205
C62   C     C_3   0.779152 0.790813 0.937909 0.249496
C63   C     C_3   0.696932 0.785298 0.889830 -0.934663
C64   C     C_R   0.196825 0.510754 0.695455 -0.142072
C65   C     C_R   0.032375 0.264607 0.106257 0.484538
C66   C     C_R   0.934578 0.180759 0.011501 -0.237918
H1    H     H_    0.131988 0.868118 0.012054 0.132037
H2    H     H_    0.611561 0.441142 0.195664 0.147971
H3    H     H_    0.371502 0.971311 0.378688 0.114814
H4    H     H_    0.557293 0.857967 0.241502 0.106147
H5    H     H_    0.200308 0.995626 0.563388 0.137169
H6    H     H_    0.948644 0.987643 0.394007 0.145389
H7    H     H_    0.775403 0.132820 0.684679 0.145022
H8    H     H_    0.623238 0.257013 0.718334 0.144705
H9    H     H_    0.670897 0.388290 0.631258 0.132234
H10   H     H_    0.870775 0.384916 0.499637 0.131465
H11   H     H_    0.865181 0.947436 0.622943 0.162180
H12   H     H_    0.157715 0.487569 0.641100 0.126725
H13   H     H_    0.780731 0.545312 0.828144 0.160268
H14   H     H_    0.824155 0.789498 0.675320 0.144848
H15   H     H_    0.686587 0.652909 0.630724 0.116090
H16   H     H_    0.634078 0.832622 0.473600 0.119555
H17   H     H_    0.768517 0.968876 0.521380 0.125443
H18   H     H_    0.473804 0.693139 0.694670 0.134482
H19   H     H_    0.246094 0.413645 0.414668 0.129989
H20   H     H_    0.064042 0.435949 0.408378 0.182263
H21   H     H_    0.950706 0.622660 0.514659 0.112137
H22   H     H_    0.022313 0.792581 0.625453 0.126260
H23   H     H_    0.872220 0.128391 0.987941 0.144691
H24   H     H_    0.987309 0.674686 0.366790 0.099846
H25   H     H_    0.206225 0.773288 0.628808 0.118581
H26   H     H_    0.480664 0.343889 0.982362 0.135887
H27   H     H_    0.563832 0.494747 0.859202 0.128957
H28   H     H_    0.995655 0.924951 0.846805 0.179649
H29   H     H_    0.207890 0.955449 0.891844 0.135061
H30   H     H_    0.627990 0.361500 0.019137 0.088912
H31   H     H_    0.142574 0.860533 0.175065 0.107328
H32   H     H_    0.809978 0.604375 0.377519 0.123189
H33   H     H_    0.396168 0.553812 0.896935 0.085604
H34   H     H_    0.348372 0.657627 0.825172 0.087545
H35   H     H_    0.834013 0.130920 0.862909 0.295123
H36   H     H_    0.067589 0.383189 0.217455 0.295279
H37   H     H_    0.103116 0.201708 0.429693 0.311584
H38   H     H_    0.387372 0.507641 0.319728 0.306442
H39   H     H_    0.790742 0.882677 0.980763 0.087919
H40   H     H_    0.737393 0.756089 0.999344 0.090733
H41   H     H_    0.703094 0.698492 0.825121 0.255425
H42   H     H_    0.606795 0.807659 0.954907 0.216511
H43   H     H_    0.717142 0.848472 0.855958 0.251271
H44   H     H_    0.249252 0.356227 0.079523 0.140876
H45   H     H_    0.104250 0.307186 0.619638 0.138142
H46   H     H_    0.563497 0.649600 0.136310 0.113687
H47   H     H_    0.383129 0.552535 0.173784 0.114748
H48   H     H_    0.197855 0.661792 0.317274 0.114242
N1    N     N_R   0.037320 0.720000 0.995830 -0.069825
N2    N     N_R   0.824900 0.517970 0.936430 -0.046621
N3    N     N_R   0.003190 0.648180 0.211390 -0.040785
N4    N     N_R   0.774330 0.457010 0.995830 -0.050702
N5    N     N_R   0.053760 0.709130 0.151980 -0.036905
N6    N     N_R   0.853840 0.498830 0.211390 -0.047982
N7    N     N_R   0.974250 0.667320 0.936430 -0.095373
N8    N     N_R   0.225670 0.542990 0.004170 -0.041930
N9    N     N_R   0.946240 0.290870 0.848020 -0.097394
N10   N     N_R   0.146160 0.501170 0.788610 -0.040085
N11   N     N_R   0.025750 0.332680 0.063570 -0.103243
N12   N     N_R   0.962680 0.280000 0.004170 -0.067246
N13   N     N_R   0.209230 0.553860 0.848010 -0.039714
N14   N     N_R   0.175100 0.482030 0.063570 -0.048130
N15   N     N_R   0.996810 0.351820 0.788610 -0.055194
N16   N     N_R   0.790770 0.446140 0.151990 -0.054673
Ni1   Ni    Ni4+2 0.130310 0.630310 0.000000 0.200246
Ni2   Ni    Ni4+2 0.869690 0.369690 0.000000 0.187828
Ni3   Ni    Ni4+2 0.985660 0.509480 0.863750 0.236982
Ni4   Ni    Ni4+2 0.014340 0.490520 0.136250 0.198854
O1    O     O_3   0.907127 0.093814 0.796833 -0.805049
O2    O     O_3   0.057663 0.300463 0.193322 -0.765400
O3    O     O_3   0.047381 0.250289 0.433591 -0.779578
O4    O     O_3   0.446987 0.560106 0.329006 -0.793241
O5    O     O_3   0.885834 0.726822 0.855079 -0.648338

loop_
_geom_bond_atom_site_label_1
_geom_bond_atom_site_label_2
_ccdc_geom_bond_type
N11   Ni4   S    
C25   C31   A    
C40   N4    A    
C59   N6    A    
N1    N7    A    
C6    C45   A    
N9    Ni2   S    
C27   C29   A    
C41   C42   A    
C49   H21   S    
C35   C36   A    
C55   H27   S    
C3    C6    A    
C39   C41   A    
C62   H39   S    
N1    Ni1   S    
C26   C27   A    
C37   C38   A    
N10   Ni3   S    
C18   C24   A    
C47   H19   S    
C36   C37   A    
C40   H30   S    
C39   H18   S    
C28   N3    A    
N3    N5    A    
C42   C53   S    
C30   C31   A    
C10   C17   A    
C23   C40   A    
C52   H31   S    
C43   O4    S    
C18   C19   A    
C11   H48   S    
C9    C66   A    
C26   H8    S    
C51   H25   S    
C12   C59   A    
C19   C20   A    
C36   H16   S    
N5    Ni1   S    
C32   C38   A    
C62   O5    S    
C4    C12   A    
C29   C30   A    
C25   H7    S    
C50   H22   S    
C47   C53   A    
C2    N13   A    
C5    N15   A    
C28   C34   A    
C30   O3    S    
C13   C14   A    
N9    N15   A    
C7    C56   A    
C6    C54   S    
C27   H9    S    
N3    Ni4   S    
C16   N2    A    
H36   O2    S    
C44   C46   A    
C66   H23   S    
N13   Ni1   S    
H35   O1    S    
C22   C34   S    
C21   H6    S    
C56   N9    A    
C8    C41   S    
C45   H33   S    
C5    C7    A    
C3    N14   A    
C48   H20   S    
C4    N16   A    
N2    Ni3   S    
C5    H45   S    
C25   C26   A    
C64   N10   A    
C1    H1    S    
C66   N12   A    
C13   C24   S    
C60   C61   A    
C51   C53   A    
C65   N11   A    
C63   H43   S    
N16   Ni2   S    
C58   H29   S    
C54   H26   S    
C62   C63   S    
N14   Ni4   S    
C32   H14   S    
C47   C48   A    
N12   Ni2   S    
C50   C51   A    
C57   C61   S    
C10   H47   S    
C8    C64   A    
C39   C46   A    
N15   Ni3   S    
C48   C49   A    
C16   C23   A    
C7    C19   S    
C57   H28   S    
N10   N13   A    
C43   C44   A    
N11   N12   A    
C14   H3    S    
C22   C24   A    
C42   C43   A    
C63   H41   S    
C17   H46   S    
N8    Ni1   S    
C56   O1    S    
C4    H2    S    
C18   H5    S    
C15   C17   A    
C15   H4    S    
C54   C55   D    
C64   H12   S    
C2    C8    A    
C1    C61   A    
C23   C55   S    
C62   H40   S    
C38   H11   S    
C45   N8    A    
C1    N1    A    
C34   C52   A    
C16   H13   S    
C32   C33   A    
H38   O4    S    
H37   O3    S    
C12   C44   S    
N6    N16   A    
C11   C13   A    
C57   C58   D    
C33   C35   A    
N2    N4    A    
N6    Ni4   S    
N8    N14   A    
C60   N7    A    
C9    C65   A    
C65   O2    S    
N4    Ni2   S    
C10   C11   A    
C60   O5    S    
C2    H34   S    
C52   N5    A    
C29   H10   S    
C20   C21   A    
C49   C50   A    
C59   H32   S    
C14   C15   A    
C37   H17   S    
C28   H24   S    
C3    H44   S    
N7    Ni3   S    
C63   H42   S    
C21   C22   A    
C35   C46   S    
C33   H15   S    
C20   C31   S    
