data_mof_unit_52074.cif
_audit_creation_date              2012-12-10T16:57:43-0500
_audit_creation_method            fapswitch 2.2
_symmetry_space_group_name_H-M    P1
_symmetry_Int_Tables_number       1
_space_group_crystal_system       triclinic
_cell_length_a                    7.844261
_cell_length_b                    8.573777
_cell_length_c                    18.917147
_cell_angle_alpha                 91.886368
_cell_angle_beta                  85.466991
_cell_angle_gamma                 92.593079
_cell_volume                      1266.44321276

loop_
_atom_site_label
_atom_site_type_symbol
_atom_type_description
_atom_site_fract_x
_atom_site_fract_y
_atom_site_fract_z
_atom_type_partial_charge
C1    C     C_R   0.543431 0.793767 0.499859 0.949121
C2    C     C_R   0.664941 0.564858 0.175256 0.550026
C3    C     C_R   0.543400 0.639268 0.852224 -0.338198
C4    C     C_R   0.528749 0.636292 0.147261 -0.338829
C5    C     C_R   0.662336 0.537663 0.818948 0.641362
C6    C     C_R   0.377425 0.660231 0.190158 0.636886
C7    C     C_R   0.648732 0.486471 0.748443 -0.043253
C8    C     C_R   0.358544 0.609602 0.260109 -0.066343
C9    C     C_R   0.513903 0.540283 0.710915 -0.380599
C10   C     C_R   0.499323 0.540197 0.288763 -0.380673
C11   C     C_R   0.535200 0.667906 0.071296 0.400464
C12   C     C_R   0.456576 0.206205 0.499955 0.951848
C13   C     C_R   0.542408 0.671455 0.928418 0.409753
C14   C     C_3   0.775585 0.372315 0.715408 -0.626759
C15   C     C_3   0.187136 0.630379 0.301582 -0.564995
C16   C     C_3   0.670652 0.009405 0.572190 -0.891384
C17   C     C_3   0.328952 0.990302 0.427665 -0.912930
C18   C     C_3   0.007426 0.310104 0.452666 -0.467185
C19   C     C_3   0.992336 0.689516 0.547700 -0.460032
C20   C     C_2   0.557871 0.955376 0.513524 0.000957
C21   C     C_2   0.442269 0.044521 0.486147 0.003643
C22   C     C_R   0.502642 0.504733 0.634944 0.974885
C23   C     C_R   0.498765 0.506024 0.364897 0.969788
C24   C     C_R   0.397007 0.643766 0.744918 0.518814
C25   C     C_R   0.650481 0.517530 0.244932 0.514553
C26   C     C_R   0.411607 0.692240 0.814831 0.550120
F1    F     F_    0.270645 0.702745 0.709963 -0.611895
F2    F     F_    0.785388 0.446687 0.268886 -0.613054
F3    F     F_    0.296783 0.792152 0.846040 -0.564157
F4    F     F_    0.811383 0.535457 0.134736 -0.549037
F5    F     F_    0.787460 0.483216 0.856182 -0.599196
F6    F     F_    0.247447 0.734017 0.163657 -0.595826
H1    H     H_    0.706697 0.273188 0.689572 0.205537
H2    H     H_    0.289494 0.090215 0.397774 0.235704
H3    H     H_    0.399471 0.912802 0.388462 0.240737
H4    H     H_    0.210986 0.929000 0.450565 0.255531
H5    H     H_    0.908000 0.256704 0.419846 0.205596
H6    H     H_    0.124250 0.324885 0.416803 0.208625
H7    H     H_    0.022276 0.229518 0.496187 0.184420
H8    H     H_    0.092119 0.743005 0.580306 0.227688
H9    H     H_    0.976752 0.770424 0.504381 0.178776
H10   H     H_    0.876094 0.674061 0.583885 0.210873
H11   H     H_    0.866527 0.431703 0.676021 0.245691
H12   H     H_    0.852577 0.321918 0.755054 0.281185
H13   H     H_    0.201704 0.710487 0.348077 0.207490
H14   H     H_    0.091056 0.680992 0.270050 0.288150
H15   H     H_    0.131618 0.515154 0.318744 0.252463
H16   H     H_    0.710799 0.909411 0.601853 0.232124
H17   H     H_    0.788172 0.072058 0.549716 0.255987
H18   H     H_    0.598795 0.085546 0.611421 0.239670
N1    N     N_R   0.690240 0.679989 0.961220 -0.046452
N2    N     N_R   0.387856 0.665978 0.038323 -0.045288
N3    N     N_R   0.686646 0.678582 0.031520 -0.045129
N4    N     N_R   0.391265 0.667832 0.968209 -0.063760
N5    N     N_2   0.950330 0.457950 0.481240 -0.010636
N6    N     N_2   0.049670 0.542050 0.518760 -0.015447
O1    O     O_R   0.389250 0.738570 0.504600 -0.617155
O2    O     O_R   0.610750 0.261430 0.495400 -0.623985
O3    O     O_R   0.678400 0.711620 0.492580 -0.646138
O4    O     O_R   0.321600 0.288380 0.507420 -0.640826
O5    O     O_R   0.355380 0.513500 0.607880 -0.545680
O6    O     O_R   0.644620 0.486500 0.392120 -0.545253
O7    O     O_R   0.644530 0.486550 0.595850 -0.645071
O8    O     O_R   0.355470 0.513450 0.404150 -0.651065
Zn1   Zn    Zn3+2 0.306930 0.517990 0.508030 0.960349
Zn2   Zn    Zn3+2 0.693070 0.482010 0.491970 0.957415

loop_
_geom_bond_atom_site_label_1
_geom_bond_atom_site_label_2
_ccdc_geom_bond_type
C19   N6    S    
C6    F6    S    
N5    N6    D    
C24   F1    S    
C9    C24   A    
C17   H4    S    
C1    O1    A    
C10   C23   S    
C2    C25   A    
C3    C26   A    
C2    C4    A    
C3    C13   S    
C19   H10   S    
C15   H15   S    
C16   C20   S    
C12   O2    A    
O8    Zn1   S    
C16   H16   S    
C14   H1    S    
C18   H6    S    
O7    Zn2   S    
C16   H17   S    
C4    C11   S    
C24   C26   A    
C18   N5    S    
C10   C25   A    
C4    C6    A    
C23   O8    A    
C18   H5    S    
N2    N4    A    
O4    Zn1   S    
C8    C15   S    
C5    C7    A    
C1    O3    A    
O3    Zn2   S    
C3    C5    A    
C8    C10   A    
C17   C21   S    
C9    C22   S    
C19   H8    S    
O6    Zn2   S    
N1    N3    A    
C25   F2    S    
N6    Zn1   S    
C12   O4    A    
O5    Zn1   S    
N5    Zn2   S    
C2    F4    S    
C20   C21   D    
C26   F3    S    
C14   H12   S    
C13   N4    A    
C17   H2    S    
O1    Zn1   S    
C7    C9    A    
C18   H7    S    
C15   H13   S    
C1    C20   S    
C6    C8    A    
C11   N2    A    
C17   H3    S    
C15   H14   S    
C5    F5    S    
C22   O7    A    
C13   N1    A    
C12   C21   S    
O2    Zn2   S    
C23   O6    A    
C7    C14   S    
C19   H9    S    
C16   H18   S    
C14   H11   S    
C22   O5    A    
C11   N3    A    
