data_mof_unit_60006.cif
_audit_creation_date              2012-12-10T17:00:45-0500
_audit_creation_method            fapswitch 2.2
_symmetry_space_group_name_H-M    P1
_symmetry_Int_Tables_number       1
_space_group_crystal_system       triclinic
_cell_length_a                    13.124538
_cell_length_b                    13.118346
_cell_length_c                    19.506795
_cell_angle_alpha                 100.25328
_cell_angle_beta                  80.286897
_cell_angle_gamma                 91.054147
_cell_volume                      3257.28412298

loop_
_atom_site_label
_atom_site_type_symbol
_atom_type_description
_atom_site_fract_x
_atom_site_fract_y
_atom_site_fract_z
_atom_type_partial_charge
C1    C     C_R   0.223006 0.535920 0.527017 0.513130
C2    C     C_2   0.465931 0.512927 0.985694 -0.135097
C3    C     C_2   0.540502 0.471836 0.011999 -0.136100
C4    C     C_R   0.776149 0.463568 0.473035 0.505723
C5    C     C_R   0.517886 0.479085 0.233171 0.038565
C6    C     C_2   0.887643 0.451243 0.462083 -0.082362
C7    C     C_2   0.940354 0.492762 0.512722 -0.152084
C8    C     C_2   0.110046 0.545706 0.541098 -0.107497
C9    C     C_2   0.053407 0.487157 0.498691 -0.152855
C10   C     C_2   0.544950 0.887892 0.529726 -0.082292
C11   C     C_2   0.506594 0.940391 0.487125 -0.148927
C12   C     C_R   0.475681 0.520029 0.910322 0.023209
C13   C     C_2   0.458224 0.110200 0.466950 -0.105100
C14   C     C_2   0.511586 0.053565 0.499635 -0.151496
C15   C     C_R   0.467127 0.223233 0.478864 0.513325
C16   C     C_R   0.533660 0.776376 0.521108 0.508307
C17   C     C_R   0.510793 0.486381 0.309492 0.503077
C18   C     C_R   0.490520 0.514312 0.690225 0.492647
C19   C     C_R   0.488277 0.521757 0.765996 0.047711
C20   C     C_R   0.580725 0.523957 0.794605 0.010726
C21   C     C_R   0.572680 0.523921 0.867356 -0.079513
C22   C     C_3   0.685269 0.527319 0.746865 -0.264917
C23   C     C_R   0.385616 0.523898 0.881547 -0.123029
C24   C     C_3   0.778857 0.549696 0.784290 -0.461541
C25   C     C_R   0.391851 0.525059 0.809906 -0.132141
C26   C     C_R   0.438065 0.448002 0.128321 -0.110748
C27   C     C_R   0.431428 0.451369 0.200708 -0.126998
C28   C     C_R   0.611825 0.500119 0.192184 -0.122613
C29   C     C_R   0.618948 0.494692 0.119690 -0.117022
C30   C     C_R   0.531721 0.470932 0.087729 0.040715
H1    H     H_    0.691841 0.511739 0.088782 0.103694
H2    H     H_    0.358462 0.434220 0.231433 0.127727
H3    H     H_    0.679828 0.520384 0.216142 0.130573
H4    H     H_    0.612309 0.442925 0.978512 0.114166
H5    H     H_    0.310248 0.523247 0.914243 0.106492
H6    H     H_    0.370437 0.427115 0.104101 0.107250
H7    H     H_    0.321133 0.524996 0.788141 0.118598
H8    H     H_    0.394579 0.541073 0.020407 0.120943
H9    H     H_    0.641523 0.527623 0.890934 0.108651
H10   H     H_    0.767319 0.623695 0.822662 0.153822
H11   H     H_    0.792739 0.485120 0.811593 0.145749
H12   H     H_    0.090901 0.434728 0.451980 0.160588
H13   H     H_    0.848733 0.556893 0.744557 0.140730
H14   H     H_    0.699524 0.451981 0.710193 0.177406
H15   H     H_    0.682021 0.588776 0.714684 0.141229
H16   H     H_    0.900118 0.533735 0.563216 0.127306
H17   H     H_    0.072927 0.599744 0.587017 0.105299
H18   H     H_    0.927519 0.416299 0.409953 0.091865
H19   H     H_    0.559336 0.091147 0.537052 0.162745
H20   H     H_    0.468949 0.899881 0.444670 0.133595
H21   H     H_    0.409003 0.072987 0.430481 0.108797
H22   H     H_    0.577159 0.927973 0.574811 0.092074
O1    O     O_3   0.500000 0.500000 0.500000 -0.438040
O2    O     O_R   0.441420 0.437150 0.344000 -0.545894
O3    O     O_R   0.438960 0.578560 0.667440 -0.543562
O4    O     O_R   0.575450 0.541060 0.341470 -0.546501
O5    O     O_R   0.544160 0.443230 0.647100 -0.551369
O6    O     O_R   0.530110 0.266880 0.518530 -0.539193
O7    O     O_R   0.465470 0.738830 0.563940 -0.534735
O8    O     O_R   0.266890 0.467300 0.476120 -0.541360
O9    O     O_R   0.737530 0.526990 0.441410 -0.537203
O10   O     O_R   0.276880 0.592620 0.567490 -0.537908
O11   O     O_R   0.718700 0.413090 0.514970 -0.538034
O12   O     O_R   0.414920 0.276880 0.447500 -0.538129
O13   O     O_R   0.589510 0.717410 0.470040 -0.531624
Zn1   Zn    Zn3+2 0.571990 0.407410 0.544380 0.926898
Zn2   Zn    Zn3+2 0.407420 0.421690 0.442900 0.936204
Zn3   Zn    Zn3+2 0.598910 0.570150 0.439280 0.937528
Zn4   Zn    Zn3+2 0.421690 0.600750 0.573440 0.938824

loop_
_geom_bond_atom_site_label_1
_geom_bond_atom_site_label_2
_ccdc_geom_bond_type
C3    C30   S    
C15   O12   A    
C7    H16   S    
C6    C7    D    
O1    Zn1   S    
C5    C28   A    
C2    H8    S    
C18   O5    A    
C19   C20   A    
C21   H9    S    
O5    Zn1   S    
O2    Zn2   S    
O13   Zn3   S    
C2    C12   S    
C1    O10   A    
C23   C25   A    
C2    C3    D    
C26   C27   A    
C8    H17   S    
C10   H22   S    
C10   C16   S    
C29   H1    S    
C11   H20   S    
O4    Zn3   S    
C13   C14   D    
C24   H11   S    
C17   O2    A    
C17   O4    A    
C9    H12   S    
O3    Zn4   S    
C6    H18   S    
C18   O3    A    
O7    Zn4   S    
C19   C25   A    
C12   C21   A    
C4    O11   A    
C28   C29   A    
C11   C14   S    
C20   C22   S    
C28   H3    S    
C26   C30   A    
C23   H5    S    
C13   C15   S    
C13   H21   S    
O1    Zn2   S    
C15   O6    A    
C22   C24   S    
O11   Zn1   S    
C14   H19   S    
C5    C17   S    
C10   C11   D    
C27   H2    S    
C29   C30   A    
C1    C8    S    
O12   Zn2   S    
C22   H15   S    
C24   H13   S    
C20   C21   A    
O8    Zn2   S    
C4    C6    S    
C18   C19   S    
C1    O8    A    
C26   H6    S    
C7    C9    S    
O1    Zn3   S    
O9    Zn3   S    
C12   C23   A    
C16   O13   A    
C3    H4    S    
C24   H10   S    
O1    Zn4   S    
C5    C27   A    
C4    O9    A    
O6    Zn1   S    
C22   H14   S    
O10   Zn4   S    
C25   H7    S    
C8    C9    D    
C16   O7    A    
