data_mof_unit_68501.cif
_audit_creation_date              2012-12-11T18:15:18-0500
_audit_creation_method            fapswitch 2.2
_symmetry_space_group_name_H-M    P1
_symmetry_Int_Tables_number       1
_space_group_crystal_system       triclinic
_cell_length_a                    20.368694
_cell_length_b                    20.968856
_cell_length_c                    8.869205
_cell_angle_alpha                 90.135819
_cell_angle_beta                  92.984327
_cell_angle_gamma                 90.303687
_cell_volume                      3782.90647862

loop_
_atom_site_label
_atom_site_type_symbol
_atom_type_description
_atom_site_fract_x
_atom_site_fract_y
_atom_site_fract_z
_atom_type_partial_charge
Ba1   Ba    Ba6+2 0.999980 0.452130 0.155200 1.887836
Ba2   Ba    Ba6+2 0.999980 0.547870 0.655200 1.900250
Ba3   Ba    Ba6+2 0.499980 0.952130 0.155200 1.871215
Ba4   Ba    Ba6+2 0.499980 0.047870 0.655200 1.897764
C1    C     C_3   0.971880 0.130191 0.417344 -0.179997
C2    C     C_3   0.996622 0.860890 0.005389 -0.156319
C3    C     C_3   0.469786 0.632984 0.427692 -0.174348
C4    C     C_3   0.504402 0.367050 0.014667 -0.143270
C5    C     C_R   0.162046 0.354237 0.815126 -0.011515
C6    C     C_R   0.161268 0.643307 0.312812 -0.020531
C7    C     C_R   0.662418 0.854452 0.814370 -0.007735
C8    C     C_R   0.660525 0.144930 0.314879 -0.023988
C9    C     C_R   0.140255 0.353170 0.659729 0.192989
C10   C     C_R   0.135927 0.642755 0.160405 0.188751
C11   C     C_R   0.641544 0.853856 0.658460 0.207142
C12   C     C_R   0.634632 0.146367 0.163815 0.154641
C13   C     C_R   0.138913 0.296434 0.575609 -0.031983
C14   C     C_R   0.145484 0.694061 0.065513 0.031216
C15   C     C_R   0.640438 0.797424 0.573496 -0.025880
C16   C     C_R   0.635913 0.202273 0.079420 -0.002703
C17   C     C_R   0.169354 0.242668 0.641183 -0.104451
C18   C     C_R   0.193730 0.738648 0.109234 -0.180163
C19   C     C_R   0.671351 0.743660 0.637703 -0.134013
C20   C     C_R   0.671604 0.254631 0.137697 -0.199432
C21   C     C_R   0.208216 0.246241 0.777038 0.058962
C22   C     C_R   0.221828 0.742267 0.256393 0.015463
C23   C     C_R   0.709699 0.746975 0.774235 0.062652
C24   C     C_R   0.712108 0.250078 0.270079 0.034233
C25   C     C_R   0.202656 0.301210 0.870143 -0.059541
C26   C     C_R   0.206640 0.694077 0.361312 -0.050708
C27   C     C_R   0.703130 0.801411 0.868765 -0.043773
C28   C     C_R   0.705928 0.195422 0.363501 -0.009303
C29   C     C_R   0.794449 0.698353 0.950069 -0.000326
C30   C     C_R   0.799066 0.297573 0.441519 0.048227
C31   C     C_R   0.293372 0.197699 0.952133 0.000872
C32   C     C_R   0.299433 0.797210 0.438604 0.060974
C33   C     C_R   0.782811 0.749820 0.051913 0.052343
C34   C     C_R   0.790057 0.244483 0.539864 0.045771
C35   C     C_R   0.281796 0.249102 0.054055 0.075912
C36   C     C_R   0.286891 0.746985 0.542280 0.048243
C37   C     C_R   0.846339 0.652120 0.987989 0.045266
C38   C     C_R   0.850004 0.344624 0.480171 0.069956
C39   C     C_R   0.345924 0.151812 0.988747 0.056910
C40   C     C_R   0.349888 0.844640 0.477838 0.067846
C41   C     C_R   0.881088 0.660395 0.128666 -0.251946
C42   C     C_R   0.887898 0.334713 0.615147 -0.261659
C43   C     C_R   0.380243 0.159624 0.130009 -0.228934
C44   C     C_R   0.389396 0.833904 0.609286 -0.303264
C45   C     C_3   0.996884 0.197082 0.986585 0.269045
C46   C     C_3   0.004942 0.799156 0.498612 0.278813
C47   C     C_3   0.488512 0.691907 0.998470 0.265141
C48   C     C_3   0.492457 0.304861 0.516801 0.257527
C49   C     C_R   0.864044 0.705636 0.236161 -0.000744
C50   C     C_R   0.872528 0.288890 0.721326 -0.000929
C51   C     C_R   0.361856 0.203667 0.239006 0.022331
C52   C     C_R   0.372501 0.790090 0.718649 0.030374
C53   C     C_R   0.816245 0.751119 0.195345 -0.060608
C54   C     C_R   0.825527 0.242393 0.680281 -0.027081
C55   C     C_R   0.314343 0.249478 0.198413 -0.034386
C56   C     C_R   0.321204 0.746879 0.684231 -0.009201
C57   C     C_R   0.753555 0.696114 0.816233 0.015899
C58   C     C_R   0.757260 0.300349 0.309795 0.018454
C59   C     C_R   0.251687 0.195111 0.819829 0.016132
C60   C     C_R   0.264728 0.794283 0.297175 0.032534
C61   C     C_3   0.002277 0.126822 0.031542 0.214020
C62   C     C_3   0.006756 0.866652 0.567442 0.253708
C63   C     C_3   0.486166 0.620715 0.038577 0.204683
C64   C     C_3   0.471728 0.370948 0.575677 0.231593
C65   C     C_3   0.786420 0.465258 0.867661 0.222989
C66   C     C_3   0.784149 0.529096 0.370738 0.296752
C67   C     C_3   0.283169 0.968949 0.877587 0.182518
C68   C     C_3   0.286968 0.029300 0.380411 0.279095
C69   C     C_3   0.723961 0.437948 0.941578 -0.226526
C70   C     C_3   0.725514 0.556396 0.455498 -0.327999
C71   C     C_3   0.219048 0.947882 0.953175 -0.217678
C72   C     C_3   0.228049 0.056510 0.463106 -0.313592
C73   C     C_3   0.225640 0.503753 0.830587 0.224559
C74   C     C_3   0.230718 0.503639 0.327701 0.244161
C75   C     C_3   0.720896 0.008923 0.830553 0.232926
C76   C     C_3   0.724894 0.997421 0.325483 0.254696
C77   C     C_3   0.288751 0.468655 0.798423 -0.400297
C78   C     C_3   0.297667 0.536487 0.324187 -0.439739
C79   C     C_3   0.784973 0.979304 0.784534 -0.399766
C80   C     C_3   0.787094 0.033115 0.286019 -0.409613
C81   C     C_3   0.990169 0.202265 0.418935 0.617057
C82   C     C_3   0.002318 0.790336 0.959174 0.574652
C83   C     C_3   0.489472 0.704705 0.426755 0.604182
C84   C     C_3   0.504677 0.295542 0.977033 0.577845
C85   C     C_R   0.238202 0.300128 0.011651 -0.003743
C86   C     C_R   0.240317 0.697403 0.504769 -0.040956
C87   C     C_R   0.738172 0.800064 0.010613 -0.011451
C88   C     C_R   0.744592 0.194503 0.500233 -0.000431
H1    H     H_    0.736988 0.432304 0.063755 0.049124
H2    H     H_    0.736705 0.552935 0.578586 0.096385
H3    H     H_    0.229309 0.950910 0.076642 0.071156
H4    H     H_    0.237541 0.050496 0.585924 0.097671
H5    H     H_    0.237822 0.555194 0.845132 0.052394
H6    H     H_    0.238461 0.451188 0.324996 0.069741
H7    H     H_    0.729754 0.060577 0.851206 0.062471
H8    H     H_    0.737520 0.946402 0.340913 0.068403
H9    H     H_    0.189778 0.500678 0.733724 0.126916
H10   H     H_    0.200543 0.515608 0.224928 0.099279
H11   H     H_    0.683271 0.005584 0.737649 0.134135
H12   H     H_    0.687529 0.999538 0.231553 0.128052
H13   H     H_    0.324885 0.473821 0.895929 0.154386
H14   H     H_    0.328788 0.523632 0.426379 0.149357
H15   H     H_    0.824240 0.988023 0.873801 0.147488
H16   H     H_    0.822882 0.034119 0.384899 0.147251
H17   H     H_    0.310255 0.489109 0.696526 0.112207
H18   H     H_    0.322682 0.521075 0.221776 0.111079
H19   H     H_    0.800276 0.001395 0.678140 0.125731
H20   H     H_    0.809969 0.008526 0.190925 0.116881
H21   H     H_    0.278710 0.417278 0.777770 0.112371
H22   H     H_    0.291900 0.589082 0.319999 0.113323
H23   H     H_    0.778660 0.927208 0.766368 0.133670
H24   H     H_    0.775406 0.082605 0.250409 0.096698
H25   H     H_    0.988371 0.221079 0.534362 -0.053600
H26   H     H_    0.003844 0.760876 0.062931 0.008507
H27   H     H_    0.488651 0.724850 0.541831 -0.052199
H28   H     H_    0.513070 0.268708 0.084548 -0.042339
H29   H     H_    0.928278 0.120590 0.340214 0.058059
H30   H     H_    0.999145 0.892017 0.905063 0.144827
H31   H     H_    0.426184 0.623617 0.350893 0.062425
H32   H     H_    0.496653 0.394809 0.910029 0.144325
H33   H     H_    0.988969 0.094687 0.934876 0.111599
H34   H     H_    0.994785 0.902723 0.478982 0.161811
H35   H     H_    0.472445 0.591151 0.937829 0.109043
H36   H     H_    0.443256 0.397542 0.486889 0.134483
H37   H     H_    0.160106 0.197253 0.590138 0.121969
H38   H     H_    0.212186 0.768759 0.026457 0.131083
H39   H     H_    0.662618 0.698495 0.584787 0.119489
H40   H     H_    0.667492 0.299153 0.079818 0.096005
H41   H     H_    0.806343 0.788787 0.274753 0.088318
H42   H     H_    0.815308 0.205139 0.760417 0.088481
H43   H     H_    0.304365 0.286909 0.278375 0.065040
H44   H     H_    0.308392 0.712189 0.768607 0.079341
H45   H     H_    0.234298 0.340048 0.087975 0.074830
H46   H     H_    0.233090 0.660088 0.586112 0.089383
H47   H     H_    0.733194 0.839421 0.087997 0.065989
H48   H     H_    0.740773 0.154306 0.575661 0.074493
H49   H     H_    0.757165 0.655671 0.741689 0.118048
H50   H     H_    0.760567 0.340779 0.235139 0.101056
H51   H     H_    0.253989 0.153718 0.748291 0.123561
H52   H     H_    0.272121 0.831441 0.215776 0.102790
H53   H     H_    0.012585 0.102008 0.373946 0.177125
H54   H     H_    0.039214 0.873552 0.082291 0.156583
H55   H     H_    0.509991 0.603566 0.386572 0.194069
H56   H     H_    0.553642 0.379595 0.065816 0.131608
H57   H     H_    0.019369 0.227070 0.078864 0.124394
H58   H     H_    0.015316 0.763879 0.589906 0.087014
H59   H     H_    0.511885 0.718804 0.094568 0.129731
H60   H     H_    0.493423 0.270917 0.612961 0.091820
H61   H     H_    0.967525 0.115553 0.118503 0.072789
H62   H     H_    0.968947 0.870617 0.652262 0.095922
H63   H     H_    0.447851 0.611503 0.118984 0.070602
H64   H     H_    0.437802 0.364769 0.668255 0.072070
H65   H     H_    0.831251 0.445327 0.926423 0.017541
H66   H     H_    0.830331 0.550742 0.420240 0.083740
H67   H     H_    0.326120 0.948580 0.942617 0.041236
H68   H     H_    0.333038 0.048967 0.435508 0.082678
O1    O     O_2   0.130070 0.404060 0.104920 -0.433604
O2    O     O_2   0.130070 0.595940 0.604920 -0.452783
O3    O     O_2   0.630070 0.904060 0.104920 -0.441516
O4    O     O_2   0.630070 0.095940 0.604920 -0.446727
O5    O     O_3   0.784836 0.462321 0.375713 -0.587295
O6    O     O_3   0.786455 0.532553 0.869462 -0.626122
O7    O     O_3   0.285658 0.962702 0.380968 -0.583125
O8    O     O_3   0.285729 0.035559 0.869422 -0.640229
O9    O     O_3   0.929388 0.210782 0.966668 -0.624209
O10   O     O_3   0.941732 0.791217 0.429935 -0.629656
O11   O     O_3   0.422600 0.711847 0.972422 -0.622309
O12   O     O_3   0.447920 0.287513 0.398170 -0.680173
O13   O     O_3   0.924190 0.533610 0.949240 -0.485547
O14   O     O_3   0.924190 0.466390 0.449240 -0.457915
O15   O     O_3   0.424190 0.033610 0.949240 -0.476603
O16   O     O_3   0.424190 0.966390 0.449240 -0.482890
O17   O     O_3   0.075780 0.466370 0.861070 -0.378666
O18   O     O_3   0.075780 0.533630 0.361070 -0.403594
O19   O     O_3   0.575780 0.966370 0.861070 -0.389317
O20   O     O_3   0.575780 0.033630 0.361070 -0.418802
O21   O     O_3   0.022320 0.344950 0.359800 -0.360458
O22   O     O_3   0.022320 0.655050 0.859800 -0.375757
O23   O     O_3   0.522320 0.844950 0.359800 -0.371076
O24   O     O_3   0.522320 0.155050 0.859800 -0.368224
O25   O     O_2   0.130217 0.298410 0.260932 -0.482154
O26   O     O_2   0.130890 0.701108 0.747216 -0.499428
O27   O     O_2   0.629303 0.797170 0.258263 -0.480139
O28   O     O_2   0.632684 0.203188 0.761166 -0.450973
O29   O     O_3   0.200374 0.482104 0.965687 -0.622408
O30   O     O_3   0.200462 0.518332 0.462506 -0.604993
O31   O     O_3   0.700943 0.981674 0.965318 -0.629546
O32   O     O_3   0.701784 0.019830 0.462316 -0.615216
O33   O     O_3   0.053093 0.211226 0.360037 -0.570509
O34   O     O_3   0.059552 0.783431 0.877100 -0.544128
O35   O     O_3   0.552390 0.711750 0.366674 -0.578603
O36   O     O_3   0.553943 0.285242 0.873455 -0.566616
O37   O     O_2   0.869860 0.403670 0.205810 -0.426260
O38   O     O_2   0.869860 0.596330 0.705810 -0.438235
O39   O     O_2   0.369860 0.903670 0.205810 -0.436611
O40   O     O_2   0.369860 0.096330 0.705810 -0.442367
O41   O     O_3   0.977590 0.344880 0.951200 -0.424784
O42   O     O_3   0.977590 0.655120 0.451200 -0.466418
O43   O     O_3   0.477590 0.844880 0.951200 -0.403662
O44   O     O_3   0.477590 0.155120 0.451200 -0.473003
O45   O     O_2   0.859723 0.308331 0.029636 -0.394207
O46   O     O_2   0.870558 0.707615 0.560144 -0.366809
O47   O     O_2   0.355822 0.814140 0.013449 -0.456113
O48   O     O_2   0.375486 0.217932 0.566784 -0.399376
P1    P     P_3+3 0.136530 0.426510 0.931350 1.128015
P2    P     P_3+3 0.136530 0.573490 0.431350 1.098466
P3    P     P_3+3 0.636530 0.926510 0.931350 1.120843
P4    P     P_3+3 0.636530 0.073490 0.431350 1.092317
P5    P     P_3+3 0.863410 0.426100 0.379280 1.130110
P6    P     P_3+3 0.863410 0.573900 0.879280 1.048233
P7    P     P_3+3 0.363410 0.926100 0.379280 1.113281
P8    P     P_3+3 0.363410 0.073900 0.879280 1.055196
P9    P     P_3+3 0.911593 0.290342 0.916533 1.053492
P10   P     P_3+3 0.913479 0.711846 0.421903 1.082628
P11   P     P_3+3 0.410819 0.791641 0.912825 1.050161
P12   P     P_3+3 0.413410 0.211646 0.420442 1.031828
P13   P     P_3+3 0.090906 0.705691 0.890201 1.104793
P14   P     P_3+3 0.085469 0.288836 0.394838 1.084736
P15   P     P_3+3 0.587526 0.208959 0.895581 1.116553
P16   P     P_3+3 0.585797 0.789303 0.394932 1.091811
Cl1   Cl    Cl    0.929111 0.242331 0.304770 -0.711606
Cl2   Cl    Cl    0.932361 0.767691 0.841737 -0.695338
Cl3   Cl    Cl    0.428969 0.744307 0.309435 -0.728970
Cl4   Cl    Cl    0.428077 0.272520 0.887533 -0.717774
C89   C     C_2   0.664969 0.481335 0.928363 1.060334
O49   O     O_2   0.621541 0.474780 0.016865 -0.509623
O50   O     O_R   0.658073 0.526590 0.813573 -0.726329
H69   H     H_    0.616060 0.551803 0.819430 0.380004
C90   C     C_2   0.660477 0.521818 0.422623 1.169786
O51   O     O_2   0.656148 0.477323 0.333791 -0.471803
O52   O     O_R   0.604361 0.540570 0.494127 -0.618420
H70   H     H_    0.611860 0.579793 0.559661 0.291186
C91   C     C_2   0.159617 0.989506 0.917118 1.074297
O53   O     O_2   0.110370 0.982119 0.988636 -0.502237
O54   O     O_R   0.159799 0.035762 0.804376 -0.744729
H71   H     H_    0.117734 0.061260 0.799096 0.368236
C92   C     C_2   0.162468 0.023952 0.420553 1.159835
O55   O     O_2   0.158631 0.980549 0.328506 -0.469447
O56   O     O_R   0.105435 0.042894 0.487524 -0.656667
H72   H     H_    0.111851 0.083207 0.549434 0.294693
C93   C     C_2   0.704419 0.372381 0.883215 0.799648
O57   O     O_2   0.650161 0.362957 0.822008 -0.504872
O58   O     O_R   0.749244 0.322844 0.892237 -0.778502
H73   H     H_    0.729738 0.281140 0.852972 0.310314
C94   C     C_2   0.719189 0.626109 0.419860 0.689188
O59   O     O_2   0.763352 0.662425 0.459708 -0.634221
O60   O     O_R   0.666281 0.648655 0.329899 -0.651122
H74   H     H_    0.676181 0.691931 0.286528 0.345399
C95   C     C_2   0.198971 0.879907 0.924853 0.853928
O61   O     O_2   0.150620 0.860017 0.984646 -0.595576
O62   O     O_R   0.233185 0.840029 0.830409 -0.772309
H75   H     H_    0.206104 0.801965 0.792841 0.333537
C96   C     C_2   0.225078 0.127052 0.435212 0.683497
O63   O     O_2   0.270398 0.160751 0.481563 -0.635555
O64   O     O_R   0.174358 0.153393 0.344809 -0.653503
H76   H     H_    0.185983 0.197756 0.310511 0.338150
C97   C     C_2   0.953749 0.103899 0.566939 0.871561
O65   O     O_2   0.985229 0.060115 0.625147 -0.537685
O66   O     O_R   0.898320 0.126845 0.634533 -0.791635
H77   H     H_    0.889958 0.104383 0.732876 0.297572
C98   C     C_2   0.934743 0.876652 0.082632 0.843617
O67   O     O_2   0.937608 0.891412 0.216055 -0.603610
O68   O     O_R   0.874681 0.878774 0.999466 -0.730214
H78   H     H_    0.837751 0.894285 0.062164 0.291447
C99   C     C_2   0.450417 0.607802 0.576893 0.864226
O69   O     O_2   0.479543 0.562359 0.634007 -0.502864
O70   O     O_R   0.396064 0.633106 0.644458 -0.796215
H79   H     H_    0.385678 0.610060 0.740738 0.294062
C100  C     C_2   0.452731 0.388206 0.118755 0.894027
O71   O     O_2   0.468944 0.420814 0.228808 -0.536204
O72   O     O_R   0.386217 0.375952 0.083128 -0.740648
H80   H     H_    0.356574 0.394632 0.160096 0.286433
Cl5   Cl    Cl    0.113804 0.422253 0.565353 -0.616792
Cl6   Cl    Cl    0.102024 0.574009 0.072779 -0.650341
Cl7   Cl    Cl    0.616024 0.923187 0.563788 -0.642466
Cl8   Cl    Cl    0.606109 0.076761 0.070679 -0.661687
C101  C     C_2   0.936876 0.621324 0.169465 0.876117
O73   O     O_2   0.991594 0.641025 0.147028 -0.591500
O74   O     O_R   0.927518 0.567893 0.257136 -0.743973
H81   H     H_    0.969235 0.553110 0.309089 0.372944
C102  C     C_2   0.929206 0.387031 0.655474 0.568583
O75   O     O_2   0.988708 0.379238 0.650125 -0.430368
O76   O     O_R   0.988150 0.402549 0.729998 -0.514358
H82   H     H_    0.974815 0.437124 0.818199 0.314553
C103  C     C_2   0.436936 0.121300 0.169786 0.870558
O77   O     O_2   0.491285 0.141112 0.143990 -0.616850
O78   O     O_R   0.428778 0.068702 0.260905 -0.740636
H83   H     H_    0.470866 0.053716 0.309935 0.374709
C104  C     C_2   0.444307 0.877246 0.621538 0.716334
O79   O     O_2   0.500462 0.859715 0.650904 -0.488138
O80   O     O_R   0.495548 0.891728 0.723178 -0.545916
H84   H     H_    0.478563 0.929105 0.796029 0.305883
C105  C     C_2   0.033283 0.208921 0.846565 0.768462
O81   O     O_2   0.051378 0.165637 0.766606 -0.644097
O82   O     O_R   0.047503 0.270973 0.810438 -0.750650
H85   H     H_    0.036718 0.278248 0.700604 0.280424
C106  C     C_2   0.055028 0.792875 0.380485 0.810493
O83   O     O_2   0.061100 0.741746 0.317750 -0.664803
O84   O     O_R   0.093805 0.844878 0.341111 -0.677419
H86   H     H_    0.124893 0.834245 0.259673 0.335948
C107  C     C_2   0.530228 0.701723 0.866143 0.775601
O85   O     O_2   0.548995 0.657430 0.789966 -0.630142
O86   O     O_R   0.550282 0.762614 0.835065 -0.737434
H87   H     H_    0.551249 0.766745 0.723496 0.287008
C108  C     C_2   0.559209 0.305275 0.452296 0.933611
O87   O     O_2   0.594148 0.258431 0.468219 -0.631472
O88   O     O_R   0.579223 0.357014 0.366955 -0.664209
H88   H     H_    0.625072 0.351378 0.329165 0.319468
Cl9   Cl    Cl    0.083085 0.109876 0.101891 -0.584775
Cl10  Cl    Cl    0.084821 0.887339 0.653879 -0.568160
Cl11  Cl    Cl    0.563283 0.594425 0.116967 -0.553447
Cl12  Cl    Cl    0.538056 0.421583 0.641507 -0.499286
C109  C     C_2   0.788351 0.450153 0.707676 0.701821
O89   O     O_2   0.744600 0.422450 0.634087 -0.565228
O90   O     O_R   0.837210 0.480533 0.637074 -0.764391
H89   H     H_    0.879362 0.484578 0.699636 0.240470
C110  C     C_2   0.778686 0.544508 0.210360 0.731214
O91   O     O_2   0.821474 0.523109 0.137629 -0.610219
O92   O     O_R   0.724688 0.576391 0.142540 -0.721765
H90   H     H_    0.729892 0.591418 0.036439 0.326629
C111  C     C_2   0.286898 0.949227 0.720739 0.804643
O93   O     O_2   0.239700 0.929686 0.643299 -0.521832
O94   O     O_R   0.343807 0.965800 0.655939 -0.791539
H91   H     H_    0.383139 0.970368 0.727790 0.220137
C112  C     C_2   0.282582 0.047015 0.220350 0.723807
O95   O     O_2   0.324460 0.025527 0.145030 -0.616019
O96   O     O_R   0.229117 0.080157 0.154524 -0.722491
H92   H     H_    0.232555 0.092328 0.045958 0.333873

loop_
_geom_bond_atom_site_label_1
_geom_bond_atom_site_label_2
_ccdc_geom_bond_type
C51   C55   A    
C105  O82   S    
C84   O36   S    
C73   H9    S    
O78   H83   S    
Ba2   O42   S    
C69   H1    S    
C25   C85   A    
C71   H3    S    
C106  O83   D    
C54   H42   S    
C80   H20   S    
C75   H7    S    
C2    H54   S    
C69   C93   S    
O27   P16   D    
Ba3   P7    S    
O70   H79   S    
C34   C88   A    
C64   Cl12  S    
C65   C109  S    
C5    C9    A    
C65   O6    S    
C47   C107  S    
C7    C11   A    
C8    C12   A    
O23   P16   S    
C30   C38   A    
C66   C70   S    
O40   P8    D    
Ba2   O17   S    
C64   H36   S    
C112  O95   D    
C26   C86   A    
C10   Cl6   S    
C75   O31   S    
C93   O57   D    
C18   H38   S    
C1    C97   S    
C76   O32   S    
C53   H41   S    
C46   C106  S    
C21   C25   A    
C94   O60   S    
C23   C27   A    
O92   H90   S    
C24   C28   A    
Ba1   O21   S    
O2    P2    D    
C13   C17   A    
C15   C19   A    
C89   O49   D    
C74   C78   S    
O84   H86   S    
C3    C99   S    
C12   C16   A    
C45   C105  S    
C78   H22   S    
O33   P14   S    
O26   P13   D    
O44   P12   S    
Ba2   P6    S    
C99   O70   S    
C32   C40   A    
Ba4   O19   S    
O38   P6    D    
C95   O62   S    
O22   P13   S    
C15   P16   S    
C3    H31   S    
O14   P5    S    
O15   P8    S    
C72   C92   S    
O30   P2    S    
C83   O35   S    
C12   Cl8   S    
C72   H4    S    
C28   C88   A    
O4    P4    D    
Ba3   O16   S    
C29   C57   A    
C110  O91   D    
C37   C41   A    
C31   C59   A    
C92   O56   S    
C32   C60   A    
C39   C43   A    
C35   C85   A    
C33   C53   A    
C40   C44   A    
O31   P3    S    
C75   C79   S    
Ba4   P8    S    
O7    P7    S    
C48   O12   S    
C69   C89   S    
O45   P9    D    
C94   O59   D    
O39   P7    D    
C97   O65   D    
C61   Cl9   S    
O18   P2    S    
C92   O55   D    
O20   P4    S    
C14   P13   S    
O32   P4    S    
C61   H61   S    
C6    P2    S    
C107  O86   S    
Ba4   O15   S    
C65   H65   S    
C73   H5    S    
C31   C39   A    
C90   O51   D    
C56   H44   S    
O12   P12   S    
C1    C81   S    
C41   C49   A    
C80   H24   S    
C91   O53   D    
C112  O96   S    
C75   H11   S    
C58   H50   S    
C39   P8    S    
Ba1   O13   S    
C86   H46   S    
C3    H55   S    
C108  O88   S    
Ba3   P3    S    
C77   H13   S    
C1    H53   S    
Ba1   P1    S    
C79   H23   S    
C6    C10   A    
C66   O5    S    
C102  O76   S    
C62   H34   S    
C4    C84   S    
Ba3   O20   S    
C83   H27   S    
C104  O79   D    
C46   C62   S    
Ba1   O18   S    
C103  O77   D    
O16   P7    S    
C19   H39   S    
C47   C63   S    
C98   O68   S    
C17   H37   S    
C66   C110  S    
C57   H49   S    
C22   C26   A    
C27   C87   A    
C18   C22   A    
C83   Cl3   S    
C6    C26   A    
C81   Cl1   S    
Ba3   Ba4   S    
C70   C94   S    
O5    P5    S    
C17   C21   A    
C14   C18   A    
Ba1   O37   S    
C20   C24   A    
C71   C95   S    
O68   H78   S    
Ba3   O3    S    
C101  O74   S    
C72   C96   S    
C2    C82   S    
C9    C13   A    
C73   O29   S    
O8    P8    S    
C11   Cl7   S    
C38   P5    S    
C82   O34   S    
C84   Cl4   S    
C100  O72   S    
C78   H14   S    
Ba1   O1    S    
O28   P15   D    
Ba4   O40   S    
O74   H81   S    
C59   H51   S    
Ba3   O23   S    
O11   P11   S    
O64   H76   S    
C24   C58   A    
O24   P15   S    
O9    P9    S    
C74   H10   S    
Ba3   O43   S    
C70   H2    S    
O54   H71   S    
C76   C80   S    
Ba1   O41   S    
O66   H77   S    
C11   C15   A    
C76   H12   S    
C36   C56   A    
Ba2   O13   S    
O35   P16   S    
O56   H72   S    
C30   C58   A    
C63   H63   S    
C38   C42   A    
C109  O90   S    
C34   C54   A    
C3    C83   S    
O52   H70   S    
C65   C69   S    
C84   H28   S    
C4    C100  S    
C68   C72   S    
C62   Cl10  S    
C47   H59   S    
C30   C34   A    
C99   O69   D    
Ba2   O2    S    
C4    H56   S    
C106  O84   S    
O86   H87   S    
O60   H74   S    
O80   H84   S    
C62   H62   S    
C49   C53   A    
C4    H32   S    
O1    P1    D    
C29   C33   A    
C52   C56   A    
C66   H66   S    
C31   C35   A    
O96   H92   S    
C102  O75   D    
C20   H40   S    
O76   H82   S    
C73   C77   S    
C48   H60   S    
C35   C55   A    
C42   C50   A    
C82   H26   S    
C70   C90   S    
O34   P13   S    
C87   H47   S    
Ba3   O15   S    
C77   H17   S    
C67   C111  S    
C85   H45   S    
O25   P14   D    
C93   O58   S    
Ba1   P5    S    
C79   H19   S    
C71   C91   S    
C88   H48   S    
O37   P5    D    
C50   P9    S    
O21   P14   S    
C42   C102  S    
C68   H68   S    
O43   P11   S    
C29   C37   A    
O13   P6    S    
O94   H91   S    
C89   O50   S    
O29   P1    S    
C45   O9    S    
C37   P6    S    
O42   P10   S    
C95   O61   D    
C55   H43   S    
C80   H16   S    
C16   P15   S    
C111  O93   D    
O36   P15   S    
O90   H89   S    
C107  O85   D    
Ba4   O16   S    
C77   H21   S    
C36   C86   A    
C52   P11   S    
C44   C104  S    
O48   P12   D    
O88   H88   S    
C1    H29   S    
C40   P7    S    
C105  O81   D    
C10   C14   A    
C74   O30   S    
O82   H85   S    
C9    Cl5   S    
C108  O87   D    
O46   P10   D    
C45   C61   S    
C78   H18   S    
C96   O63   D    
C21   C59   A    
Ba4   O44   S    
O19   P3    S    
C48   C108  S    
C111  O94   S    
Ba1   Ba2   S    
Ba2   O22   S    
O17   P1    S    
C22   C60   A    
C13   P14   S    
C23   C57   A    
C7    P3    S    
C16   C20   A    
C5    P1    S    
C68   C112  S    
C110  O92   S    
C74   H6    S    
Ba3   O39   S    
Ba4   O4    S    
C19   C23   A    
C98   O67   D    
C48   C64   S    
C5    C25   A    
C7    C27   A    
C8    C28   A    
Ba1   O14   S    
Ba2   P2    S    
C41   C101  S    
C33   C87   A    
C32   C36   A    
C8    P4    S    
C46   O10   S    
C97   O66   S    
O3    P3    D    
C60   H52   S    
C101  O73   D    
C96   O64   S    
C61   H33   S    
C81   H25   S    
C63   H35   S    
C46   H58   S    
C2    C98   S    
C100  O71   D    
Ba4   O24   S    
C90   O52   S    
O6    P6    S    
O72   H80   S    
C67   O8    S    
C91   O54   S    
C82   Cl2   S    
C68   O7    S    
C2    H30   S    
O62   H75   S    
C43   C51   A    
C50   C54   A    
C49   P10   S    
C44   C52   A    
Ba2   O38   S    
C63   Cl11  S    
C64   H64   S    
O58   H73   S    
C51   P12   S    
C67   H67   S    
O47   P11   D    
Ba4   P4    S    
C45   H57   S    
C47   O11   S    
O41   P9    S    
C104  O80   S    
Ba2   O14   S    
C67   C71   S    
C81   O33   S    
C103  O78   S    
C79   H15   S    
C109  O89   D    
O50   H69   S    
C76   H8    S    
O10   P10   S    
C43   C103  S    
