data_mof_unit_53233.cif
_audit_creation_date              2012-12-10T20:51:43-0500
_audit_creation_method            fapswitch 2.2
_symmetry_space_group_name_H-M    P1
_symmetry_Int_Tables_number       1
_space_group_crystal_system       triclinic
_cell_length_a                    8.09782
_cell_length_b                    8.937187
_cell_length_c                    16.669093
_cell_angle_alpha                 89.543379
_cell_angle_beta                  92.288564
_cell_angle_gamma                 90.000355
_cell_volume                      1205.37056738

loop_
_atom_site_label
_atom_site_type_symbol
_atom_type_description
_atom_site_fract_x
_atom_site_fract_y
_atom_site_fract_z
_atom_type_partial_charge
C1    C     C_R   0.499977 0.217945 0.500033 0.941778
C2    C     C_R   0.500023 0.782055 0.499978 0.939694
C3    C     C_R   0.517767 0.502248 0.653988 0.873929
C4    C     C_R   0.482392 0.496223 0.345765 0.875121
C5    C     C_R   0.518709 0.515096 0.740517 -0.064022
C6    C     C_R   0.482672 0.463110 0.260273 -0.074030
C7    C     C_R   0.385174 0.586416 0.775331 -0.234423
C8    C     C_R   0.635562 0.446798 0.224218 -0.234797
C9    C     C_R   0.372672 0.588506 0.858345 0.170022
C10   C     C_R   0.643135 0.404649 0.144447 0.184437
C11   C     C_R   0.494704 0.515071 0.906121 0.275863
C12   C     C_R   0.494708 0.380425 0.099994 0.273830
C13   C     C_R   0.632955 0.450685 0.871257 -0.209947
C14   C     C_R   0.342039 0.391531 0.136242 -0.212771
C15   C     C_R   0.645353 0.451397 0.788546 -0.234938
C16   C     C_R   0.335738 0.432755 0.216324 -0.225412
C17   C     C_1   0.499986 0.065174 0.500017 -0.195878
C18   C     C_1   0.500013 0.934828 0.500001 -0.196696
H1    H     H_    0.729511 0.397969 0.908321 0.159344
H2    H     H_    0.228338 0.374466 0.101165 0.153671
H3    H     H_    0.749769 0.397490 0.762154 0.164557
H4    H     H_    0.216879 0.441808 0.243484 0.168642
N1    N     N_1   0.073640 0.500030 0.499990 -0.037153
N2    N     N_1   0.926360 0.499970 0.500010 -0.037352
N3    N     N_2   0.478668 0.507166 0.989409 -0.195234
N4    N     N_2   0.498044 0.377876 0.016299 -0.200956
O1    O     O_R   0.636850 0.285340 0.500000 -0.614389
O2    O     O_R   0.363150 0.714660 0.500000 -0.615013
O3    O     O_R   0.363100 0.285350 0.500000 -0.612838
O4    O     O_R   0.636900 0.714650 0.500000 -0.612427
O5    O     O_R   0.652140 0.498630 0.616140 -0.617858
O6    O     O_R   0.347860 0.501370 0.383860 -0.619081
O7    O     O_R   0.378390 0.498650 0.616130 -0.621299
O8    O     O_R   0.621610 0.501350 0.383870 -0.626358
Zn1   Zn    Zn3+2 0.682780 0.499990 0.500010 0.981624
Zn2   Zn    Zn3+2 0.317220 0.500010 0.499990 0.982296
H5    H     H_    0.750508 0.467093 0.257930 0.171009
H6    H     H_    0.289195 0.639192 0.737712 0.164759
C19   C     C_3   0.809861 0.394237 0.106966 -0.434154
C20   C     C_3   0.878670 0.549590 0.089317 -0.862674
H7    H     H_    0.792510 0.612233 0.047858 0.271978
H8    H     H_    0.897902 0.613592 0.145758 0.259597
H9    H     H_    0.999214 0.539028 0.060530 0.250953
H10   H     H_    0.897774 0.333131 0.148371 0.198275
H11   H     H_    0.801715 0.329438 0.050395 0.210389
C21   C     C_3   0.225261 0.663659 0.893891 -0.421794
C22   C     C_3   0.069547 0.568929 0.881693 -0.865740
H12   H     H_    0.040434 0.551695 0.816747 0.263822
H13   H     H_    0.086438 0.458432 0.911925 0.261626
H14   H     H_    0.963432 0.626984 0.907937 0.255175
H15   H     H_    0.246308 0.684040 0.959135 0.219808
H16   H     H_    0.205205 0.774979 0.864903 0.205035

loop_
_geom_bond_atom_site_label_1
_geom_bond_atom_site_label_2
_ccdc_geom_bond_type
C6    C8    A    
N1    N2    T    
C19   H10   S    
C14   C16   A    
C14   H2    S    
C2    C18   S    
C9    C11   A    
C1    C17   S    
C22   H12   S    
C19   H11   S    
C2    O4    A    
C7    C9    A    
C20   H9    S    
C1    O3    A    
C17   C18   T    
C9    C21   S    
C22   H13   S    
C3    O5    A    
C11   C13   A    
O3    Zn2   S    
C4    O6    A    
C10   C12   A    
O4    Zn1   S    
O6    Zn2   S    
C20   H8    S    
C20   H7    S    
C7    H6    S    
C12   C14   A    
N1    Zn2   S    
C22   H14   S    
C4    O8    A    
C13   C15   A    
O5    Zn1   S    
C5    C15   A    
C4    C6    S    
C8    H5    S    
C11   N3    S    
C6    C16   A    
N2    Zn1   S    
C21   H16   S    
C15   H3    S    
O7    Zn2   S    
O2    Zn2   S    
C1    O1    A    
O8    Zn1   S    
C12   N4    S    
C19   C20   S    
C5    C7    A    
C3    O7    A    
C21   C22   S    
C13   H1    S    
C2    O2    A    
O1    Zn1   S    
N3    N4    D    
C21   H15   S    
C8    C10   A    
C16   H4    S    
C10   C19   S    
C3    C5    S    
