data_mof_unit_44017.cif
_audit_creation_date              2012-12-10T18:06:50-0500
_audit_creation_method            fapswitch 2.2
_symmetry_space_group_name_H-M    P1
_symmetry_Int_Tables_number       1
_space_group_crystal_system       triclinic
_cell_length_a                    12.773833
_cell_length_b                    13.392951
_cell_length_c                    15.103387
_cell_angle_alpha                 88.799214
_cell_angle_beta                  99.658562
_cell_angle_gamma                 96.006081
_cell_volume                      2533.25326308

loop_
_atom_site_label
_atom_site_type_symbol
_atom_type_description
_atom_site_fract_x
_atom_site_fract_y
_atom_site_fract_z
_atom_type_partial_charge
Br1   Br    Br    0.796556 0.756789 0.429178 -0.323216
Br2   Br    Br    0.352631 0.807779 0.390790 -0.373481
Br3   Br    Br    0.277550 0.239487 0.641123 -0.231996
Br4   Br    Br    0.366768 0.702561 0.662636 -0.438561
Br5   Br    Br    0.394000 0.451088 0.805633 -0.389691
Br6   Br    Br    0.156006 0.368971 0.453244 -0.301159
Br7   Br    Br    0.768187 0.640096 0.633069 -0.433875
Br8   Br    Br    0.786445 0.382630 0.739419 -0.259951
C1    C     C_R   0.445022 0.308173 0.508129 0.909869
C2    C     C_R   0.696629 0.559640 0.935406 -0.143440
C3    C     C_R   0.586025 0.562079 0.902962 -0.030750
C4    C     C_R   0.436664 0.516776 0.334584 0.879294
C5    C     C_R   0.762625 0.520440 0.880237 0.411861
C6    C     C_R   0.714204 0.476450 0.797010 0.205925
C7    C     C_R   0.540108 0.514244 0.821687 0.218131
C8    C     C_R   0.701415 0.934530 0.431596 -0.118699
C9    C     C_R   0.577311 0.793617 0.458586 -0.231847
C10   C     C_R   0.335360 0.157503 0.560656 0.211544
C11   C     C_R   0.308360 0.053160 0.563888 0.417617
C12   C     C_R   0.477315 0.610514 0.104101 0.144990
C13   C     C_R   0.369087 0.989078 0.528200 -0.225700
C14   C     C_R   0.453504 0.025594 0.483702 0.043140
C15   C     C_R   0.476547 0.130132 0.473123 0.000202
C16   C     C_R   0.552023 0.689350 0.482846 0.947381
C17   C     C_R   0.523034 0.960258 0.457317 0.032515
C18   C     C_R   0.626700 0.999316 0.444454 -0.071538
C19   C     C_R   0.651247 0.102396 0.440240 0.337680
C20   C     C_R   0.568078 0.162165 0.433668 -0.165647
C21   C     C_R   0.495552 0.856995 0.448889 0.189283
C22   C     C_R   0.680463 0.832670 0.443521 0.278904
C23   C     C_R   0.374887 0.636462 0.066314 0.081106
C24   C     C_R   0.415686 0.197756 0.510858 -0.217932
C25   C     C_R   0.146867 0.640980 0.634343 -0.218655
C26   C     C_R   0.754556 0.406009 0.374090 0.060121
C27   C     C_R   0.844939 0.408933 0.334155 0.407185
C28   C     C_R   0.563228 0.483732 0.665469 0.973307
C29   C     C_R   0.941638 0.449992 0.381955 -0.144346
C30   C     C_R   0.949660 0.486347 0.470083 -0.025809
C31   C     C_R   0.853542 0.497727 0.502610 0.190151
C32   C     C_R   0.049419 0.524081 0.520497 -0.034742
C33   C     C_R   0.052204 0.589476 0.592487 0.000187
C34   C     C_R   0.557298 0.613110 0.049330 -0.039734
C35   C     C_R   0.960901 0.605509 0.622555 -0.105877
C36   C     C_R   0.862043 0.564352 0.579608 0.334581
C37   C     C_R   0.148006 0.497178 0.505304 0.403314
C38   C     C_R   0.239995 0.624849 0.606305 0.418698
C39   C     C_R   0.408252 0.552238 0.240137 -0.204785
C40   C     C_R   0.605556 0.486025 0.763326 -0.250237
C41   C     C_R   0.292441 0.626559 0.116504 -0.209126
C42   C     C_R   0.305926 0.581121 0.201356 0.411643
C43   C     C_R   0.491458 0.566704 0.189567 -0.272923
C44   C     C_R   0.522332 0.605430 0.956306 0.073148
C45   C     C_R   0.424926 0.642318 0.919942 -0.089795
C46   C     C_R   0.353070 0.661644 0.975378 -0.144387
C47   C     C_R   0.668362 0.618493 0.081442 0.347156
C48   C     C_R   0.736475 0.592577 0.023938 -0.074923
H1    H     H_    0.276119 0.684782 0.945475 0.176308
H2    H     H_    0.214429 0.646223 0.085614 0.213913
H3    H     H_    0.566239 0.537432 0.214673 0.225293
H4    H     H_    0.402867 0.653208 0.848585 0.206874
H5    H     H_    0.045132 0.524789 0.850896 0.388407
H6    H     H_    0.811331 0.119098 0.328655 0.376033
H7    H     H_    0.044669 0.032992 0.629108 0.413995
H8    H     H_    0.987801 0.306190 0.243561 0.385516
H9    H     H_    0.179870 0.389316 0.205707 0.369311
H10   H     H_    0.621063 0.729725 0.267227 0.368316
H11   H     H_    0.777045 0.962025 0.412511 0.218457
H12   H     H_    0.355133 0.909989 0.542526 0.237129
H13   H     H_    0.581751 0.233377 0.401586 0.182134
H14   H     H_    0.968841 0.655153 0.680031 0.211522
H15   H     H_    0.148393 0.694646 0.687498 0.202548
H16   H     H_    0.677790 0.376906 0.337475 0.141141
H17   H     H_    0.009087 0.459329 0.347094 0.233417
H18   H     H_    0.820107 0.595238 0.051300 0.262184
N1    N     N_R   0.239390 0.551900 0.544730 -0.148710
N2    N     N_R   0.759950 0.448600 0.455730 -0.130140
O1    O     O_R   0.374950 0.371210 0.521360 -0.542543
O2    O     O_2   0.933439 0.452903 0.982770 -0.193817
O3    O     O_3   0.968091 0.515353 0.825429 -0.509596
O4    O     O_2   0.789248 0.254987 0.510947 -0.248851
O5    O     O_2   0.857761 0.092682 0.516583 -0.230732
O6    O     O_3   0.827727 0.183082 0.362217 -0.498347
O7    O     O_2   0.174451 0.890809 0.592716 -0.275210
O8    O     O_2   0.240416 0.005462 0.718809 -0.233830
O9    O     O_3   0.095855 0.061991 0.590623 -0.430502
O10   O     O_2   0.723656 0.333348 0.182732 -0.264569
O11   O     O_2   0.874929 0.456953 0.167617 -0.218663
O12   O     O_R   0.542050 0.338030 0.492790 -0.625242
O13   O     O_3   0.914830 0.277082 0.217941 -0.434280
O14   O     O_2   0.187171 0.600124 0.330127 -0.228240
O15   O     O_2   0.090329 0.564582 0.179119 -0.216026
O16   O     O_3   0.183279 0.420282 0.265240 -0.550577
O17   O     O_2   0.753888 0.605446 0.255669 -0.314143
O18   O     O_2   0.830091 0.741390 0.169068 -0.164622
O19   O     O_3   0.645639 0.759789 0.212917 -0.513988
O20   O     O_R   0.368720 0.526070 0.390200 -0.517851
O21   O     O_R   0.535820 0.492890 0.361630 -0.646127
O22   O     O_R   0.457950 0.661970 0.507210 -0.555825
O23   O     O_R   0.625050 0.628790 0.478640 -0.568388
O24   O     O_R   0.464180 0.507110 0.638370 -0.556977
O25   O     O_R   0.631280 0.473930 0.609800 -0.559715
O26   O     O_2   0.943892 0.633463 0.950569 -0.283934
S1    S     S_3+6 0.904755 0.530906 0.912411 0.087610
S2    S     S_3+6 0.784867 0.159183 0.460288 0.058618
S3    S     S_3+6 0.203869 0.999059 0.618987 0.111516
S4    S     S_3+6 0.836807 0.369905 0.222183 0.118016
S5    S     S_3+6 0.187772 0.544211 0.245120 0.068503
S6    S     S_3+6 0.727913 0.681106 0.182592 0.084902
Zn1   Zn    Zn3+2 0.388420 0.522150 0.519080 1.124709
Zn2   Zn    Zn3+2 0.611580 0.477850 0.480920 1.038962

loop_
_geom_bond_atom_site_label_1
_geom_bond_atom_site_label_2
_ccdc_geom_bond_type
H9    O16   S    
C47   C48   A    
C25   C38   A    
Br6   C37   S    
C16   O23   A    
C9    C21   A    
C20   H13   S    
Br4   C38   S    
C45   C46   A    
O18   S6    D    
C18   C19   A    
O4    S2    D    
Br2   C21   S    
C16   O22   A    
C7    C40   A    
C11   C13   A    
O14   S5    D    
C10   C11   A    
C12   C43   A    
C1    O12   A    
C30   C31   A    
C8    C22   A    
C19   S2    S    
Br3   C10   S    
C26   C27   A    
C3    C44   A    
C1    C24   S    
C3    C7    A    
C14   C17   A    
O13   S4    S    
C5    S1    S    
C2    C48   A    
O12   Zn2   S    
H6    O6    S    
O24   Zn1   S    
O22   Zn1   S    
C13   C14   A    
H7    O9    S    
C17   C21   A    
C9    C22   A    
C33   C35   A    
O3    S1    S    
O10   S4    D    
H8    O13   S    
C23   C41   A    
C4    C39   S    
O9    S3    S    
C38   N1    A    
C45   H4    S    
C39   C42   A    
C8    C18   A    
C32   C37   A    
N1    Zn1   S    
C9    C16   S    
C48   H18   S    
O15   S5    D    
C2    C3    A    
C39   C43   A    
C17   C18   A    
C31   N2    A    
O23   Zn2   S    
C41   H2    S    
O7    S3    D    
C28   O25   A    
C35   C36   A    
C29   C30   A    
C34   C47   A    
O16   S5    S    
C12   C34   A    
O8    S3    D    
C28   O24   A    
C8    H11   S    
C1    O1    A    
C15   C20   A    
O1    Zn1   S    
C4    O21   A    
C11   S3    S    
C32   C33   A    
C35   H14   S    
C13   H12   S    
C42   S5    S    
C43   H3    S    
C26   H16   S    
C44   C45   A    
C29   H17   S    
Br8   C6    S    
C27   C29   A    
O2    S1    D    
C2    C5    A    
C6    C40   A    
C31   C36   A    
O5    S2    D    
O20   Zn1   S    
C47   S6    S    
C37   N1    A    
C25   C33   A    
C15   C24   A    
O25   Zn2   S    
O17   S6    D    
C27   S4    S    
C30   C32   A    
O21   Zn2   S    
O11   S4    D    
H5    O3    S    
Br1   C22   S    
C28   C40   S    
C23   C46   A    
O26   S1    D    
Br5   C7    S    
O19   S6    S    
C25   H15   S    
C10   C24   A    
N2    Zn2   S    
C41   C42   A    
C26   N2    A    
C19   C20   A    
O6    S2    S    
C14   C15   A    
C4    O20   A    
Br7   C36   S    
C5    C6    A    
C12   C23   A    
C34   C44   A    
H10   O19   S    
C46   H1    S    
