data_mof_unit_56979.cif
_audit_creation_date              2012-12-10T18:47:08-0500
_audit_creation_method            fapswitch 2.2
_symmetry_space_group_name_H-M    P1
_symmetry_Int_Tables_number       1
_space_group_crystal_system       triclinic
_cell_length_a                    10.692768
_cell_length_b                    9.845116
_cell_length_c                    14.924247
_cell_angle_alpha                 90.32465
_cell_angle_beta                  90.044175
_cell_angle_gamma                 89.821225
_cell_volume                      1571.06517044

loop_
_atom_site_label
_atom_site_type_symbol
_atom_type_description
_atom_site_fract_x
_atom_site_fract_y
_atom_site_fract_z
_atom_type_partial_charge
C1    C     C_R   0.259932 0.500139 0.499930 0.870843
C2    C     C_R   0.127510 0.500272 0.499696 -0.021329
C3    C     C_R   0.591382 0.071985 0.543718 -0.077369
C4    C     C_R   0.408736 0.927996 0.456130 -0.070991
C5    C     C_R   0.408816 0.071855 0.456041 -0.060147
C6    C     C_R   0.591586 0.928166 0.543455 -0.088316
C7    C     C_R   0.498862 0.499633 0.327158 0.935666
C8    C     C_R   0.502272 0.500512 0.673055 0.955282
C9    C     C_R   0.602723 0.564759 0.814645 0.482639
C10   C     C_R   0.390053 0.452077 0.186556 0.491283
C11   C     C_R   0.504424 0.501624 0.768568 -0.191517
C12   C     C_R   0.740073 0.499875 0.500134 0.881791
C13   C     C_R   0.496166 0.498995 0.232035 -0.183275
C14   C     C_R   0.406454 0.439210 0.812819 -0.302562
C15   C     C_R   0.601281 0.545238 0.187761 -0.305951
C16   C     C_R   0.402702 0.441206 0.905259 0.092194
C17   C     C_R   0.603869 0.544649 0.095383 0.103196
C18   C     C_R   0.503552 0.497132 0.953703 -0.051010
C19   C     C_R   0.499704 0.495910 0.047129 -0.053042
C20   C     C_R   0.608344 0.553205 0.908487 -0.097272
C21   C     C_R   0.392313 0.445602 0.092439 -0.099230
C22   C     C_R   0.299521 0.386720 0.949210 -0.318191
C23   C     C_R   0.290754 0.392080 0.042670 0.544309
C24   C     C_R   0.710992 0.589328 0.051380 -0.338986
C25   C     C_3   0.670510 0.771756 0.769108 -0.241619
C26   C     C_3   0.210349 0.521923 0.254049 -0.278876
C27   C     C_3   0.075831 0.390788 0.055702 -0.278217
C28   C     C_3   0.884513 0.742834 0.950041 -0.320829
C29   C     C_R   0.714612 0.596178 0.957657 0.541352
C30   C     C_R   0.064377 0.381774 0.475114 -0.185717
C31   C     C_R   0.935639 0.618375 0.524652 -0.162790
C32   C     C_R   0.936308 0.381556 0.475346 -0.211140
C33   C     C_R   0.063712 0.618641 0.524296 -0.209004
C34   C     C_R   0.872504 0.499831 0.500151 -0.007346
H1    H     H_    0.225330 0.339918 0.910524 0.158475
H2    H     H_    0.681447 0.580943 0.225832 0.154725
H3    H     H_    0.043956 0.339297 0.993406 0.171965
H4    H     H_    0.082120 0.502577 0.045306 0.138204
H5    H     H_    0.003235 0.373770 0.107468 0.191011
H6    H     H_    0.946622 0.712023 0.006034 0.152585
H7    H     H_    0.817119 0.822603 0.972456 0.144468
H8    H     H_    0.944584 0.788820 0.897869 0.199261
H9    H     H_    0.113638 0.290183 0.455050 0.162155
H10   H     H_    0.886386 0.709991 0.544699 0.153063
H11   H     H_    0.887575 0.289829 0.455505 0.158655
H12   H     H_    0.792338 0.617293 0.090530 0.146122
H13   H     H_    0.112446 0.710416 0.544038 0.156929
H14   H     H_    0.664451 0.126426 0.578750 0.130972
H15   H     H_    0.335825 0.873497 0.420956 0.125826
H16   H     H_    0.335997 0.126223 0.420759 0.140949
H17   H     H_    0.665182 0.873831 0.577779 0.122922
H18   H     H_    0.668666 0.812552 0.838699 0.151387
H19   H     H_    0.580667 0.796839 0.735517 0.158433
H20   H     H_    0.746449 0.824764 0.732872 0.169819
H21   H     H_    0.184752 0.578816 0.192411 0.147721
H22   H     H_    0.255757 0.591489 0.302988 0.144049
H23   H     H_    0.122316 0.485319 0.284717 0.193969
H24   H     H_    0.330838 0.393366 0.774711 0.164036
N1    N     N_R   0.500000 0.857200 0.500000 -0.079864
N2    N     N_R   0.500000 0.142800 0.500000 -0.083293
O1    O     O_R   0.316770 0.614620 0.499990 -0.641869
O2    O     O_3   0.287166 0.408530 0.234804 -0.562699
O3    O     O_3   0.189564 0.333723 0.086120 -0.558086
O4    O     O_3   0.824559 0.628146 0.912502 -0.559119
O5    O     O_R   0.683230 0.385380 0.500010 -0.635311
O6    O     O_R   0.683230 0.614620 0.500010 -0.627249
O7    O     O_R   0.316770 0.385380 0.499990 -0.624055
O8    O     O_R   0.499980 0.614680 0.367850 -0.630606
O9    O     O_R   0.500020 0.385320 0.632150 -0.621509
O10   O     O_R   0.500020 0.614680 0.632150 -0.613538
O11   O     O_R   0.499980 0.385320 0.367850 -0.592194
O12   O     O_3   0.695139 0.630650 0.766701 -0.566704
Zn1   Zn    Zn3+2 0.500000 0.653120 0.500000 0.948356
Zn2   Zn    Zn3+2 0.500000 0.346880 0.500000 0.966206

loop_
_geom_bond_atom_site_label_1
_geom_bond_atom_site_label_2
_ccdc_geom_bond_type
O11   Zn2   S    
C31   C33   A    
C15   C17   A    
C13   C15   A    
C6    H17   S    
C12   O5    A    
N1    Zn1   S    
C9    C20   A    
C8    O10   A    
C9    O12   S    
C4    H15   S    
C2    C30   A    
C3    C6    A    
C24   H12   S    
C3    N2    A    
O10   Zn1   S    
C23   O3    S    
C5    H16   S    
C26   O2    S    
C25   H18   S    
O1    Zn1   S    
O9    Zn2   S    
C15   H2    S    
C25   O12   S    
C26   H21   S    
C27   H5    S    
C30   C32   A    
C22   H1    S    
C9    C11   A    
C8    O9    A    
C10   O2    S    
C27   O3    S    
C27   H3    S    
C8    C11   S    
C14   H24   S    
C28   O4    S    
C4    N1    A    
N2    Zn2   S    
C1    O7    A    
C25   H19   S    
C1    C2    S    
C18   C20   A    
C20   C29   A    
C21   C23   A    
C10   C21   A    
C7    O11   A    
C33   H13   S    
C26   H23   S    
C14   C16   A    
C30   H9    S    
C29   O4    S    
C17   C24   A    
C31   H10   S    
C28   H6    S    
C27   H4    S    
C12   C34   S    
C26   H22   S    
C3    H14   S    
C7    C13   S    
C31   C34   A    
C25   H20   S    
C2    C33   A    
C16   C18   A    
C18   C19   A    
C32   H11   S    
C28   H8    S    
C11   C14   A    
O7    Zn2   S    
C24   C29   A    
C7    O8    A    
C16   C22   A    
O5    Zn2   S    
C5    N2    A    
C17   C19   A    
O8    Zn1   S    
C22   C23   A    
O6    Zn1   S    
C12   O6    A    
C6    N1    A    
C28   H7    S    
C1    O1    A    
C4    C5    A    
C19   C21   A    
C10   C13   A    
C32   C34   A    
