data_mof_unit_50673.cif
_audit_creation_date              2013-03-05T15:50:47-0500
_audit_creation_method            fapswitch 2.2
_symmetry_space_group_name_H-M    P1
_symmetry_Int_Tables_number       1
_space_group_crystal_system       triclinic
_cell_length_a                    14.351351
_cell_length_b                    14.789574
_cell_length_c                    33.09315
_cell_angle_alpha                 98.090757
_cell_angle_beta                  90.029886
_cell_angle_gamma                 118.947919
_cell_volume                      6066.14049427

loop_
_atom_site_label
_atom_site_type_symbol
_atom_site_description
_atom_site_fract_x
_atom_site_fract_y
_atom_site_fract_z
_atom_type_partial_charge
O1    O     O_R   0.318160 0.824460 0.443680 -0.450453
O2    O     O_R   0.525040 0.857250 0.449830 -0.488057
C1    C     C_R   0.618178 0.908921 0.437029 0.564840
O3    O     O_R   0.684760 0.998800 0.456360 -0.447779
O4    O     O_R   0.647540 0.166310 0.470260 -0.503204
C2    C     C_R   0.595156 0.206943 0.457074 0.567852
O5    O     O_R   0.500960 0.181750 0.467450 -0.445981
O6    O     O_R   0.331100 0.981120 0.457080 -0.486892
C3    C     C_R   0.291861 0.891107 0.434908 0.565917
O7    O     O_R   0.315560 0.821140 0.532010 -0.503208
O8    O     O_R   0.522630 0.854180 0.531710 -0.512247
C4    C     C_R   0.613230 0.905215 0.551929 0.572570
O9    O     O_R   0.682160 0.995480 0.544690 -0.431058
O10   O     O_R   0.645130 0.163230 0.552140 -0.447609
C5    C     C_R   0.590166 0.200622 0.570933 0.572482
O11   O     O_R   0.498360 0.178430 0.555780 -0.504297
O12   O     O_R   0.328690 0.978040 0.538950 -0.498865
C6    C     C_R   0.288510 0.886661 0.548512 0.553912
Cr1   Cr    Cr6+3 0.424820 0.846020 0.489780 1.116270
Cr2   Cr    Cr6+3 0.657880 0.078580 0.505700 1.184985
Cr3   Cr    Cr6+3 0.417280 0.075360 0.504550 1.122488
O13   O     O_3   0.499990 0.999990 0.500010 -0.303465
C7    C     C_R   0.731330 0.438616 0.103135 -0.021536
C8    C     C_R   0.655373 0.441237 0.129390 -0.110111
C9    C     C_R   0.649105 0.412511 0.168031 0.216575
C10   C     C_R   0.721677 0.381663 0.180809 0.005612
C11   C     C_R   0.793646 0.373301 0.154146 -0.095026
C12   C     C_R   0.798555 0.400398 0.115230 0.081270
C13   C     C_R   0.677237 0.267214 0.233885 0.151683
C14   C     C_R   0.670185 0.256195 0.275345 0.128771
C15   C     C_R   0.716819 0.346453 0.305635 -0.004990
C16   C     C_R   0.774663 0.447056 0.294982 0.243976
C17   C     C_R   0.781659 0.457869 0.253570 0.120663
C18   C     C_R   0.729985 0.368194 0.223314 -0.010539
C19   C     C_R   0.616096 0.347615 0.367331 0.226504
C20   C     C_R   0.587564 0.316673 0.405953 0.195507
C21   C     C_R   0.730406 0.272339 0.407146 -0.128256
C22   C     C_R   0.758616 0.303441 0.369522 -0.078000
C23   C     C_R   0.698050 0.334795 0.348495 0.008507
C24   C     C_R   0.640117 0.270857 0.424334 -0.029907
H1    H     H_    0.602188 0.468819 0.120364 0.193230
H2    H     H_    0.823676 0.296656 0.355515 0.216333
H3    H     H_    0.848035 0.348081 0.164155 0.183628
H4    H     H_    0.775055 0.241721 0.421187 0.207839
H5    H     H_    0.246696 0.777774 0.174799 0.221266
C25   C     C_R   0.233518 0.873458 0.394452 -0.055697
C26   C     C_R   0.222216 0.955773 0.381724 0.056035
C27   C     C_R   0.213662 0.959706 0.339663 0.078296
C28   C     C_R   0.203880 0.876168 0.310561 -0.043675
C29   C     C_R   0.193600 0.785019 0.323237 0.188802
C30   C     C_R   0.207143 0.782816 0.365314 0.172998
C31   C     C_R   0.205391 0.813173 0.161778 -0.098822
C32   C     C_R   0.180688 0.793462 0.119346 0.196349
C33   C     C_R   0.100404 0.906236 0.128645 -0.134000
C34   C     C_R   0.127449 0.927451 0.170941 0.202560
C35   C     C_R   0.174999 0.875770 0.187696 -0.019575
C36   C     C_1   0.188561 0.881035 0.231234 0.117743
C37   C     C_1   0.196365 0.880394 0.267433 0.126667
C38   C     C_R   0.119443 0.833619 0.102960 -0.024323
H6    H     H_    0.055636 0.939470 0.116577 0.172261
H7    H     H_    0.857961 0.964268 0.120755 0.192742
C39   C     C_R   0.641868 0.876830 0.394979 -0.054553
C40   C     C_R   0.565111 0.785303 0.369084 0.058734
C41   C     C_R   0.568287 0.778861 0.326113 0.079165
C42   C     C_R   0.651129 0.860761 0.309412 -0.045560
C43   C     C_R   0.737129 0.942221 0.335118 0.181209
C44   C     C_R   0.734397 0.948830 0.377858 0.164807
C45   C     C_R   0.758865 0.936912 0.171414 0.177612
C46   C     C_R   0.780647 0.914062 0.131047 -0.134694
C47   C     C_R   0.601919 0.764602 0.117096 0.084586
C48   C     C_R   0.581821 0.782397 0.158369 0.184116
C49   C     C_R   0.662970 0.864502 0.185978 -0.007694
C50   C     C_1   0.654397 0.863844 0.229492 0.152616
C51   C     C_1   0.650851 0.861370 0.265764 0.132972
C52   C     C_R   0.705695 0.824998 0.104393 -0.062871
H8    H     H_    0.814123 0.296219 0.835365 0.199212
H9    H     H_    0.815962 0.318748 0.690788 0.186957
C53   C     C_R   0.622596 0.251616 0.614438 -0.027687
C54   C     C_R   0.542663 0.250666 0.639274 -0.117668
C55   C     C_R   0.557703 0.268062 0.682047 0.218830
C56   C     C_R   0.655722 0.287376 0.700455 -0.011882
C57   C     C_R   0.739221 0.298350 0.676166 -0.104485
C58   C     C_R   0.724846 0.283282 0.633239 0.198928
C59   C     C_R   0.754042 0.311725 0.849390 -0.062801
C60   C     C_R   0.756304 0.333972 0.892349 0.194406
C61   C     C_R   0.591934 0.342841 0.884294 0.052993
C62   C     C_R   0.590639 0.318839 0.842023 -0.087694
C63   C     C_R   0.674641 0.310321 0.824470 -0.028545
C64   C     C_1   0.677282 0.301788 0.780768 0.068374
C65   C     C_1   0.671542 0.296286 0.744115 0.086975
C66   C     C_R   0.681969 0.362959 0.909755 0.006852
H10   H     H_    0.464676 0.228740 0.625452 0.194628
H11   H     H_    0.525163 0.310440 0.822618 0.196322
C67   C     C_R   0.077627 0.760797 0.909292 -0.026867
C68   C     C_R   0.110690 0.861863 0.899236 0.175169
C69   C     C_R   0.126284 0.878452 0.858360 0.105202
C70   C     C_R   0.110831 0.794971 0.827956 -0.063801
C71   C     C_R   0.090456 0.699608 0.838596 -0.128110
C72   C     C_R   0.076833 0.682248 0.879047 0.156156
C73   C     C_R   0.212215 0.862116 0.768530 -0.045793
C74   C     C_R   0.216008 0.868745 0.726997 0.119195
C75   C     C_R   0.121052 0.816102 0.700935 0.065091
C76   C     C_R   0.022742 0.757140 0.717036 0.144043
C77   C     C_R   0.019892 0.751548 0.758772 -0.074074
C78   C     C_R   0.114407 0.804407 0.784521 -0.007578
C79   C     C_R   0.154523 0.917944 0.643304 0.211148
C80   C     C_R   0.200762 0.935683 0.605877 -0.091492
C81   C     C_R   0.177081 0.760312 0.593568 -0.085915
C82   C     C_R   0.131650 0.740945 0.630627 0.093013
C83   C     C_R   0.127391 0.822138 0.657026 0.030234
C84   C     C_R   0.218332 0.859699 0.582298 -0.038929
H12   H     H_    0.285442 0.901565 0.788369 0.177853
H13   H     H_    0.944186 0.705775 0.771173 0.140425
H14   H     H_    0.228768 0.011116 0.596295 0.184918
H15   H     H_    0.084691 0.637909 0.814993 0.183019
H16   H     H_    0.186310 0.699294 0.574888 0.184950
C85   C     C_R   0.656230 0.755612 0.916413 0.013544
C86   C     C_R   0.575859 0.667353 0.891066 -0.129365
C87   C     C_R   0.544774 0.676113 0.852419 -0.102813
C88   C     C_R   0.596261 0.772641 0.838085 0.019681
C89   C     C_R   0.670901 0.861498 0.864672 -0.059131
C90   C     C_R   0.696797 0.855022 0.904148 0.102913
C91   C     C_R   0.593825 0.868932 0.780983 0.109366
C92   C     C_R   0.619355 0.886651 0.740759 0.134128
C93   C     C_R   0.620624 0.807110 0.712059 0.062535
C94   C     C_R   0.600749 0.712353 0.724198 0.133955
C95   C     C_R   0.589353 0.701145 0.765157 -0.099385
C96   C     C_R   0.587412 0.779159 0.794098 -0.009110
C97   C     C_R   0.531524 0.772531 0.643846 0.083827
C98   C     C_R   0.531428 0.795110 0.604775 -0.130233
C99   C     C_R   0.723940 0.908650 0.612880 0.191483
C100  C     C_R   0.725607 0.884228 0.652775 0.197647
C101  C     C_R   0.627546 0.818029 0.668465 0.008654
C102  C     C_R   0.625561 0.866644 0.589432 -0.041496
H17   H     H_    0.541871 0.590648 0.899992 0.168347
H18   H     H_    0.485746 0.606194 0.832755 0.154625
H19   H     H_    0.583493 0.631278 0.774349 0.142369
H20   H     H_    0.454736 0.761833 0.587602 0.180589
H21   H     H_    0.713990 0.936245 0.854238 0.172266
O14   O     O_R   0.828710 0.851830 0.052170 -0.500934
O15   O     O_R   0.005980 0.823990 0.047210 -0.496465
C103  C     C_R   0.054464 0.782573 0.063261 0.575897
O16   O     O_R   0.031900 0.688850 0.050170 -0.448124
O17   O     O_R   0.830940 0.518420 0.048680 -0.472678
C104  C     C_R   0.742740 0.484351 0.065518 0.554999
O18   O     O_R   0.668160 0.499860 0.053480 -0.501967
O19   O     O_R   0.689170 0.693840 0.050110 -0.480793
C105  C     C_R   0.740826 0.790113 0.065892 0.550160
O20   O     O_R   0.803860 0.812940 0.962540 -0.469887
O21   O     O_R   0.982950 0.787950 0.964120 -0.460804
C106  C     C_R   0.023815 0.733310 0.947600 0.574962
O22   O     O_R   0.007050 0.649970 0.960540 -0.436710
O23   O     O_R   0.807910 0.482370 0.965590 -0.453757
C107  C     C_R   0.710604 0.434221 0.949880 0.569526
O24   O     O_R   0.643310 0.460980 0.963840 -0.481858
O25   O     O_R   0.666140 0.657800 0.967020 -0.497416
C108  C     C_R   0.709111 0.742457 0.951540 0.543439
Cr4   Cr    Cr6+3 0.903360 0.812540 0.006510 1.141865
Cr5   Cr    Cr6+3 0.914630 0.587050 0.006280 1.192573
Cr6   Cr    Cr6+3 0.673560 0.582680 0.008540 1.102250
O26   O     O_3   0.830520 0.660760 0.007110 -0.305159
N1    N     N_R   0.504215 0.328980 0.425561 0.116678
O27   O     O_R   0.414426 0.300531 0.405040 -0.226877
O28   O     O_R   0.520540 0.374792 0.463452 -0.255003
N2    N     N_R   0.216076 0.731074 0.093561 0.110147
O29   O     O_R   0.230264 0.660593 0.107806 -0.242216
O30   O     O_R   0.246760 0.753156 0.057520 -0.261057
N3    N     N_R   0.167436 0.693952 0.293431 0.119139
O31   O     O_R   0.227691 0.699489 0.263433 -0.272341
O32   O     O_R   0.080946 0.606032 0.295425 -0.211647
N4    N     N_R   0.192148 0.688248 0.378375 0.129855
O33   O     O_R   0.229480 0.632110 0.358350 -0.224080
O34   O     O_R   0.132703 0.653133 0.408281 -0.237212
I1    I     I_    0.203061 0.067033 0.425053 0.007063
N5    N     N_R   0.102520 0.998451 0.196374 0.101770
O35   O     O_R   0.124538 0.087292 0.185377 -0.209133
O36   O     O_R   0.050891 0.971742 0.228786 -0.247836
I2    I     I_    0.908999 0.379024 0.077734 -0.068304
I3    I     I_    0.219157 0.093384 0.319309 0.073443
N6    N     N_R   0.834843 0.032370 0.197240 0.126159
O37   O     O_R   0.930311 0.088445 0.185989 -0.216674
O38   O     O_R   0.803913 0.072999 0.228189 -0.243731
N7    N     N_R   0.828592 0.017334 0.317752 0.135194
O39   O     O_R   0.844216 0.111894 0.318649 -0.227844
O40   O     O_R   0.887233 0.987308 0.296085 -0.215859
N8    N     N_R   0.828156 0.024330 0.403756 0.122865
O41   O     O_R   0.867871 0.993927 0.430874 -0.239924
O42   O     O_R   0.873268 0.123269 0.400908 -0.258235
I4    I     I_    0.454194 0.651500 0.394592 0.039683
N9    N     N_R   0.479797 0.716214 0.172537 0.106991
O43   O     O_R   0.430703 0.757364 0.194668 -0.284797
O44   O     O_R   0.440207 0.615107 0.166501 -0.206970
I5    I     I_    0.471104 0.653905 0.074141 -0.014433
I6    I     I_    0.448298 0.646791 0.285728 0.102771
N10   N     N_R   0.831265 0.323841 0.917779 0.114630
O45   O     O_R   0.913760 0.321549 0.902497 -0.218190
O46   O     O_R   0.806917 0.297135 0.953752 -0.278070
N11   N     N_R   0.814513 0.301836 0.609485 0.111100
O47   O     O_R   0.892555 0.291122 0.623711 -0.225657
O48   O     O_R   0.827059 0.346117 0.577095 -0.272055
I7    I     I_    0.452369 0.345792 0.904772 -0.167098
N12   N     N_R   0.471697 0.263321 0.705804 0.103331
O49   O     O_R   0.404946 0.289352 0.691623 -0.232767
O50   O     O_R   0.453715 0.225043 0.739812 -0.294310
N13   N     N_R   0.127780 0.947334 0.930518 0.106977
O51   O     O_R   0.071205 0.994035 0.928838 -0.256008
O52   O     O_R   0.190429 0.970015 0.963165 -0.275879
N14   N     N_R   0.060277 0.583880 0.888322 0.108069
O53   O     O_R   0.004201 0.498874 0.862141 -0.315340
O54   O     O_R   0.121614 0.582752 0.916996 -0.221961
I8    I     I_    0.082780 0.590628 0.646501 -0.136249
I9    I     I_    0.581444 0.103890 0.292636 -0.248519
I10   I     I_    0.368061 0.957580 0.705406 -0.234039
I11   I     I_    0.171079 0.028753 0.842515 -0.062716
I12   I     I_    0.877606 0.674540 0.679634 -0.175097
N15   N     N_R   0.143733 0.000221 0.668249 0.123192
O55   O     O_R   0.191614 0.094950 0.659738 -0.220881
O56   O     O_R   0.079836 0.979985 0.697617 -0.215530
I13   I     I_    0.601976 0.132908 0.186752 -0.162894
I14   I     I_    0.799095 0.001337 0.941804 -0.069822
N16   N     N_R   0.824847 0.929918 0.677866 0.116095
O57   O     O_R   0.899301 0.025364 0.676695 -0.173167
O58   O     O_R   0.838472 0.879305 0.704326 -0.279078
I15   I     I_    0.660732 0.035081 0.723629 -0.227234
I16   I     I_    0.550190 0.969615 0.819567 -0.267188
I17   I     I_    0.583704 0.581304 0.682363 -0.162835
I18   I     I_    0.380148 0.679707 0.665602 -0.215106
N17   N     N_R   0.572257 0.419465 0.194434 0.104863
O59   O     O_R   0.524694 0.351032 0.218644 -0.233407
O60   O     O_R   0.541768 0.488242 0.191518 -0.247981
N18   N     N_R   0.821508 0.973355 0.595872 0.125855
O61   O     O_R   0.864273 0.074716 0.603905 -0.188295
O62   O     O_R   0.856361 0.931449 0.566824 -0.256458
N19   N     N_R   0.823039 0.537926 0.326228 0.110692
O63   O     O_R   0.887682 0.544482 0.355480 -0.248706
O64   O     O_R   0.795124 0.609843 0.327613 -0.237842
I19   I     I_    0.872559 0.609952 0.236595 -0.141629
N20   N     N_R   0.561990 0.391254 0.347344 0.120745
O65   O     O_R   0.558092 0.472668 0.366068 -0.208592
O66   O     O_R   0.516254 0.349836 0.310507 -0.237626

loop_
_geom_bond_atom_site_label_1
_geom_bond_atom_site_label_2
_geom_bond_distance
_ccdc_geom_bond_type
C68   N13   1.435627 S    
C62   C63   1.390609 A    
N9    O43   1.301278 A    
N10   O46   1.301721 A    
C75   C76   1.405513 A    
C50   C51   1.206406 T    
C68   C69   1.407348 A    
O19   C105  1.272071 A    
C43   N7    1.433977 S    
C99   C102  1.412633 A    
H8    C59   1.083207 S    
N17   O60   1.301481 A    
C56   C57   1.399249 A    
C32   C38   1.419448 A    
C91   C92   1.407343 A    
N5    O36   1.300877 A    
O4    Cr2   1.922378 S    
C33   H6    1.083742 S    
N13   O51   1.301142 A    
C81   C82   1.389289 A    
C4    O9    1.276721 A    
N4    O34   1.301420 A    
O8    Cr1   1.922814 S    
C73   C78   1.395340 A    
N2    O29   1.301501 A    
N12   O50   1.300730 A    
C39   C44   1.421285 A    
C94   C95   1.388773 A    
C67   C72   1.418216 A    
O25   C108  1.282103 A    
C21   C22   1.381006 A    
N15   O56   1.300822 A    
C22   H2    1.083870 S    
C21   C24   1.407056 A    
C61   C66   1.422736 A    
N7    O40   1.300901 A    
C104  O18   1.272733 A    
O4    C2    1.275747 A    
C55   C56   1.411614 A    
C34   C35   1.407547 A    
C5    C53   1.487304 S    
O18   Cr6   2.034475 S    
C79   C80   1.402502 A    
C99   N18   1.431274 S    
C5    O11   1.276502 A    
C62   H11   1.083834 S    
C69   I11   2.138835 S    
C35   C36   1.439921 S    
O6    C3    1.275392 A    
O12   C6    1.274861 A    
C86   C87   1.397694 A    
N17   O59   1.300838 A    
C76   C77   1.394683 A    
Cr4   O26   1.968028 S    
O14   Cr4   2.031206 S    
C25   C26   1.421690 A    
C31   C35   1.396685 A    
C53   C58   1.418280 A    
C10   C18   1.460897 S    
C55   N12   1.441970 S    
C92   I15   2.140500 S    
C38   C103  1.484442 S    
C74   I10   2.118738 S    
C100  C101  1.420829 A    
C41   I6    2.138564 S    
C7    C8    1.406103 A    
Cr5   O26   1.977793 S    
C95   C96   1.403341 A    
C47   C48   1.410912 A    
O20   Cr4   2.040801 S    
C44   N8    1.437656 S    
C70   C78   1.462135 S    
N3    O32   1.302937 A    
C43   C44   1.405878 A    
O2    Cr1   1.917470 S    
O22   Cr5   2.029818 S    
C3    C25   1.500187 S    
N2    O30   1.301567 A    
C4    C102  1.481176 S    
Cr3   O13   1.976857 S    
C20   N1    1.436427 S    
C8    H1    1.083374 S    
O14   C105  1.277877 A    
C98   C102  1.403735 A    
C19   N20   1.435873 S    
N19   O64   1.301036 A    
O19   Cr6   1.911021 S    
C77   C78   1.400687 A    
N6    O38   1.300992 A    
C70   C71   1.392594 A    
N1    O28   1.301244 A    
C33   C38   1.406380 A    
N13   O52   1.301208 A    
C60   C66   1.423908 A    
N20   O66   1.300743 A    
O1    Cr1   2.039694 S    
C89   C90   1.386758 A    
N12   O49   1.301378 A    
C85   C108  1.473351 S    
C100  N16   1.443501 S    
C74   C75   1.410601 A    
O10   Cr2   1.908717 S    
O25   Cr6   1.917720 S    
Cr1   O13   1.966825 S    
O1    C3    1.280161 A    
C59   C60   1.410092 A    
C66   C107  1.493038 S    
N20   O65   1.300805 A    
N14   O53   1.300819 A    
C61   C62   1.391773 A    
C45   C46   1.404309 A    
C16   N19   1.436046 S    
N10   O45   1.301237 A    
H5    C31   1.083885 S    
C29   C30   1.412946 A    
C9    C10   1.409071 A    
C40   I4    2.141215 S    
C25   C30   1.419412 A    
C45   N6    1.442828 S    
O12   Cr3   1.917119 S    
C42   C51   1.445779 S    
C54   C55   1.399939 A    
O17   Cr5   1.914200 S    
C19   C20   1.412274 A    
C12   I2    2.128033 S    
O23   Cr5   1.916112 S    
C19   C23   1.411111 A    
C85   C90   1.415956 A    
C80   H14   1.082769 S    
C13   C14   1.402270 A    
N16   O57   1.300457 A    
C7    C104  1.471064 S    
C82   I8    2.128358 S    
C26   C27   1.409069 A    
C61   I7    2.133219 S    
C20   C24   1.417099 A    
O7    Cr1   2.033639 S    
C45   C49   1.411537 A    
N15   O55   1.301415 A    
C69   C70   1.403915 A    
C97   I18   2.124926 S    
C39   C40   1.417472 A    
O10   C5    1.280935 A    
C17   C18   1.408825 A    
C10   C11   1.398046 A    
N7    O39   1.300660 A    
C67   C68   1.422569 A    
N18   O62   1.300506 A    
C31   C32   1.402375 A    
C8    C9    1.392784 A    
C58   N11   1.438448 S    
O16   Cr5   2.034179 S    
N4    O33   1.300619 A    
C34   N5    1.433245 S    
C107  O24   1.273466 A    
N11   O47   1.301303 A    
C90   I14   2.134144 S    
N8    O41   1.301369 A    
C97   C101  1.400869 A    
C56   C65   1.440002 S    
C91   C96   1.415477 A    
C32   N2    1.438723 S    
N3    O31   1.302027 A    
Cr2   O13   1.977198 S    
C77   H13   1.083420 S    
C28   C29   1.407735 A    
C29   N3    1.436677 S    
C93   C94   1.406535 A    
C2    C24   1.477290 S    
C75   C83   1.468521 S    
C7    C12   1.414782 A    
N19   O63   1.301058 A    
N8    O42   1.300391 A    
C6    C84   1.470166 S    
C98   H20   1.082966 S    
C76   I12   2.114563 S    
N18   O61   1.300625 A    
N6    O37   1.300411 A    
C54   H10   1.083238 S    
C97   C98   1.380344 A    
C79   C83   1.418708 A    
C1    C39   1.499373 S    
C93   C101  1.472217 S    
C33   C34   1.402227 A    
C27   C28   1.403816 A    
N9    O44   1.300816 A    
O21   Cr4   1.914424 S    
O9    Cr2   2.038930 S    
O24   Cr6   2.027254 S    
O21   C106  1.276948 A    
C80   C84   1.401073 A    
C15   C16   1.406940 A    
C60   N10   1.441733 S    
C59   C63   1.396526 A    
C49   C50   1.446306 S    
O6    Cr3   1.911297 S    
C87   C88   1.406733 A    
C88   C96   1.481748 S    
O11   Cr3   2.026170 S    
C73   H12   1.083411 S    
C2    O5    1.277940 A    
C91   I16   2.146648 S    
C52   C105  1.486991 S    
N1    O27   1.300966 A    
C79   N15   1.444269 S    
C9    N17   1.440784 S    
C87   H18   1.082787 S    
C81   C84   1.400822 A    
C72   N14   1.434683 S    
O17   C104  1.276313 A    
H7    C46   1.082828 S    
C16   C17   1.400025 A    
C89   H21   1.081484 S    
C21   H4    1.082302 S    
C30   N4    1.438095 S    
O2    C1    1.285693 A    
C67   C106  1.486960 S    
C48   C49   1.408281 A    
N16   O58   1.300517 A    
N5    O35   1.300578 A    
O5    Cr3   2.035065 S    
O15   C103  1.282688 A    
C41   C42   1.407539 A    
C14   I9    2.147049 S    
C53   C54   1.407246 A    
C14   C15   1.411538 A    
C81   H16   1.082966 S    
C36   C37   1.204887 T    
C22   C23   1.391088 A    
O20   C108  1.260418 A    
H9    C57   1.083904 S    
O7    C6    1.266233 A    
C47   I5    2.142990 S    
C13   C18   1.406697 A    
C73   C74   1.390885 A    
C15   C23   1.462293 S    
C46   C52   1.403763 A    
C71   H15   1.084372 S    
C42   C43   1.403358 A    
C48   N9    1.436778 S    
C99   C100  1.420070 A    
Cr6   O26   1.976695 S    
C26   I1    2.147891 S    
C17   I19   2.143029 S    
C28   C37   1.443612 S    
C40   C41   1.414041 A    
O3    Cr2   2.026343 S    
C11   H3    1.083714 S    
O15   Cr4   1.924591 S    
C13   I13   2.143458 S    
C63   C64   1.436064 S    
C47   C52   1.418188 A    
N14   O54   1.301305 A    
C71   C72   1.394464 A    
C82   C83   1.408800 A    
C11   C12   1.393633 A    
C103  O16   1.268937 A    
C88   C89   1.399803 A    
N11   O48   1.301515 A    
C95   H19   1.082455 S    
C57   C58   1.405843 A    
C64   C65   1.204282 T    
C85   C86   1.403992 A    
C94   I17   2.125661 S    
C106  O22   1.273608 A    
C27   I3    2.143022 S    
C86   H17   1.082094 S    
C1    O3    1.272669 A    
O8    C4    1.270794 A    
C92   C93   1.411570 A    
O23   C107  1.288375 A    
