data_mof_unit_21889.cif
_audit_creation_date              2013-03-05T15:59:06-0500
_audit_creation_method            fapswitch 2.2
_symmetry_space_group_name_H-M    P1
_symmetry_Int_Tables_number       1
_space_group_crystal_system       triclinic
_cell_length_a                    18.310104
_cell_length_b                    18.296584
_cell_length_c                    26.00909
_cell_angle_alpha                 89.996142
_cell_angle_beta                  90.205157
_cell_angle_gamma                 90.00848
_cell_volume                      8713.31054276

loop_
_atom_site_label
_atom_site_type_symbol
_atom_site_description
_atom_site_fract_x
_atom_site_fract_y
_atom_site_fract_z
_atom_type_partial_charge
Zn1   Zn    Zn3+2 0.000000 0.913250 0.293350 0.980795
Zn2   Zn    Zn3+2 0.000000 0.913250 0.706650 0.975048
Zn3   Zn    Zn3+2 0.500000 0.413250 0.793350 0.975267
Zn4   Zn    Zn3+2 0.500000 0.413250 0.206650 0.980161
Zn5   Zn    Zn3+2 0.913230 0.999990 0.206580 0.981749
Zn6   Zn    Zn3+2 0.086770 0.999990 0.793420 1.028901
Zn7   Zn    Zn3+2 0.086770 0.999990 0.206580 0.997503
Zn8   Zn    Zn3+2 0.913230 0.999990 0.793420 1.010738
Zn9   Zn    Zn3+2 0.413230 0.499990 0.706580 1.029246
Zn10  Zn    Zn3+2 0.586770 0.499990 0.293420 0.981469
Zn11  Zn    Zn3+2 0.586770 0.499990 0.706580 1.011021
Zn12  Zn    Zn3+2 0.413230 0.499990 0.293420 0.997799
Zn13  Zn    Zn3+2 0.000000 0.086780 0.293330 1.081485
Zn14  Zn    Zn3+2 0.000000 0.086780 0.706670 1.051398
Zn15  Zn    Zn3+2 0.500000 0.586780 0.793330 1.051392
Zn16  Zn    Zn3+2 0.500000 0.586780 0.206670 1.081825
O1    O     O_3   1.000000 1.000000 0.249960 -0.506710
O2    O     O_3   0.000000 0.000000 0.750040 -0.508406
O3    O     O_3   0.500000 0.500000 0.749960 -0.508339
O4    O     O_3   0.500000 0.500000 0.250040 -0.506695
O5    O     O_R   0.914520 0.146190 0.280310 -0.610704
O6    O     O_R   0.085480 0.146190 0.719690 -0.653292
O7    O     O_R   0.085480 0.146190 0.280310 -0.586858
O8    O     O_R   0.914520 0.146190 0.719690 -0.619803
O9    O     O_R   0.414520 0.646190 0.780310 -0.653449
O10   O     O_R   0.585480 0.646190 0.219690 -0.609653
O11   O     O_R   0.585480 0.646190 0.780310 -0.620393
O12   O     O_R   0.414520 0.646190 0.219690 -0.587869
O13   O     O_R   0.085470 0.853840 0.280350 -0.626327
O14   O     O_R   0.914530 0.853840 0.719650 -0.663281
O15   O     O_R   0.914530 0.853840 0.280350 -0.647562
O16   O     O_R   0.085470 0.853840 0.719650 -0.661195
O17   O     O_R   0.585470 0.353840 0.780350 -0.663284
O18   O     O_R   0.414530 0.353840 0.219650 -0.626261
O19   O     O_R   0.414530 0.353840 0.780350 -0.661347
O20   O     O_R   0.585470 0.353840 0.219650 -0.648337
O21   O     O_R   0.853820 0.914550 0.219610 -0.662756
O22   O     O_R   0.146180 0.914550 0.780390 -0.645144
O23   O     O_R   0.146180 0.914550 0.219610 -0.664470
O24   O     O_R   0.853820 0.914550 0.780390 -0.655333
O25   O     O_R   0.353820 0.414550 0.719610 -0.644935
O26   O     O_R   0.646180 0.414550 0.280390 -0.662567
O27   O     O_R   0.646180 0.414550 0.719610 -0.655383
O28   O     O_R   0.353820 0.414550 0.280390 -0.664382
O29   O     O_R   0.146180 0.085440 0.219600 -0.620432
O30   O     O_R   0.853820 0.085440 0.780400 -0.592012
O31   O     O_R   0.853820 0.085440 0.219600 -0.626058
O32   O     O_R   0.146180 0.085440 0.780400 -0.581535
O33   O     O_R   0.646180 0.585440 0.719600 -0.591888
O34   O     O_R   0.353820 0.585440 0.280400 -0.619916
O35   O     O_R   0.353820 0.585440 0.719600 -0.581225
O36   O     O_R   0.646180 0.585440 0.280400 -0.626559
O37   O     O_R   0.939280 0.999970 0.134160 -0.643642
O38   O     O_R   0.060720 0.999970 0.865840 -0.631794
O39   O     O_R   0.060720 0.999970 0.134160 -0.633728
O40   O     O_R   0.939280 0.999970 0.865840 -0.649316
O41   O     O_R   0.439280 0.499970 0.634160 -0.632022
O42   O     O_R   0.560720 0.499970 0.365840 -0.643821
O43   O     O_R   0.560720 0.499970 0.634160 -0.649257
O44   O     O_R   0.439280 0.499970 0.365840 -0.633573
O45   O     O_R   0.000000 0.060760 0.365770 -0.607655
O46   O     O_R   0.000000 0.060760 0.634230 -0.622552
O47   O     O_R   0.500000 0.560760 0.865770 -0.622462
O48   O     O_R   0.500000 0.560760 0.134230 -0.607217
O49   O     O_R   0.000000 0.939310 0.365780 -0.617356
O50   O     O_R   1.000000 0.939310 0.634220 -0.632887
O51   O     O_R   0.500000 0.439310 0.865780 -0.633255
O52   O     O_R   0.500000 0.439310 0.134220 -0.617609
C1    C     C_R   0.860192 0.140341 0.249655 0.867078
C2    C     C_R   0.139040 0.140993 0.751203 0.843657
C3    C     C_R   0.139958 0.140131 0.249944 0.870144
C4    C     C_R   0.860781 0.140850 0.750961 0.904000
C5    C     C_R   0.360955 0.640993 0.748790 0.843553
C6    C     C_R   0.639825 0.640323 0.250325 0.867258
C7    C     C_R   0.639209 0.640856 0.749037 0.904996
C8    C     C_R   0.360049 0.640143 0.250065 0.869733
C9    C     C_R   0.140336 0.860237 0.250258 0.781228
C10   C     C_R   0.859123 0.860688 0.748583 0.812744
C11   C     C_R   0.859182 0.860654 0.250830 0.791549
C12   C     C_R   0.140991 0.860623 0.748508 0.808964
C13   C     C_R   0.640861 0.360665 0.751411 0.813335
C14   C     C_R   0.359675 0.360232 0.249754 0.781127
C15   C     C_R   0.358999 0.360634 0.751497 0.808811
C16   C     C_R   0.640843 0.360674 0.249136 0.791608
C17   C     C_R   0.999443 0.996350 0.109463 0.849905
C18   C     C_R   0.000091 0.992918 0.889998 0.836893
C19   C     C_R   0.499907 0.492923 0.610003 0.836800
C20   C     C_R   0.500554 0.496375 0.390537 0.849974
C21   C     C_R   0.003274 0.001006 0.390254 0.816551
C22   C     C_R   0.998427 0.999718 0.609961 0.953104
C23   C     C_R   0.501588 0.499715 0.890030 0.954449
C24   C     C_R   0.496904 0.501033 0.109738 0.816756
C25   C     C_R   0.976020 0.138800 0.456093 0.211577
C26   C     C_R   0.903032 0.097757 0.546469 0.220698
C27   C     C_R   0.598432 0.596529 0.953363 0.220240
C28   C     C_R   0.526577 0.638406 0.043966 0.209774
C29   C     C_R   0.924777 0.186615 0.478620 0.100655
C30   C     C_R   0.884152 0.163536 0.521391 0.143708
C31   C     C_R   0.618657 0.661805 0.978575 0.143751
C32   C     C_R   0.578657 0.685371 0.021494 0.101449
C33   C     C_R   0.959319 0.053152 0.525685 -0.141672
C34   C     C_R   0.981956 0.065897 0.475018 -0.108157
C35   C     C_R   0.519342 0.565644 0.024968 -0.107737
C36   C     C_R   0.541597 0.552667 0.974238 -0.141512
C37   C     C_R   0.010044 0.004997 0.446757 -0.179687
C38   C     C_R   0.996610 0.998243 0.553732 -0.192641
C39   C     C_R   0.503506 0.498238 0.946244 -0.192885
C40   C     C_R   0.490386 0.505109 0.053227 -0.179639
C41   C     C_R   0.040242 0.945502 0.473784 0.221368
C42   C     C_R   0.039564 0.945996 0.527532 0.213055
C43   C     C_R   0.459993 0.446479 0.972474 0.212657
C44   C     C_R   0.459399 0.446005 0.026223 0.221680
C45   C     C_R   0.214068 0.767961 0.206608 -0.213291
C46   C     C_R   0.753874 0.800081 0.786685 -0.196093
C47   C     C_R   0.773634 0.779989 0.206415 -0.196349
C48   C     C_R   0.251256 0.804545 0.783486 -0.206085
C49   C     C_R   0.746326 0.300283 0.713439 -0.196346
C50   C     C_R   0.286326 0.267562 0.293331 -0.213439
C51   C     C_R   0.249037 0.304260 0.716292 -0.205599
C52   C     C_R   0.727002 0.280610 0.293495 -0.196784
H1    H     H_    0.183940 0.779152 0.171529 0.146095
H2    H     H_    0.759207 0.835398 0.819951 0.187879
H3    H     H_    0.794365 0.800226 0.170112 0.166881
H4    H     H_    0.250434 0.844127 0.814327 0.185488
H5    H     H_    0.741241 0.335841 0.680280 0.188003
H6    H     H_    0.316728 0.278486 0.328336 0.145901
H7    H     H_    0.250142 0.343583 0.685288 0.185664
H8    H     H_    0.706741 0.301290 0.329806 0.166663
C53   C     C_R   0.799985 0.247515 0.712915 -0.149876
C54   C     C_R   0.232284 0.214566 0.293708 -0.197784
C55   C     C_R   0.196203 0.250704 0.715214 -0.220226
C56   C     C_R   0.780335 0.227116 0.293963 -0.194444
C57   C     C_R   0.268109 0.714977 0.206232 -0.198592
C58   C     C_R   0.700232 0.747281 0.787220 -0.150211
C59   C     C_R   0.720279 0.726494 0.205957 -0.193180
C60   C     C_R   0.304088 0.750997 0.784568 -0.220207
H9    H     H_    0.835162 0.243764 0.679635 0.230275
H10   H     H_    0.221222 0.185080 0.328983 0.182218
H11   H     H_    0.158868 0.248851 0.682824 0.192392
H12   H     H_    0.800738 0.207144 0.330531 0.194835
H13   H     H_    0.279440 0.685784 0.170885 0.182010
H14   H     H_    0.665314 0.743245 0.820622 0.229568
H15   H     H_    0.700307 0.706064 0.169402 0.195521
H16   H     H_    0.341689 0.749414 0.816812 0.192382
C61   C     C_R   0.806919 0.199063 0.754033 -0.161559
C62   C     C_R   0.194349 0.197941 0.248564 -0.122817
C63   C     C_R   0.192262 0.199591 0.754881 -0.128744
C64   C     C_R   0.805930 0.198221 0.247775 -0.137502
C65   C     C_R   0.305672 0.697967 0.251457 -0.122951
C66   C     C_R   0.693021 0.699118 0.745961 -0.161284
C67   C     C_R   0.694118 0.698176 0.252167 -0.137851
C68   C     C_R   0.307706 0.699569 0.745092 -0.128909
C69   C     C_R   0.761848 0.205833 0.797658 0.313397
C70   C     C_R   0.208129 0.236632 0.202712 0.297378
C71   C     C_R   0.239530 0.204294 0.797659 0.298133
C72   C     C_R   0.780189 0.224862 0.200205 0.306665
C73   C     C_R   0.291525 0.736280 0.297408 0.297591
C74   C     C_R   0.737772 0.706214 0.702202 0.313037
C75   C     C_R   0.719293 0.725394 0.299719 0.306811
C76   C     C_R   0.260096 0.703952 0.702478 0.298138
C77   C     C_R   0.239048 0.792890 0.297403 -0.020049
C78   C     C_R   0.793108 0.759277 0.701120 -0.004428
C79   C     C_R   0.773625 0.780124 0.300644 -0.019136
C80   C     C_R   0.203348 0.755482 0.702316 -0.046762
C81   C     C_R   0.706505 0.258864 0.798732 -0.004231
C82   C     C_R   0.260626 0.293234 0.202734 -0.020088
C83   C     C_R   0.296301 0.255820 0.797832 -0.047204
C84   C     C_R   0.725765 0.279490 0.199263 -0.019565
C85   C     C_R   0.198365 0.805904 0.251866 -0.027909
C86   C     C_R   0.801431 0.805984 0.744858 -0.065987
C87   C     C_R   0.801372 0.806148 0.253071 -0.049818
C88   C     C_R   0.198825 0.805943 0.744291 -0.049520
C89   C     C_R   0.698489 0.305895 0.755126 -0.066482
C90   C     C_R   0.301660 0.305884 0.248163 -0.027859
C91   C     C_R   0.301144 0.305970 0.755694 -0.049483
C92   C     C_R   0.698649 0.306162 0.246852 -0.049827
C93   C     C_R   0.061126 0.953916 0.027855 0.068934
C94   C     C_R   0.931370 0.972462 0.971368 0.069389
C95   C     C_R   0.930139 0.985372 0.024737 0.036212
C96   C     C_R   0.063427 0.954503 0.973182 0.070522
C97   C     C_R   0.568618 0.472601 0.528627 0.069741
C98   C     C_R   0.438886 0.453907 0.472144 0.069186
C99   C     C_R   0.436576 0.454501 0.526817 0.070358
C100  C     C_R   0.569832 0.485575 0.475270 0.035835
C101  C     C_R   0.999252 0.975239 0.945689 -0.120119
C102  C     C_R   0.997373 0.981010 0.053160 -0.129652
C103  C     C_R   0.502616 0.481084 0.446842 -0.129713
C104  C     C_R   0.500741 0.475281 0.554311 -0.120263
N1    N     N_R   0.081399 0.890535 0.447397 0.232490
O53   O     O_R   0.152216 0.890660 0.451253 -0.367761
O54   O     O_R   0.048636 0.831995 0.430803 -0.359397
N2    N     N_R   0.085640 0.895960 0.555175 0.226180
O55   O     O_R   0.083957 0.826471 0.544692 -0.365365
O56   O     O_R   0.137153 0.921278 0.584815 -0.407359
N3    N     N_R   0.413303 0.396960 0.944857 0.225688
O57   O     O_R   0.413870 0.327510 0.955545 -0.364753
O58   O     O_R   0.362395 0.422835 0.914935 -0.407786
N4    N     N_R   0.417496 0.391651 0.052660 0.232565
O59   O     O_R   0.346651 0.393092 0.049151 -0.368706
O60   O     O_R   0.449349 0.332520 0.069099 -0.359475
N5    N     N_R   0.030644 0.168262 0.422152 0.259381
O61   O     O_R   0.012937 0.213980 0.385840 -0.304681
O62   O     O_R   0.098231 0.146860 0.426135 -0.396379
N6    N     N_R   0.861107 0.073656 0.589902 0.232713
O63   O     O_R   0.842252 0.119296 0.625769 -0.366427
O64   O     O_R   0.836485 0.007095 0.591566 -0.445841
N7    N     N_R   0.639590 0.572093 0.909679 0.232275
O65   O     O_R   0.658469 0.617617 0.873737 -0.367231
O66   O     O_R   0.663822 0.505405 0.907972 -0.445564
N8    N     N_R   0.472351 0.668847 0.077781 0.259784
O67   O     O_R   0.490726 0.714186 0.114166 -0.304725
O68   O     O_R   0.404364 0.648813 0.073542 -0.394211
N9    N     N_R   0.913847 0.258557 0.458215 0.275226
O69   O     O_R   0.850932 0.276665 0.438601 -0.371095
O70   O     O_R   0.964134 0.308145 0.464008 -0.310362
N10   N     N_R   0.826136 0.208464 0.540659 0.263789
O71   O     O_R   0.838469 0.276166 0.553253 -0.369280
O72   O     O_R   0.760431 0.182089 0.544841 -0.337972
N11   N     N_R   0.677495 0.705714 0.959330 0.263700
O73   O     O_R   0.666643 0.773902 0.947361 -0.370050
O74   O     O_R   0.742518 0.677898 0.954541 -0.336072
N12   N     N_R   0.591054 0.756954 0.042108 0.274972
O75   O     O_R   0.654231 0.773570 0.061975 -0.373617
O76   O     O_R   0.541957 0.807697 0.036214 -0.310717
N13   N     N_R   0.773469 0.159932 0.841600 0.194973
O77   O     O_R   0.732000 0.103135 0.848784 -0.437387
O78   O     O_R   0.827386 0.173008 0.872981 -0.406651
N14   N     N_R   0.166805 0.220265 0.157148 0.189952
O79   O     O_R   0.199261 0.192311 0.117312 -0.367031
O80   O     O_R   0.095936 0.225452 0.157425 -0.366528
N15   N     N_R   0.227925 0.158892 0.841985 0.205499
O81   O     O_R   0.172506 0.171203 0.871929 -0.360558
O82   O     O_R   0.269664 0.102626 0.850557 -0.396222
N16   N     N_R   0.813751 0.200692 0.153369 0.195053
O83   O     O_R   0.882754 0.213247 0.145489 -0.366228
O84   O     O_R   0.778291 0.158234 0.121936 -0.440750
N17   N     N_R   0.332463 0.719523 0.343074 0.190055
O85   O     O_R   0.299671 0.691202 0.382647 -0.367310
O86   O     O_R   0.403331 0.724758 0.343122 -0.366201
N18   N     N_R   0.725878 0.660556 0.658173 0.194860
O87   O     O_R   0.767406 0.603907 0.650657 -0.437626
O88   O     O_R   0.671541 0.673558 0.627141 -0.406413
N19   N     N_R   0.685276 0.701677 0.346505 0.194851
O89   O     O_R   0.616216 0.714364 0.354008 -0.366232
O90   O     O_R   0.720328 0.659252 0.378182 -0.440530
N20   N     N_R   0.271271 0.658163 0.658300 0.205503
O91   O     O_R   0.326248 0.670378 0.627933 -0.360495
O92   O     O_R   0.229495 0.601774 0.650208 -0.395796
C105  C     C_3   0.232531 0.844553 0.343037 -0.322906
C106  C     C_3   0.271646 0.917110 0.331716 -0.427260
C107  C     C_3   0.259670 0.972923 0.374423 -0.727183
H17   H     H_    0.200663 0.986193 0.377779 0.264933
H18   H     H_    0.280269 0.951372 0.411667 0.298584
H19   H     H_    0.289715 0.023985 0.365248 0.233348
H20   H     H_    0.331203 0.906838 0.327691 0.256770
H21   H     H_    0.251507 0.941082 0.295095 0.226939
H22   H     H_    0.174244 0.854385 0.352061 0.254592
H23   H     H_    0.256564 0.820883 0.378469 0.274518
C108  C     C_3   0.840101 0.765070 0.652640 -0.402660
C109  C     C_3   0.820328 0.832399 0.620404 -0.270696
C110  C     C_3   0.864176 0.834176 0.570538 -0.796846
H24   H     H_    0.923175 0.840970 0.579009 0.274207
H25   H     H_    0.856010 0.782743 0.548603 0.252952
H26   H     H_    0.845867 0.880459 0.546146 0.279120
H27   H     H_    0.761192 0.830633 0.610621 0.245036
H28   H     H_    0.830973 0.883176 0.642457 0.256810
H29   H     H_    0.898934 0.762738 0.661945 0.228864
H30   H     H_    0.833718 0.716944 0.627292 0.242083
C111  C     C_3   0.794163 0.816222 0.351470 -0.384254
C112  C     C_3   0.855416 0.775103 0.379834 -0.270036
C113  C     C_3   0.869883 0.809054 0.432479 -0.793455
H31   H     H_    0.888511 0.866522 0.428261 0.264085
H32   H     H_    0.819408 0.807886 0.456014 0.257626
H33   H     H_    0.912894 0.777458 0.452852 0.281660
H34   H     H_    0.840654 0.716919 0.385243 0.257377
H35   H     H_    0.906667 0.776397 0.357297 0.262004
H36   H     H_    0.810830 0.873945 0.345376 0.183646
H37   H     H_    0.745197 0.819580 0.376500 0.233866
C114  C     C_3   0.149940 0.754033 0.657055 -0.267475
C115  C     C_3   0.084331 0.704204 0.668748 -0.357326
C116  C     C_3   0.033296 0.697754 0.622542 -0.749473
H38   H     H_    0.010545 0.752127 0.612692 0.276159
H39   H     H_    0.062992 0.675400 0.588863 0.294729
H40   H     H_    0.987450 0.660384 0.631929 0.235706
H41   H     H_    0.103771 0.648652 0.679159 0.255864
H42   H     H_    0.052900 0.725343 0.701973 0.235390
H43   H     H_    0.132728 0.809469 0.645475 0.267771
H44   H     H_    0.177057 0.734089 0.621635 0.250923
C117  C     C_3   0.659318 0.264386 0.847139 -0.403431
C118  C     C_3   0.679346 0.331342 0.879672 -0.269300
C119  C     C_3   0.635218 0.333145 0.929415 -0.796239
H45   H     H_    0.576387 0.340928 0.920810 0.273633
H46   H     H_    0.642470 0.281343 0.951082 0.252527
H47   H     H_    0.654060 0.378883 0.954127 0.278692
H48   H     H_    0.738409 0.329104 0.889627 0.245264
H49   H     H_    0.669219 0.382301 0.857714 0.257781
H50   H     H_    0.600494 0.262353 0.837754 0.229022
H51   H     H_    0.665396 0.216009 0.872293 0.241718
C120  C     C_3   0.266742 0.345326 0.157311 -0.323089
C121  C     C_3   0.227342 0.417579 0.169042 -0.426141
C122  C     C_3   0.238858 0.473849 0.126560 -0.728659
H52   H     H_    0.297781 0.487470 0.123146 0.264752
H53   H     H_    0.218216 0.452531 0.089261 0.298825
H54   H     H_    0.208591 0.524665 0.136024 0.233270
H55   H     H_    0.167852 0.406975 0.173158 0.256926
H56   H     H_    0.247548 0.441299 0.205727 0.227365
H57   H     H_    0.324951 0.355543 0.148229 0.254148
H58   H     H_    0.242696 0.321842 0.121822 0.274676
C123  C     C_3   0.349382 0.254740 0.843278 -0.267353
C124  C     C_3   0.414999 0.204724 0.832036 -0.356946
C125  C     C_3   0.465859 0.198861 0.878372 -0.750460
H59   H     H_    0.488656 0.253347 0.887860 0.276095
H60   H     H_    0.436013 0.177028 0.912159 0.294919
H61   H     H_    0.511682 0.161300 0.869333 0.235309
H62   H     H_    0.395563 0.149046 0.821954 0.255843
H63   H     H_    0.446569 0.225408 0.798730 0.235247
H64   H     H_    0.366605 0.310279 0.854622 0.267412
H65   H     H_    0.321981 0.235157 0.878694 0.251050
C126  C     C_3   0.704351 0.314657 0.148277 -0.382281
C127  C     C_3   0.642700 0.272899 0.120781 -0.270945
C128  C     C_3   0.627819 0.305330 0.067710 -0.791503
H66   H     H_    0.609705 0.363063 0.071149 0.264546
H67   H     H_    0.677979 0.303017 0.043882 0.257471
H68   H     H_    0.584286 0.273439 0.048090 0.281315
H69   H     H_    0.657188 0.214505 0.116166 0.256872
H70   H     H_    0.591660 0.274993 0.143519 0.261408
H71   H     H_    0.687735 0.372472 0.153961 0.183866
H72   H     H_    0.752904 0.317651 0.122824 0.233872
C129  C     C_3   0.122097 0.916000 0.058391 -0.420914
C130  C     C_3   0.189044 0.965893 0.067195 -0.275733
C131  C     C_3   0.250610 0.924443 0.094041 -0.796033
H73   H     H_    0.232166 0.904133 0.132059 0.272056
H74   H     H_    0.268442 0.877441 0.070144 0.263627
H75   H     H_    0.297933 0.961471 0.100034 0.268060
H76   H     H_    0.209935 0.988103 0.030424 0.221762
H77   H     H_    0.174517 0.013982 0.090921 0.282264
H78   H     H_    0.101962 0.894186 0.095493 0.199585
H79   H     H_    0.138383 0.864561 0.038927 0.194426
C132  C     C_3   0.865603 0.935373 0.945433 -0.416823
C133  C     C_3   0.807213 0.988015 0.923502 -0.248553
C134  C     C_3   0.729706 0.964420 0.937541 -0.776743
H80   H     H_    0.718462 0.909082 0.921900 0.291232
H81   H     H_    0.722116 0.963722 0.979813 0.261508
H82   H     H_    0.689630 0.003208 0.920705 0.282355
H83   H     H_    0.816742 0.045152 0.936228 0.260427
H84   H     H_    0.810044 0.987955 0.880886 0.285131
H85   H     H_    0.884559 0.898739 0.914086 0.187626
H86   H     H_    0.841151 0.895941 0.972617 0.217777
C135  C     C_3   0.857062 0.006136 0.049252 -0.317633
C136  C     C_3   0.819355 0.941669 0.076925 -0.370161
C137  C     C_3   0.759889 0.968696 0.113217 -0.672644
H87   H     H_    0.783860 0.003695 0.143762 0.298861
H88   H     H_    0.718273 0.000519 0.091553 0.257061
H89   H     H_    0.732663 0.921273 0.131665 0.247850
H90   H     H_    0.793172 0.904670 0.048688 0.230914
H91   H     H_    0.859096 0.908032 0.098880 0.232661
H92   H     H_    0.864336 0.054368 0.074562 0.269382
H93   H     H_    0.818498 0.027875 0.020475 0.201760
C138  C     C_3   0.129676 0.923031 0.944590 -0.365951
C139  C     C_3   0.110340 0.850579 0.917472 -0.377658
C140  C     C_3   0.176088 0.799388 0.914390 -0.835322
H94   H     H_    0.224499 0.828872 0.899501 0.262366
H95   H     H_    0.189387 0.777767 0.953226 0.265578
H96   H     H_    0.163370 0.752738 0.888553 0.256241
H97   H     H_    0.066266 0.821580 0.938599 0.224346
H98   H     H_    0.090150 0.861846 0.877959 0.223409
H99   H     H_    0.153564 0.962887 0.917492 0.250475
H100  H     H_    0.176916 0.913100 0.969841 0.207960
C141  C     C_3   0.634397 0.435504 0.554524 -0.417273
C142  C     C_3   0.692760 0.488137 0.576512 -0.248819
C143  C     C_3   0.770273 0.464693 0.562397 -0.775971
H101  H     H_    0.781503 0.409224 0.577809 0.291622
H102  H     H_    0.777887 0.464377 0.520127 0.261349
H103  H     H_    0.810341 0.503344 0.579409 0.282610
H104  H     H_    0.683161 0.545312 0.563895 0.260732
H105  H     H_    0.689973 0.487906 0.619131 0.284828
H106  H     H_    0.615446 0.398796 0.585838 0.187448
H107  H     H_    0.658861 0.396140 0.527306 0.217236
C144  C     C_3   0.377978 0.415874 0.441611 -0.421260
C145  C     C_3   0.310959 0.465638 0.432763 -0.276017
C146  C     C_3   0.249430 0.424013 0.405998 -0.794271
H108  H     H_    0.267890 0.403583 0.368019 0.271775
H109  H     H_    0.231645 0.377078 0.429987 0.263908
H110  H     H_    0.202070 0.460960 0.399937 0.268359
H111  H     H_    0.290066 0.487916 0.469510 0.221971
H112  H     H_    0.325398 0.513686 0.408963 0.282525
H113  H     H_    0.398162 0.394077 0.404520 0.199457
H114  H     H_    0.361756 0.364425 0.461100 0.194589
C147  C     C_3   0.370336 0.422988 0.555410 -0.365389
C148  C     C_3   0.389688 0.350560 0.582562 -0.378062
C149  C     C_3   0.324128 0.299059 0.585264 -0.835812
H115  H     H_    0.275446 0.328262 0.599980 0.262535
H116  H     H_    0.311281 0.277506 0.546336 0.265676
H117  H     H_    0.336808 0.252379 0.611085 0.256110
H118  H     H_    0.434108 0.321788 0.561650 0.224119
H119  H     H_    0.409420 0.361846 0.622187 0.223558
H120  H     H_    0.346434 0.462844 0.582495 0.250351
H121  H     H_    0.323105 0.413038 0.530154 0.208137
C150  C     C_3   0.642854 0.506621 0.450787 -0.316702
C151  C     C_3   0.680840 0.442307 0.423144 -0.370882
C152  C     C_3   0.740177 0.469584 0.386830 -0.673575
H122  H     H_    0.716039 0.504414 0.356257 0.298999
H123  H     H_    0.781638 0.501652 0.408468 0.257180
H124  H     H_    0.767633 0.422276 0.368421 0.247378
H125  H     H_    0.707198 0.405457 0.451393 0.230091
H126  H     H_    0.641245 0.408459 0.401214 0.232776
H127  H     H_    0.635407 0.554803 0.425453 0.269210
H128  H     H_    0.681297 0.528533 0.479587 0.201692

loop_
_geom_bond_atom_site_label_1
_geom_bond_atom_site_label_2
_geom_bond_distance
_ccdc_geom_bond_type
C149  H117  1.110512 S    
Zn4   O20   1.934341 S    
Zn5   O21   1.934948 S    
C54   C62   1.395622 A    
C119  H45   1.108626 S    
Zn7   O39   1.941377 S    
Zn8   O40   1.941377 S    
C82   C120  1.522332 S    
C124  H63   1.109608 S    
C122  H52   1.111127 S    
C116  H40   1.110437 S    
O49   C21   1.297239 A    
C132  H86   1.105886 S    
C133  H84   1.109801 S    
C69   N13   1.433530 S    
C148  H119  1.110249 S    
C139  H97   1.112544 S    
C27   C31   1.411295 A    
C7    C66   1.453912 S    
C113  H31   1.110907 S    
C138  H99   1.105390 S    
C115  H41   1.110169 S    
Zn9   O3    1.945343 S    
C14   C90   1.455436 S    
Zn10  O4    1.945342 S    
C98   C144  1.533662 S    
C96   C138  1.537120 S    
Zn3   O3    1.947470 S    
C127  H70   1.108400 S    
C63   C71   1.409778 A    
O30   C4    1.277066 A    
C45   C57   1.385386 A    
N16   O84   1.299813 A    
Zn6   O38   1.944688 S    
O11   C7    1.282451 A    
C44   N4    1.433158 S    
N14   O79   1.301086 A    
C60   C68   1.394494 A    
Zn4   O18   1.936041 S    
N9    O70   1.300956 A    
C140  H96   1.110522 S    
C82   C90   1.416964 A    
C47   H3    1.084064 S    
C130  C131  1.525779 S    
C23   C39   1.462609 S    
C144  C145  1.544707 S    
C133  C134  1.528799 S    
C93   C102  1.430835 A    
C151  H125  1.106720 S    
Zn11  O33   1.933720 S    
O34   C8    1.279765 A    
O16   C12   1.267573 A    
O40   C18   1.283053 A    
C62   C70   1.410343 A    
Zn16  O4    1.947616 S    
Zn12  O4    1.951931 S    
Zn1   O13   1.936325 S    
Zn13  O5    1.934580 S    
C94   C132  1.536105 S    
C147  C148  1.542276 S    
C12   C88   1.461320 S    
C109  H28   1.108746 S    
C54   H10   1.084004 S    
C121  C122  1.525344 S    
O38   C18   1.284042 A    
C122  H54   1.110555 S    
C49   C89   1.400059 A    
C147  H120  1.105408 S    
O32   C2    1.275196 A    
O42   C20   1.278891 A    
C135  H93   1.101487 S    
C70   N14   1.435331 S    
Zn9   O25   1.934948 S    
C117  H50   1.104163 S    
Zn12  O28   1.933620 S    
C99   C104  1.424816 A    
C120  H57   1.108347 S    
O52   C24   1.297565 A    
C136  C137  1.525990 S    
O43   C19   1.283049 A    
N3    O57   1.300754 A    
Zn4   O4    1.947593 S    
C53   H9    1.082956 S    
C18   C101  1.484258 S    
C128  H66   1.110931 S    
O47   C23   1.283061 A    
C138  C139  1.542163 S    
Zn3   O17   1.936325 S    
N4    O60   1.300697 A    
Zn8   O24   1.933620 S    
C36   C39   1.415834 A    
N19   O89   1.301064 A    
N2    O56   1.301251 A    
C145  C146  1.525799 S    
C121  H55   1.111921 S    
C135  C136  1.545707 S    
O29   C3    1.279814 A    
C43   C44   1.398060 A    
C152  H122  1.109612 S    
C105  H23   1.107944 S    
C94   C95   1.408310 A    
O44   C20   1.292488 A    
C137  H89   1.110462 S    
C95   C102  1.435916 A    
C105  C106  1.537261 S    
C118  H49   1.108646 S    
O14   C10   1.271496 A    
C119  H46   1.110393 S    
N10   O72   1.301090 A    
O36   C6    1.277901 A    
C110  H24   1.108716 S    
Zn15  O9    1.934580 S    
C72   C84   1.411647 A    
C4    C61   1.454075 S    
Zn14  O46   1.943344 S    
C10   C86   1.458087 S    
Zn13  O7    1.936279 S    
Zn2   O16   1.934341 S    
Zn14  O8    1.936566 S    
N1    O54   1.300531 A    
O31   C1    1.277937 A    
C108  H30   1.105973 S    
C98   C99   1.422817 A    
C24   C40   1.476090 S    
C66   C74   1.410758 A    
C141  H107  1.105893 S    
C72   N16   1.436201 S    
Zn7   O1    1.951930 S    
C146  H110  1.110399 S    
C51   C55   1.377091 A    
Zn6   O22   1.935245 S    
C55   C63   1.394474 A    
C49   C53   1.377691 A    
C77   C85   1.417061 A    
C128  H68   1.110491 S    
C59   H15   1.083950 S    
N17   O85   1.301027 A    
N5    O62   1.301835 A    
C129  H78   1.108542 S    
C139  C140  1.527722 S    
C114  H43   1.103710 S    
N13   O77   1.300810 A    
C93   C129  1.533658 S    
C134  H81   1.108770 S    
C106  H21   1.110428 S    
C28   N8    1.440841 S    
C111  H36   1.110816 S    
C115  C116  1.524257 S    
C71   C83   1.403204 A    
Zn4   O52   1.943215 S    
C107  H19   1.110492 S    
O41   C19   1.284021 A    
O5    C1    1.277098 A    
C13   C89   1.458254 S    
C123  H65   1.109882 S    
Zn3   O19   1.934108 S    
C143  H103  1.109806 S    
C117  C118  1.532645 S    
C46   C58   1.377673 A    
C145  H112  1.107679 S    
N12   O76   1.301088 A    
C150  H127  1.108705 S    
C126  H71   1.110778 S    
N8    O68   1.301943 A    
C130  H76   1.108457 S    
C125  H60   1.110762 S    
C5    C68   1.451942 S    
O27   C13   1.290758 A    
C6    C67   1.452704 S    
C80   C88   1.432457 A    
C26   N6    1.437327 S    
C133  H83   1.110182 S    
C25   C29   1.411820 A    
C152  H124  1.110459 S    
C25   N5    1.440932 S    
O8    C4    1.282542 A    
N19   O90   1.299816 A    
C83   C91   1.432327 A    
C33   C38   1.415681 A    
C84   C92   1.421695 A    
C37   C41   1.407878 A    
N20   O91   1.301020 A    
Zn7   O23   1.933843 S    
C69   C81   1.403421 A    
C39   C43   1.414442 A    
C112  H34   1.107407 S    
C97   C141  1.536023 S    
C109  C110  1.528133 S    
Zn2   O50   1.943215 S    
C110  H26   1.109277 S    
Zn12  O34   1.933943 S    
C127  C128  1.526075 S    
C116  H39   1.110750 S    
C132  H85   1.112054 S    
Zn1   O1    1.947470 S    
C100  C103  1.435832 A    
Zn13  O1    1.947739 S    
Zn2   O14   1.936041 S    
Zn14  O6    1.934343 S    
O37   C17   1.278897 A    
C77   C105  1.522408 S    
C47   C59   1.382827 A    
C136  H90   1.106770 S    
C95   C135  1.532164 S    
C28   C32   1.411739 A    
N18   O87   1.300785 A    
N13   O78   1.300843 A    
O9    C5    1.279560 A    
C131  H75   1.110394 S    
C115  H42   1.109595 S    
C55   H11   1.083530 S    
O13   C9    1.281043 A    
N6    O63   1.299699 A    
C50   C90   1.397405 A    
C21   C37   1.476189 S    
N7    O66   1.299200 A    
O18   C14   1.281106 A    
C49   H5    1.084026 S    
O6    C2    1.279381 A    
C43   N3    1.436379 S    
N3    O58   1.301355 A    
C51   H7    1.080907 S    
C113  H33   1.110082 S    
C33   C34   1.402365 A    
C144  H114  1.110054 S    
Zn10  O26   1.935245 S    
Zn9   O35   1.935344 S    
Zn10  O36   1.935047 S    
N14   O80   1.301135 A    
C107  H17   1.111140 S    
O50   C22   1.272916 A    
N9    O69   1.301120 A    
Zn15  O3    1.947739 S    
C140  H95   1.110970 S    
Zn11  O3    1.951930 S    
C79   C111  1.523696 S    
C76   C80   1.403174 A    
O28   C14   1.278616 A    
C52   H8    1.084104 S    
Zn5   O1    1.945343 S    
C26   C30   1.411330 A    
C143  H101  1.110131 S    
C17   C102  1.491426 S    
C48   C88   1.398035 A    
C34   C37   1.431554 A    
C149  H116  1.110986 S    
C118  C119  1.528163 S    
C129  C130  1.544690 S    
C11   C87   1.455512 S    
C151  H126  1.109697 S    
C51   C91   1.398005 A    
C52   C92   1.398335 A    
C20   C103  1.491277 S    
C137  H87   1.109644 S    
C114  C115  1.539192 S    
C80   C114  1.527923 S    
C79   C87   1.421322 A    
C142  H104  1.110187 S    
C29   N9    1.433026 S    
C111  C112  1.536994 S    
C27   N7    1.437026 S    
C84   C126  1.523997 S    
Zn11  O43   1.941377 S    
C75   N19   1.436061 S    
C97   C104  1.413953 A    
C29   C30   1.405315 A    
C124  H62   1.110143 S    
C122  H53   1.110614 S    
Zn16  O10   1.934343 S    
N7    O65   1.299727 A    
O7    C3    1.279360 A    
O26   C16   1.281227 A    
C22   C38   1.462973 S    
C47   C87   1.398247 A    
C135  H92   1.108712 S    
N11   O73   1.300972 A    
O19   C15   1.267683 A    
C151  C152  1.525995 S    
C45   C85   1.397437 A    
C106  C107  1.525343 S    
C123  C124  1.539242 S    
Zn8   O2    1.951931 S    
C40   C44   1.407740 A    
C138  H100  1.099296 S    
O39   C17   1.292546 A    
C131  H73   1.110031 S    
C50   C54   1.385370 A    
C58   H14   1.083005 S    
Zn5   O31   1.935344 S    
C132  C133  1.546581 S    
C78   C86   1.430560 A    
C32   N12   1.433011 S    
O51   C23   1.272835 A    
N15   O82   1.300983 A    
C127  H69   1.107518 S    
C73   N17   1.435332 S    
C31   N11   1.435322 S    
C78   C108  1.532711 S    
O24   C10   1.290632 A    
N16   O83   1.301093 A    
O48   C24   1.266103 A    
O12   C8    1.279342 A    
C73   C77   1.412923 A    
C148  H118  1.112578 S    
C81   C117  1.532883 S    
C97   C100  1.408173 A    
C121  H56   1.110462 S    
C124  C125  1.524192 S    
C48   H4    1.080892 S    
Zn10  O42   1.944688 S    
C105  H22   1.108281 S    
C25   C34   1.425797 A    
C137  H88   1.110929 S    
C148  C149  1.527784 S    
C48   C60   1.377159 A    
C56   H12   1.084018 S    
C57   H13   1.083979 S    
C60   H16   1.083505 S    
C41   C42   1.398069 A    
N2    O55   1.300669 A    
C59   C67   1.395136 A    
C67   C75   1.409274 A    
N1    O53   1.300177 A    
C108  H29   1.104069 S    
C126  C127  1.537368 S    
C141  H106  1.112062 S    
O23   C9    1.278611 A    
C28   C35   1.426057 A    
C35   C36   1.402584 A    
C146  H109  1.110899 S    
C1    C64   1.452913 S    
C112  C113  1.525902 S    
C70   C82   1.412851 A    
C2    C63   1.451675 S    
C64   C72   1.409378 A    
C109  H27   1.111857 S    
C16   C92   1.455810 S    
C65   C73   1.410400 A    
C150  C151  1.545736 S    
O25   C15   1.292008 A    
Zn16  O12   1.936566 S    
C139  H98   1.110226 S    
C125  H59   1.108203 S    
C68   C76   1.409919 A    
C15   C91   1.461142 S    
Zn2   O2    1.947593 S    
N5    O61   1.301768 A    
Zn14  O2    1.947616 S    
Zn1   O15   1.934108 S    
C120  C121  1.537236 S    
C149  H115  1.108669 S    
C134  H80   1.110151 S    
O21   C11   1.280913 A    
C147  H121  1.099300 S    
C83   C123  1.527713 S    
Zn6   O32   1.935047 S    
C117  H51   1.106007 S    
Zn7   O29   1.933720 S    
Zn5   O37   1.944688 S    
C120  H58   1.107944 S    
C107  H18   1.110623 S    
C81   C89   1.430743 A    
C58   C66   1.394500 A    
C42   N2    1.436158 S    
C94   C101  1.414020 A    
Zn15  O11   1.936279 S    
C26   C33   1.422936 A    
C41   N1    1.433307 S    
C128  H67   1.110616 S    
C145  H111  1.108455 S    
Zn11  O27   1.933843 S    
N4    O59   1.300327 A    
C142  C143  1.528738 S    
C46   C86   1.400045 A    
C98   C103  1.430828 A    
C61   C69   1.410871 A    
C99   C147  1.537110 S    
C123  H64   1.103819 S    
C152  H123  1.110933 S    
O45   C21   1.266508 A    
Zn8   O30   1.933943 S    
Zn6   O2    1.945342 S    
N20   O92   1.300968 A    
C118  H48   1.111885 S    
C56   C64   1.395161 A    
C112  H35   1.108464 S    
C119  H47   1.109442 S    
C57   C65   1.395629 A    
N10   O71   1.300815 A    
C110  H25   1.110336 S    
C143  H102  1.108723 S    
C116  H38   1.108246 S    
Zn12  O44   1.941377 S    
N11   O74   1.301256 A    
Zn1   O49   1.943277 S    
C31   C32   1.405140 A    
C136  H91   1.109707 S    
C93   C96   1.422812 A    
O33   C7    1.277248 A    
N18   O88   1.300840 A    
C45   H1    1.083990 S    
C131  H74   1.110893 S    
C35   C40   1.431978 A    
C150  H128  1.101585 S    
N6    O64   1.299316 A    
N17   O86   1.301121 A    
C75   C79   1.411571 A    
C108  C109  1.532793 S    
C129  H79   1.110039 S    
C27   C36   1.423216 A    
C141  C142  1.546543 S    
C38   C42   1.414541 A    
C134  H82   1.109807 S    
C106  H20   1.111914 S    
C113  H32   1.110554 S    
C30   N10   1.435078 S    
C144  H113  1.108558 S    
C52   C56   1.382719 A    
Zn3   O51   1.943277 S    
O35   C5    1.275120 A    
C76   N20   1.437318 S    
O15   C11   1.275360 A    
C19   C104  1.484184 S    
C50   H6    1.084020 S    
C140  H94   1.108595 S    
C114  H44   1.109851 S    
C146  H108  1.110058 S    
O22   C12   1.292171 A    
C8    C65   1.453445 S    
O20   C16   1.275192 A    
O46   C22   1.283198 A    
C71   N15   1.437339 S    
O10   C6    1.277063 A    
C111  H37   1.111589 S    
Zn9   O41   1.944688 S    
C53   C61   1.394506 A    
N12   O75   1.301241 A    
C96   C101  1.424819 A    
C74   C78   1.403523 A    
C46   H2    1.084035 S    
C3    C62   1.453215 S    
Zn13  O45   1.943282 S    
C126  H72   1.111661 S    
C9    C85   1.455660 S    
N8    O67   1.301799 A    
C125  H61   1.110460 S    
N15   O81   1.301055 A    
Zn15  O47   1.943282 S    
C130  H77   1.107699 S    
Zn16  O48   1.943344 S    
C100  C150  1.532105 S    
O17   C13   1.271280 A    
C142  H105  1.109838 S    
C74   N18   1.433512 S    
