data_mof_unit_10591.cif
_audit_creation_date              2012-12-11T14:49:55-0500
_audit_creation_method            fapswitch 2.2
_symmetry_space_group_name_H-M    P1
_symmetry_Int_Tables_number       1
_space_group_crystal_system       triclinic
_cell_length_a                    16.897474
_cell_length_b                    16.746592
_cell_length_c                    19.469042
_cell_angle_alpha                 117.884653
_cell_angle_beta                  62.025796
_cell_angle_gamma                 101.081429
_cell_volume                      4298.00516485

loop_
_atom_site_label
_atom_site_type_symbol
_atom_type_description
_atom_site_fract_x
_atom_site_fract_y
_atom_site_fract_z
_atom_type_partial_charge
C1    C     C_R   0.041126 0.759461 0.010550 -0.136392
C2    C     C_R   0.251764 0.520270 0.827596 -0.114786
C3    C     C_R   0.180389 0.495568 0.092127 -0.120514
C4    C     C_R   0.764266 0.418012 0.164160 -0.142266
C5    C     C_R   0.987654 0.340830 0.759583 -0.136061
C6    C     C_R   0.253695 0.548458 0.071679 0.051288
C7    C     C_R   0.938702 0.264510 0.759417 0.086928
C8    C     C_R   0.258558 0.458985 0.745987 0.067018
C9    C     C_R   0.028477 0.222520 0.002860 0.069799
C10   C     C_R   0.850937 0.132258 0.706662 -0.253075
C11   C     C_R   0.901559 0.206747 0.697725 0.109317
C12   C     C_R   0.767411 0.436465 0.239957 0.083927
C13   C     C_R   0.923457 0.220926 0.625198 -0.239104
C14   C     C_R   0.908012 0.154443 0.556083 0.133875
C15   C     C_R   0.867783 0.074189 0.560931 0.029532
C16   C     C_R   0.803237 0.559917 0.962406 -0.131178
C17   C     C_R   0.834737 0.065191 0.638194 0.140756
C18   C     C_R   0.940705 0.162871 0.479023 -0.180852
C19   C     C_R   0.942946 0.088370 0.404328 -0.186227
C20   C     C_R   0.912626 0.005215 0.406485 0.136567
C21   C     C_R   0.869990 0.999398 0.485939 0.028621
C22   C     C_R   0.838975 0.916126 0.488739 0.137850
C23   C     C_R   0.721866 0.545935 0.022673 0.084508
C24   C     C_R   0.796604 0.910801 0.567898 -0.196302
C25   C     C_R   0.794613 0.985197 0.642502 -0.197241
C26   C     C_R   0.933491 0.926173 0.329955 -0.237216
C27   C     C_R   0.915357 0.841947 0.332528 0.115840
C28   C     C_R   0.952834 0.672838 0.248978 -0.133694
C29   C     C_R   0.860250 0.837904 0.411673 -0.247788
C30   C     C_R   0.424541 0.434621 0.671277 -0.239500
C31   C     C_R   0.341446 0.413926 0.668187 0.098751
C32   C     C_R   0.338778 0.358387 0.588503 -0.200113
C33   C     C_R   0.416984 0.337578 0.511135 0.043187
C34   C     C_R   0.961671 0.759471 0.254978 0.062907
C35   C     C_R   0.498907 0.371064 0.515187 0.003659
C36   C     C_R   0.503314 0.415101 0.595248 0.155925
C37   C     C_R   0.414355 0.292202 0.430188 0.203529
C38   C     C_R   0.489770 0.290561 0.356353 -0.241432
C39   C     C_R   0.567770 0.333050 0.362110 0.096904
C40   C     C_R   0.738458 0.481828 0.040273 -0.127966
C41   C     C_R   0.574283 0.368776 0.440553 0.034733
C42   C     C_R   0.653195 0.410515 0.446386 0.155913
C43   C     C_R   0.659650 0.445311 0.524422 -0.209014
C44   C     C_R   0.584936 0.447496 0.598639 -0.194583
C45   C     C_R   0.249263 0.571406 0.013773 -0.129744
C46   C     C_R   0.635886 0.347786 0.293059 -0.223441
C47   C     C_R   0.709066 0.399971 0.302585 0.103318
C48   C     C_R   0.720682 0.424787 0.376830 -0.273199
C49   C     C_R   0.633736 0.588236 0.061208 0.090939
C50   C     C_R   0.318889 0.576708 0.109055 0.030160
C51   C     C_R   0.402318 0.521761 0.151064 -0.192018
C52   C     C_R   0.023615 0.752984 0.173882 -0.090186
C53   C     C_R   0.325600 0.523074 0.143968 -0.132366
C54   C     C_R   0.382291 0.645364 0.099827 -0.268672
C55   C     C_R   0.463204 0.642189 0.104341 0.033507
C56   C     C_R   0.920508 0.261814 0.835505 -0.132310
C57   C     C_R   0.473899 0.572983 0.122101 0.177848
C58   C     C_R   0.557959 0.548272 0.102372 -0.260963
C59   C     C_R   0.623386 0.666887 0.057708 -0.232248
C60   C     C_R   0.537888 0.697830 0.084199 0.207106
C61   C     C_R   0.832606 0.182150 0.147459 0.122786
C62   C     C_R   0.962365 0.863382 0.995459 0.125187
C63   C     C_R   0.888185 0.949947 0.968986 -0.201828
C64   C     C_R   0.842613 0.487001 0.239910 -0.143152
C65   C     C_R   0.927363 0.869060 0.944988 -0.167148
C66   C     C_R   0.960194 0.941457 0.069176 -0.263932
C67   C     C_R   0.172521 0.450917 0.751272 -0.126547
C68   C     C_R   0.919938 0.022676 0.094331 0.185285
C69   C     C_R   0.882534 0.026557 0.044355 0.182830
C70   C     C_R   0.838701 0.106552 0.071652 -0.266449
C71   C     C_R   0.870334 0.178805 0.196357 -0.153259
C72   C     C_R   0.913889 0.099447 0.170112 -0.218697
C73   C     C_R   0.962761 0.690311 0.934627 -0.129875
C74   C     C_R   0.990655 0.774565 0.978026 0.058376
C75   C     C_2   0.366892 0.712680 0.077898 1.070261
C76   C     C_R   0.051349 0.307706 0.051442 -0.123957
C77   C     C_R   0.973080 0.238657 0.975092 -0.118770
H1    H     H_    0.083440 0.807849 0.036877 0.104031
H2    H     H_    0.959395 0.279571 0.618410 0.122901
H3    H     H_    0.970278 0.224904 0.475033 0.137292
H4    H     H_    0.723428 0.368831 0.136190 0.086640
H5    H     H_    0.974299 0.094056 0.343894 0.129399
H6    H     H_    0.971080 0.930613 0.269124 0.115646
H7    H     H_    0.841000 0.773773 0.414621 0.119414
H8    H     H_    0.771111 0.847439 0.570968 0.134205
H9    H     H_    0.767474 0.978103 0.701969 0.135254
H10   H     H_    0.428269 0.473159 0.732286 0.125654
H11   H     H_    0.275129 0.338181 0.586499 0.152748
H12   H     H_    0.873089 0.219736 0.863397 0.085911
H13   H     H_    0.485558 0.260611 0.295378 0.165824
H14   H     H_    0.627423 0.324756 0.235030 0.117970
H15   H     H_    0.812727 0.603167 0.932406 0.097527
H16   H     H_    0.778194 0.462012 0.384252 0.118086
H17   H     H_    0.720501 0.476100 0.529323 0.131800
H18   H     H_    0.589362 0.480046 0.659620 0.139770
H19   H     H_    0.563659 0.490680 0.110876 0.119961
H20   H     H_    0.681398 0.704998 0.035764 0.149878
H21   H     H_    0.409364 0.472628 0.169589 0.125793
H22   H     H_    0.276617 0.473672 0.156667 0.115924
H23   H     H_    0.152026 0.408663 0.700794 0.107476
H24   H     H_    0.808993 0.110721 0.034727 0.122241
H25   H     H_    0.910744 0.651305 0.298862 0.099033
H26   H     H_    0.865297 0.237793 0.254913 0.126276
H27   H     H_    0.860433 0.951972 0.929667 0.131960
H28   H     H_    0.941965 0.097790 0.209350 0.126403
H29   H     H_    0.928545 0.810480 0.887685 0.119919
H30   H     H_    0.985626 0.938111 0.109582 0.117958
H31   H     H_    0.692525 0.455090 0.084985 0.097981
H32   H     H_    0.049896 0.808057 0.156801 0.097241
H33   H     H_    0.873800 0.501417 0.281652 0.086264
H34   H     H_    0.091960 0.321479 0.084950 0.101700
H35   H     H_    0.931638 0.675047 0.892775 0.087434
H36   H     H_    0.289585 0.617569 0.988073 0.133706
H37   H     H_    0.253772 0.764552 0.188544 0.289230
H38   H     H_    0.940786 0.188034 0.937548 0.097945
H39   H     H_    0.304829 0.542127 0.847680 0.105710
H40   H     H_    0.154565 0.476011 0.144231 0.086026
H41   H     H_    0.002015 0.372367 0.717843 0.092940
H42   H     H_    0.830591 0.121831 0.763377 0.118528
I1    I     I_    0.297877 0.231237 0.413933 -0.420491
I2    I     I_    0.532677 0.833433 0.103535 -0.324952
N1    N     N_R   0.036080 0.671900 0.995420 -0.039565
N2    N     N_R   0.867430 0.509300 0.948100 -0.041302
N3    N     N_R   0.003360 0.617250 0.167070 -0.043957
N4    N     N_R   0.825450 0.461270 0.995400 -0.042576
N5    N     N_R   0.045340 0.665280 0.119770 -0.039771
N6    N     N_R   0.883740 0.497640 0.167070 -0.038798
N7    N     N_R   0.987050 0.628910 0.948110 -0.039710
N8    N     N_R   0.174550 0.538730 0.004600 -0.044483
N9    N     N_R   0.954660 0.334720 0.880230 -0.040004
N10   N     N_R   0.116260 0.502360 0.832930 -0.044072
N11   N     N_R   0.012950 0.371090 0.051890 -0.043261
N12   N     N_R   0.963920 0.328100 0.004580 -0.042886
N13   N     N_R   0.165290 0.545350 0.880240 -0.042762
N14   N     N_R   0.132570 0.490700 0.051900 -0.041584
N15   N     N_R   0.996640 0.382750 0.832930 -0.041578
N16   N     N_R   0.834710 0.454650 0.119760 -0.038632
Ni1   Ni    Ni4+2 0.104370 0.604370 0.000010 0.241896
Ni2   Ni    Ni4+2 0.895630 0.395630 0.999990 0.209002
Ni3   Ni    Ni4+2 0.991920 0.505780 0.891500 0.216244
Ni4   Ni    Ni4+2 0.008080 0.494220 0.108500 0.208935
O1    O     O_2   0.417757 0.713704 0.008465 -0.591835
O2    O     O_R   0.291991 0.772057 0.133490 -0.756327

loop_
_geom_bond_atom_site_label_1
_geom_bond_atom_site_label_2
_ccdc_geom_bond_type
C61   C70   A    
C5    N15   A    
C66   C68   A    
C63   C65   A    
C45   N8    A    
C26   H6    S    
C6    C45   A    
C27   C29   A    
C11   C13   A    
C41   C42   A    
C14   C18   A    
C35   C36   A    
C66   H30   S    
N15   Ni3   S    
N10   N13   A    
C13   H2    S    
C70   H24   S    
C39   C41   A    
N4    Ni2   S    
C7    C11   S    
N16   Ni2   S    
C26   C27   A    
C2    N13   A    
C1    C74   A    
C21   C22   A    
C22   C29   A    
C16   N2    A    
C30   C31   A    
C12   C64   A    
C23   C49   S    
C10   C17   A    
C23   C40   A    
C32   H11   S    
C43   H17   S    
C18   C19   A    
N6    Ni4   S    
C58   H19   S    
C1    N1    A    
C10   H42   S    
C3    H40   S    
C4    N16   A    
N8    N14   A    
C2    H39   S    
N8    Ni1   S    
C63   C69   A    
C68   C69   A    
C51   C57   A    
C9    C76   A    
C4    C12   A    
C19   H5    S    
C24   H8    S    
C40   H31   S    
C61   C71   A    
C51   H21   S    
C28   C34   A    
C59   C60   A    
C13   C14   A    
C1    H1    S    
C60   I2    S    
C77   N12   A    
C7    C56   A    
C12   C47   S    
N9    Ni2   S    
C27   C34   S    
N9    N15   A    
C50   C53   A    
C48   H16   S    
C62   C66   A    
C24   C25   A    
N1    Ni1   S    
C29   H7    S    
C5    C7    A    
C52   N5    A    
N11   N12   A    
C42   C48   A    
C46   H14   S    
N2    Ni3   S    
C53   H22   S    
C49   C58   A    
C51   C53   A    
C43   C44   A    
C37   C38   A    
C75   O1    D    
C28   H25   S    
C64   H33   S    
C47   C48   A    
C14   C15   A    
N14   Ni4   S    
C68   C72   A    
C64   N6    A    
C9    C77   A    
C6    C50   S    
C75   O2    S    
C67   H23   S    
C39   C46   A    
C56   H12   S    
N12   Ni2   S    
C16   C23   A    
C55   C57   A    
C59   H20   S    
C22   C24   A    
N3    Ni4   S    
C36   C44   A    
C42   C43   A    
C73   C74   A    
C65   H29   S    
C73   H35   S    
N3    N5    A    
N11   Ni4   S    
C15   C17   A    
C71   H26   S    
C54   C55   A    
N5    Ni1   S    
C62   C65   A    
N10   Ni3   S    
C8    C31   S    
C31   C32   A    
C67   N10   A    
C63   H27   S    
N13   Ni1   S    
C28   N3    A    
C16   H15   S    
C73   N7    A    
C38   H13   S    
C34   C52   A    
C49   C59   A    
C30   C36   A    
C5    H41   S    
C17   C25   A    
C32   C33   A    
C19   C20   A    
N7    Ni3   S    
C71   C72   A    
C50   C54   A    
C44   H18   S    
C77   H38   S    
H37   O2    S    
C76   N11   A    
C57   C58   A    
C38   C39   A    
C37   I1    S    
C20   C26   A    
C52   H32   S    
C76   H34   S    
C40   N4    A    
C4    H4    S    
C25   H9    S    
C33   C35   A    
C3    N14   A    
N1    N7    A    
C69   C70   A    
C35   C41   A    
C33   C37   A    
C46   C47   A    
N2    N4    A    
C10   C11   A    
C54   C75   S    
C45   H36   S    
C15   C21   A    
C20   C21   A    
C8    C67   A    
C18   H3    S    
C3    C6    A    
C2    C8    A    
C72   H28   S    
C62   C74   S    
N6    N16   A    
C30   H10   S    
C55   C60   A    
C56   N9    A    
