data_mof_unit_6087.cif
_audit_creation_date              2013-03-05T15:55:52-0500
_audit_creation_method            fapswitch 2.2
_symmetry_space_group_name_H-M    P1
_symmetry_Int_Tables_number       1
_space_group_crystal_system       triclinic
_cell_length_a                    12.323903
_cell_length_b                    13.117973
_cell_length_c                    15.845901
_cell_angle_alpha                 77.854162
_cell_angle_beta                  100.636379
_cell_angle_gamma                 116.225603
_cell_volume                      2234.29215303

loop_
_atom_site_label
_atom_site_type_symbol
_atom_site_description
_atom_site_fract_x
_atom_site_fract_y
_atom_site_fract_z
_atom_type_partial_charge
O1    O     O_R   0.972510 0.318130 0.524770 -0.579973
O2    O     O_R   0.806530 0.359650 0.491510 -0.590772
C1    C     C_R   0.854950 0.286187 0.509226 0.772849
O3    O     O_R   0.082970 0.479240 0.637550 -0.580874
O4    O     O_R   0.916990 0.520750 0.604290 -0.595456
C2    C     C_R   0.999261 0.499984 0.659873 0.817846
Cu1   Cu    Cu3+1 0.098270 0.475420 0.519690 0.960443
Cu2   Cu    Cu3+1 0.901730 0.524580 0.480310 0.932919
O5    O     O_R   0.193470 0.640350 0.508490 -0.590549
O6    O     O_R   0.027490 0.681870 0.475230 -0.607776
O7    O     O_R   0.083010 0.479250 0.395710 -0.539047
O8    O     O_R   0.917030 0.520760 0.362450 -0.593180
C3    C     C_R   0.145349 0.713965 0.488053 0.794168
C4    C     C_R   0.000818 0.500122 0.340147 0.818716
C5    C     C_3   0.008843 0.404007 0.046207 -0.196787
C6    C     C_3   0.904454 0.406132 0.975365 0.162374
H1    H     H_    0.017236 0.326399 0.085108 0.152904
C7    C     C_1   0.998117 0.500332 0.749373 -0.182461
C8    C     C_1   0.002005 0.499833 0.250698 -0.125393
C9    C     C_3   0.102147 0.498405 0.986994 0.183201
C10   C     C_3   0.998517 0.499629 0.916939 0.059179
C11   C     C_3   0.095007 0.593903 0.025435 -0.171942
C12   C     C_3   0.000321 0.499748 0.083237 0.068795
C13   C     C_3   0.990164 0.595188 0.954315 -0.235736
C14   C     C_3   0.895939 0.501096 0.013442 0.182751
C15   C     C_1   0.998073 0.500294 0.824960 -0.072415
C16   C     C_1   0.001829 0.499748 0.175129 -0.022123
H2    H     H_    0.982503 0.673104 0.915407 0.149654
H3    H     H_    0.173557 0.670570 0.047416 0.158632
C17   C     C_R   0.274512 0.033764 0.414051 -0.110088
H4    H     H_    0.095401 0.903050 0.421471 0.149106
H5    H     H_    0.241130 0.096247 0.379117 0.192523
C18   C     C_R   0.229424 0.836574 0.477091 -0.049573
C19   C     C_R   0.810796 0.090011 0.585001 -0.221046
C20   C     C_R   0.726486 0.988044 0.624592 -0.193647
C21   C     C_R   0.601178 0.956079 0.603016 0.173614
C22   C     C_R   0.561164 0.017454 0.526831 0.064256
C23   C     C_R   0.648143 0.123603 0.488759 -0.013394
C24   C     C_R   0.438034 0.982455 0.490084 0.024268
C25   C     C_R   0.399652 0.062300 0.433242 0.027814
C26   C     C_R   0.487104 0.165182 0.394190 0.304001
C27   C     C_R   0.609661 0.189950 0.418213 -0.250677
C28   C     C_R   0.353802 0.867737 0.501371 -0.195721
C29   C     C_R   0.190052 0.922311 0.438413 -0.221012
C30   C     C_R   0.771916 0.163214 0.523125 -0.074406
H6    H     H_    0.386238 0.801676 0.522642 0.151109
H7    H     H_    0.905704 0.117450 0.610324 0.157191
H8    H     H_    0.759820 0.940149 0.678900 0.134084
H9    H     H_    0.674978 0.262362 0.380534 0.196965
C31   C     C_R   0.344192 0.325863 0.638834 -0.306846
H10   H     H_    0.168994 0.312325 0.655236 0.123318
H11   H     H_    0.546830 0.293770 0.669418 0.145577
H12   H     H_    0.343819 0.261852 0.694718 0.138828
N1    N     N_R   0.246280 0.438200 0.549540 -0.192037
C32   C     C_R   0.750563 0.640972 0.379059 0.278452
C33   C     C_R   0.638172 0.638924 0.339122 -0.246240
C34   C     C_R   0.531880 0.570726 0.377574 0.319555
C35   C     C_R   0.539190 0.510975 0.461981 -0.115595
C36   C     C_R   0.649714 0.497335 0.493551 0.237023
C37   C     C_R   0.440042 0.461020 0.514705 -0.003729
C38   C     C_R   0.442633 0.380225 0.588693 0.172827
C39   C     C_R   0.544350 0.356143 0.612902 -0.280519
C40   C     C_R   0.646866 0.415899 0.568066 -0.137302
C41   C     C_R   0.340942 0.492670 0.499756 0.082148
C42   C     C_R   0.245694 0.355087 0.617230 0.068647
N2    N     N_R   0.754330 0.561180 0.450980 -0.221705
H13   H     H_    0.338944 0.562307 0.450236 0.157470
H14   H     H_    0.631140 0.689177 0.276666 0.195443
H15   H     H_    0.721345 0.394409 0.594126 0.197986
C43   C     C_3   0.802341 0.298461 0.942718 -0.414320
C44   C     C_3   0.725557 0.217012 0.014561 -0.813563
H16   H     H_    0.783761 0.193628 0.070203 0.251474
H17   H     H_    0.675600 0.256968 0.037169 0.259971
H18   H     H_    0.657955 0.137305 0.989168 0.243349
H19   H     H_    0.743600 0.323495 0.888537 0.202527
H20   H     H_    0.843772 0.252771 0.917093 0.201940
C45   C     C_3   0.519904 0.873333 0.672543 -0.412856
C46   C     C_3   0.455697 0.929320 0.708262 -0.814260
H21   H     H_    0.523416 0.010050 0.732360 0.247232
H22   H     H_    0.389320 0.948985 0.658035 0.259209
H23   H     H_    0.405598 0.869749 0.763144 0.236704
H24   H     H_    0.454079 0.790822 0.651671 0.193718
H25   H     H_    0.575499 0.847181 0.728907 0.195302
C47   C     C_3   0.866441 0.737542 0.347055 -0.338156
C48   C     C_3   0.853405 0.822953 0.267855 -0.936242
H26   H     H_    0.810198 0.778740 0.209892 0.263847
H27   H     H_    0.799953 0.866487 0.280846 0.264609
H28   H     H_    0.945098 0.890016 0.253572 0.262059
H29   H     H_    0.909950 0.787479 0.401425 0.203943
H30   H     H_    0.926674 0.704405 0.330751 0.248708
N3    N     N_R   0.417798 0.553449 0.325903 0.112980
O9    O     O_R   0.332026 0.450081 0.324247 -0.319042
O10   O     O_R   0.405825 0.637679 0.270876 -0.399990
C49   C     C_3   0.783630 0.509438 0.033743 -0.382951
C50   C     C_3   0.696806 0.514906 0.952557 -0.829579
H31   H     H_    0.744752 0.587439 0.902908 0.245906
H32   H     H_    0.657487 0.433493 0.924947 0.253532
H33   H     H_    0.621074 0.528190 0.969734 0.245829
H34   H     H_    0.735406 0.434873 0.081858 0.214930
H35   H     H_    0.814080 0.588531 0.063414 0.205064
C51   C     C_3   0.219445 0.497139 0.969764 -0.461657
C52   C     C_3   0.303826 0.496373 0.053279 -0.691454
H36   H     H_    0.329391 0.574362 0.083136 0.269586
H37   H     H_    0.258722 0.418811 0.100315 0.276892
H38   H     H_    0.387937 0.495380 0.038454 0.234758
H39   H     H_    0.196423 0.419495 0.940193 0.208626
H40   H     H_    0.266733 0.574396 0.923165 0.208341
N4    N     N_R   0.454454 0.240042 0.324569 0.128158
O11   O     O_R   0.522949 0.349919 0.314817 -0.348463
O12   O     O_R   0.371807 0.197493 0.261843 -0.365275

loop_
_geom_bond_atom_site_label_1
_geom_bond_atom_site_label_2
_geom_bond_distance
_ccdc_geom_bond_type
C51   H40   1.110817 S    
C32   C33   1.403702 A    
Cu2   N2    2.027711 S    
C51   C52   1.525920 S    
C26   N4    1.439731 S    
C26   C27   1.392052 A    
C50   H31   1.110467 S    
C7    C15   1.197741 T    
C10   C15   1.454700 S    
C50   H33   1.110411 S    
Cu1   Cu2   2.706518 S    
N1    C42   1.357584 A    
C45   C46   1.529628 S    
C33   C34   1.384580 A    
Cu1   O7    1.930769 S    
C6    C10   1.538495 S    
C49   H34   1.109473 S    
C21   C22   1.439074 A    
C11   H3    1.110117 S    
C22   C23   1.420552 A    
C23   C27   1.411274 A    
C21   C45   1.529203 S    
C36   N2    1.395602 A    
O4    C2    1.300547 A    
O7    C4    1.300240 A    
C46   H22   1.108570 S    
C45   H25   1.112525 S    
C35   C37   1.434995 A    
C5    C6    1.549630 S    
C6    C14   1.543408 S    
N4    O11   1.301168 A    
C52   H38   1.110390 S    
C5    H1    1.110213 S    
C19   C20   1.386185 A    
H10   C42   1.081760 S    
O5    C3    1.301062 A    
C23   C30   1.416060 A    
C44   H18   1.110253 S    
C40   H15   1.064081 S    
C43   C44   1.524886 S    
C12   C16   1.452802 S    
C8    C16   1.197279 T    
C38   C39   1.392775 A    
C5    C12   1.543413 S    
C14   C49   1.531075 S    
C17   C29   1.391346 A    
C52   H36   1.110645 S    
C47   H30   1.099973 S    
O3    Cu1   1.924503 S    
C20   H8    1.083589 S    
C31   C42   1.392959 A    
C48   H27   1.111061 S    
C5    C9    1.544956 S    
C2    C7    1.421862 S    
C31   H12   1.083736 S    
H4    C29   1.071927 S    
C18   C28   1.399766 A    
C41   H13   1.077928 S    
C6    C43   1.530507 S    
C13   C14   1.548544 S    
O3    C2    1.298746 A    
N3    O9    1.301781 A    
C44   H17   1.108036 S    
C46   H21   1.111406 S    
C24   C28   1.396000 A    
C9    C51   1.527512 S    
C35   C36   1.436574 A    
C48   H26   1.110938 S    
C1    C30   1.474001 S    
C37   C38   1.411413 A    
O1    C1    1.307827 A    
C20   C21   1.403794 A    
C3    C18   1.471955 S    
C39   C40   1.391805 A    
N3    O10   1.301583 A    
C49   H35   1.111026 S    
Cu2   O8    1.924503 S    
C17   C25   1.405541 A    
C19   C30   1.396450 A    
C47   C48   1.532686 S    
C52   H37   1.110714 S    
C25   C26   1.405395 A    
O8    C4    1.298657 A    
C43   H20   1.110960 S    
C11   C13   1.553548 S    
C47   H29   1.102451 S    
C24   C25   1.419752 A    
C32   N2    1.384927 A    
C48   H28   1.110904 S    
C51   H39   1.110777 S    
Cu1   O5    1.939272 S    
C34   N3    1.438729 S    
O1    Cu1   1.953382 S    
C18   C29   1.399446 A    
C4    C8    1.420994 S    
O2    Cu2   1.939272 S    
C13   H2    1.110104 S    
C9    C11   1.544825 S    
O6    C3    1.309511 A    
O4    Cu2   1.930769 S    
C50   H32   1.108039 S    
C36   C40   1.409963 A    
C37   C41   1.421271 A    
O2    C1    1.302358 A    
C44   H16   1.110493 S    
C22   C24   1.422340 A    
C33   H14   1.079726 S    
C17   H5    1.081924 S    
C46   H23   1.110846 S    
C34   C35   1.410028 A    
N1    C41   1.363694 A    
C45   H24   1.102076 S    
N4    O12   1.301606 A    
C12   C14   1.537837 S    
C49   C50   1.525093 S    
C28   H6    1.076062 S    
C27   H9    1.081536 S    
C9    C10   1.533252 S    
Cu2   O6    1.953382 S    
C10   C13   1.543276 S    
C43   H19   1.109511 S    
C31   C38   1.401568 A    
C11   C12   1.539744 S    
H11   C39   1.084472 S    
C19   H7    1.083545 S    
Cu1   N1    2.039796 S    
C32   C47   1.516404 S    
