data_mof_unit_19669.cif
_audit_creation_date              2012-12-10T19:31:30-0500
_audit_creation_method            fapswitch 2.2
_symmetry_space_group_name_H-M    P1
_symmetry_Int_Tables_number       1
_space_group_crystal_system       triclinic
_cell_length_a                    19.219504
_cell_length_b                    15.741694
_cell_length_c                    14.948238
_cell_angle_alpha                 89.238183
_cell_angle_beta                  90.483625
_cell_angle_gamma                 90.056493
_cell_volume                      4521.99020936

loop_
_atom_site_label
_atom_site_type_symbol
_atom_type_description
_atom_site_fract_x
_atom_site_fract_y
_atom_site_fract_z
_atom_type_partial_charge
C1    C     C_R   0.499370 0.337649 0.500532 0.914875
C2    C     C_3   0.492887 0.976128 0.410210 -0.065788
C3    C     C_R   0.642896 0.601731 0.134448 -0.162960
C4    C     C_R   0.362581 0.448823 0.950518 0.133150
C5    C     C_R   0.313401 0.445410 0.019513 -0.131299
C6    C     C_R   0.245143 0.419392 0.001946 -0.145104
C7    C     C_R   0.225617 0.395623 0.915602 -0.111145
C8    C     C_R   0.274407 0.397667 0.846876 -0.138496
C9    C     C_R   0.342582 0.424250 0.864014 -0.171924
C10   C     C_3   0.495232 0.083401 0.502128 -0.000868
C11   C     C_3   0.508920 0.916381 0.490669 -0.010889
C12   C     C_1   0.495013 0.174055 0.502538 -0.089044
C13   C     C_1   0.508112 0.825677 0.493539 -0.103305
C14   C     C_3   0.547587 0.442138 0.971397 -0.284624
C15   C     C_3   0.452096 0.556138 0.028785 -0.288819
C16   C     C_3   0.563679 0.522098 0.028613 0.019242
C17   C     C_3   0.435925 0.476292 0.971881 0.014277
C18   C     C_3   0.484800 0.423560 0.032992 0.258566
C19   C     C_R   0.500908 0.662331 0.499333 0.906952
C20   C     C_3   0.514892 0.574984 0.967344 0.267892
C21   C     C_3   0.500945 0.501617 0.090088 -0.043476
C22   C     C_3   0.498493 0.496563 0.910043 -0.038041
C23   C     C_R   0.365389 0.502247 0.499554 0.880161
C24   C     C_R   0.634633 0.502288 0.500430 0.881551
C25   C     C_1   0.500280 0.500775 0.189977 0.054426
C26   C     C_1   0.499645 0.498415 0.810070 0.039489
C27   C     C_R   0.253595 0.465012 0.565423 -0.290964
C28   C     C_R   0.745821 0.467084 0.432917 -0.225575
C29   C     C_R   0.181456 0.467234 0.567401 0.234163
C30   C     C_3   0.566359 0.976660 0.525369 -0.058215
C31   C     C_R   0.817893 0.467051 0.431093 0.227380
C32   C     C_R   0.145179 0.513259 0.500617 -0.009895
C33   C     C_R   0.854942 0.507636 0.500141 -0.043055
C34   C     C_R   0.181039 0.559517 0.433735 -0.080632
C35   C     C_R   0.819910 0.548507 0.570311 -0.059770
C36   C     C_R   0.254218 0.557396 0.432749 -0.062635
C37   C     C_R   0.746698 0.550041 0.570039 -0.060587
C38   C     C_R   0.289965 0.508673 0.498668 -0.115676
C39   C     C_R   0.710181 0.507109 0.501552 -0.150105
C40   C     C_R   0.930230 0.508922 0.498460 0.273931
C41   C     C_3   0.437946 0.022958 0.466714 -0.052557
C42   C     C_R   0.069761 0.511826 0.500543 0.312424
C43   C     C_3   0.533212 0.727801 0.987371 -0.855113
C44   C     C_3   0.464535 0.272162 0.008827 -0.808288
C45   C     C_3   0.122204 0.476210 0.708740 -0.788466
C46   C     C_3   0.849668 0.337944 0.355174 -0.774236
C47   C     C_R   0.142225 0.609324 0.364397 0.139207
C48   C     C_R   0.145684 0.698475 0.363128 -0.112710
C49   C     C_R   0.109618 0.745171 0.297488 -0.134236
C50   C     C_R   0.069759 0.703260 0.233022 -0.106126
C51   C     C_R   0.065985 0.614563 0.234009 -0.139049
C52   C     C_3   0.549488 0.036678 0.445718 0.205888
C53   C     C_R   0.102148 0.567604 0.299364 -0.161963
C54   C     C_R   0.860068 0.588660 0.644106 0.134155
C55   C     C_R   0.860594 0.677296 0.653336 -0.111716
C56   C     C_R   0.898683 0.714634 0.722525 -0.129119
C57   C     C_R   0.936813 0.663792 0.782562 -0.109560
C58   C     C_R   0.936841 0.575530 0.773529 -0.150395
C59   C     C_R   0.898575 0.537958 0.704620 -0.151833
C60   C     C_R   0.292531 0.606928 0.363567 0.150022
C61   C     C_R   0.286895 0.585055 0.273002 -0.105593
C62   C     C_R   0.320442 0.633826 0.207606 -0.157070
C63   C     C_3   0.454779 0.963317 0.546688 0.202634
C64   C     C_R   0.360888 0.703700 0.232143 -0.109673
C65   C     C_R   0.367109 0.725482 0.322200 -0.109734
C66   C     C_R   0.332829 0.677589 0.387813 -0.149743
C67   C     C_R   0.709049 0.600891 0.637488 0.146349
C68   C     C_R   0.712163 0.578957 0.728886 -0.124882
C69   C     C_R   0.678952 0.629623 0.791713 -0.125231
C70   C     C_R   0.642154 0.701879 0.763775 -0.114792
C71   C     C_R   0.637585 0.722983 0.672980 -0.106130
C72   C     C_R   0.670980 0.672873 0.609954 -0.133204
C73   C     C_3   0.642755 0.031948 0.332942 -0.770010
C74   C     C_1   0.496850 0.249122 0.501775 -0.212216
C75   C     C_3   0.356453 0.972048 0.650962 -0.773441
C76   C     C_R   0.640274 0.955094 0.551662 0.146337
C77   C     C_R   0.678927 0.010609 0.605628 -0.117543
C78   C     C_R   0.748101 0.992128 0.628060 -0.142713
C79   C     C_R   0.779784 0.919299 0.594951 -0.104263
C80   C     C_R   0.742425 0.865251 0.538886 -0.137428
C81   C     C_R   0.672976 0.882798 0.517523 -0.191194
C82   C     C_R   0.364523 0.038936 0.434120 0.124721
C83   C     C_R   0.323549 0.969516 0.407660 -0.103921
C84   C     C_R   0.255478 0.981960 0.376711 -0.146893
C85   C     C_1   0.504967 0.750740 0.496997 -0.221703
C86   C     C_R   0.227649 0.063841 0.372026 -0.111046
C87   C     C_R   0.267880 0.133273 0.398394 -0.138850
C88   C     C_R   0.336050 0.121044 0.429374 -0.183870
C89   C     C_R   0.486326 0.954861 0.312415 0.135818
C90   C     C_R   0.458237 0.014995 0.251932 -0.143861
C91   C     C_R   0.454187 0.997406 0.160590 -0.140570
C92   C     C_R   0.478993 0.920194 0.128746 -0.121937
C93   C     C_R   0.508350 0.860842 0.188190 -0.165700
C94   C     C_R   0.512402 0.878145 0.279454 -0.171432
C95   C     C_R   0.519717 0.040295 0.681209 0.123530
C96   C     C_3   0.511667 0.023348 0.582475 -0.059209
C97   C     C_R   0.538502 0.973101 0.739405 -0.152710
C98   C     C_R   0.545222 0.986544 0.831327 -0.140578
C99   C     C_R   0.532931 0.067040 0.866049 -0.115717
C100  C     C_R   0.513882 0.134066 0.808790 -0.150995
C101  C     C_R   0.507101 0.120882 0.716882 -0.157817
C102  C     C_R   0.635173 0.547199 0.061304 0.140227
C103  C     C_R   0.694958 0.514650 0.020574 -0.175405
C104  C     C_R   0.761156 0.536445 0.052370 -0.136278
C105  C     C_R   0.768256 0.590411 0.125336 -0.097091
C106  C     C_R   0.709150 0.623076 0.166299 -0.131237
H1    H     H_    0.281492 0.428497 0.616178 0.150270
H2    H     H_    0.443889 0.214560 0.043102 0.238349
H3    H     H_    0.517275 0.257736 0.983370 0.224206
H4    H     H_    0.429284 0.288431 0.951971 0.256039
H5    H     H_    0.170853 0.369208 0.660084 0.213497
H6    H     H_    0.167560 0.505501 0.743157 0.240875
H7    H     H_    0.092868 0.437159 0.758026 0.228690
H8    H     H_    0.087138 0.527092 0.682961 0.260072
H9    H     H_    0.900114 0.454418 0.341151 0.229027
H10   H     H_    0.875007 0.315229 0.293453 0.233623
H11   H     H_    0.795007 0.314982 0.355018 0.242083
H12   H     H_    0.717333 0.435858 0.379745 0.175065
H13   H     H_    0.877753 0.310873 0.414233 0.249823
H14   H     H_    0.176281 0.731595 0.412889 0.122351
H15   H     H_    0.112531 0.813847 0.296643 0.120195
H16   H     H_    0.041804 0.739507 0.182301 0.119054
H17   H     H_    0.035120 0.582198 0.184041 0.121934
H18   H     H_    0.099141 0.498895 0.299299 0.122654
H19   H     H_    0.831710 0.717205 0.606891 0.117360
H20   H     H_    0.898780 0.782989 0.729441 0.121922
H21   H     H_    0.966411 0.692786 0.835992 0.121552
H22   H     H_    0.966527 0.536228 0.819905 0.126956
H23   H     H_    0.584974 0.393531 0.948476 0.144832
H24   H     H_    0.898877 0.469499 0.698305 0.133376
H25   H     H_    0.255868 0.530915 0.253102 0.116192
H26   H     H_    0.314466 0.617754 0.137892 0.120900
H27   H     H_    0.387010 0.741186 0.181338 0.130218
H28   H     H_    0.398133 0.779720 0.341191 0.138658
H29   H     H_    0.337351 0.695674 0.457281 0.111272
H30   H     H_    0.740757 0.523293 0.751360 0.121554
H31   H     H_    0.682037 0.613296 0.862081 0.153143
H32   H     H_    0.617251 0.741737 0.812359 0.144691
H33   H     H_    0.608439 0.778459 0.651596 0.135124
H34   H     H_    0.414149 0.604402 0.050497 0.143362
H35   H     H_    0.667600 0.690246 0.539730 0.098761
H36   H     H_    0.581761 0.136389 0.361909 0.229845
H37   H     H_    0.691484 0.066989 0.317886 0.239211
H38   H     H_    0.614487 0.021377 0.269019 0.242672
H39   H     H_    0.656698 0.969775 0.363454 0.250116
H40   H     H_    0.423897 0.870025 0.638748 0.228683
H41   H     H_    0.312563 0.932607 0.675679 0.236861
H42   H     H_    0.334692 0.024044 0.608600 0.255152
H43   H     H_    0.383655 0.999590 0.709541 0.245588
H44   H     H_    0.655828 0.068431 0.630017 0.138023
H45   H     H_    0.498329 0.669984 0.872090 0.228144
H46   H     H_    0.777361 0.034764 0.670373 0.128836
H47   H     H_    0.833493 0.905346 0.611753 0.118351
H48   H     H_    0.767311 0.810015 0.511227 0.122771
H49   H     H_    0.645612 0.840903 0.472585 0.129929
H50   H     H_    0.344396 0.905695 0.411167 0.132272
H51   H     H_    0.224320 0.928101 0.356434 0.125710
H52   H     H_    0.174910 0.073490 0.348078 0.124196
H53   H     H_    0.246211 0.196687 0.394866 0.133662
H54   H     H_    0.365747 0.175805 0.449412 0.143968
H55   H     H_    0.439993 0.075772 0.275304 0.136563
H56   H     H_    0.543156 0.787248 0.948802 0.229697
H57   H     H_    0.432282 0.043905 0.114418 0.128163
H58   H     H_    0.476114 0.906769 0.057983 0.127724
H59   H     H_    0.528541 0.801516 0.163793 0.135098
H60   H     H_    0.537226 0.832124 0.323283 0.144203
H61   H     H_    0.547832 0.910249 0.713521 0.120543
H62   H     H_    0.559827 0.934528 0.875638 0.120906
H63   H     H_    0.537923 0.077412 0.937264 0.125754
H64   H     H_    0.503995 0.196364 0.835431 0.135195
H65   H     H_    0.491083 0.173596 0.674920 0.151505
H66   H     H_    0.690681 0.472939 0.963848 0.118802
H67   H     H_    0.576615 0.719107 0.035577 0.257030
H68   H     H_    0.806978 0.511374 0.020464 0.126482
H69   H     H_    0.819531 0.606983 0.150051 0.121709
H70   H     H_    0.714645 0.664948 0.222785 0.128824
H71   H     H_    0.597759 0.627921 0.166927 0.126865
H72   H     H_    0.327979 0.462784 0.086987 0.127332
H73   H     H_    0.207490 0.417334 0.055373 0.124116
H74   H     H_    0.172838 0.375160 0.902048 0.122689
H75   H     H_    0.259550 0.378192 0.780306 0.127129
H76   H     H_    0.379279 0.423918 0.809867 0.137234
H77   H     H_    0.483300 0.734802 0.023417 0.235341
H78   H     H_    0.498101 0.326322 0.127171 0.225855
N1    N     N_R   0.033484 0.585493 0.499042 -0.166271
N2    N     N_2   0.851964 0.429762 0.356832 -0.307636
N3    N     N_2   0.600771 0.081949 0.392357 -0.296778
N4    N     N_2   0.403359 0.919270 0.600868 -0.304849
N5    N     N_R   0.966426 0.435226 0.500382 -0.178294
N6    N     N_R   0.964543 0.584051 0.497965 -0.163003
N7    N     N_R   0.035415 0.436674 0.501272 -0.159691
N8    N     N_1   0.500020 0.500000 0.268010 -0.088427
N9    N     N_1   0.499980 0.500000 0.731990 -0.091602
N10   N     N_2   0.529660 0.657137 0.926931 -0.307037
N11   N     N_2   0.468261 0.341114 0.071500 -0.300192
N12   N     N_2   0.145481 0.422907 0.636753 -0.297882
O1    O     O_R   0.500000 0.376780 0.574460 -0.617156
O2    O     O_R   0.500000 0.623220 0.425540 -0.610666
O3    O     O_R   0.500010 0.376780 0.425520 -0.612194
O4    O     O_R   0.499990 0.623220 0.574480 -0.605664
O5    O     O_R   0.398130 0.499990 0.574490 -0.620278
O6    O     O_R   0.601870 0.500010 0.425510 -0.620655
O7    O     O_R   0.398140 0.499990 0.425550 -0.602769
O8    O     O_R   0.601860 0.500010 0.574450 -0.598621
Zn1   Zn    Zn3+2 0.499990 0.500000 0.599450 0.971674
Zn2   Zn    Zn3+2 0.500010 0.500000 0.400550 0.974130

loop_
_geom_bond_atom_site_label_1
_geom_bond_atom_site_label_2
_ccdc_geom_bond_type
C8    H75   S    
C55   C56   A    
C59   H24   S    
C58   H22   S    
O4    Zn1   S    
C12   C74   T    
C6    H73   S    
C27   C29   A    
C18   C21   S    
C51   H17   S    
C14   C18   S    
O1    Zn1   S    
C75   N4    S    
C50   H16   S    
C87   C88   A    
C10   C52   S    
C94   H60   S    
C97   C98   A    
C57   C58   A    
C45   H6    S    
C78   H46   S    
C7    C8    A    
C48   H14   S    
C77   C78   A    
H36   N3    S    
C24   O6    A    
C19   O4    A    
C16   C21   S    
C23   O5    A    
C83   C84   A    
C1    C74   S    
H45   N10   S    
H40   N4    S    
C35   C37   A    
C84   C86   A    
C29   C32   A    
C11   C63   S    
C69   C70   A    
C5    C6    A    
C66   H29   S    
O2    Zn2   S    
C2    C41   S    
C24   C39   S    
C56   C57   A    
C67   C72   A    
C89   C94   A    
N5    N7    A    
C100  C101  A    
C30   C96   S    
C9    H76   S    
C64   H27   S    
C45   H8    S    
C40   N5    A    
C55   H19   S    
C11   C30   S    
C8    C9    A    
C44   N11   S    
C46   H13   S    
C62   C64   A    
C31   C33   A    
C70   C71   A    
C52   N3    S    
C56   H20   S    
C27   H1    S    
C65   H28   S    
H5    N12   S    
C47   C53   A    
C44   H3    S    
C92   H58   S    
C45   N12   S    
C93   H59   S    
C35   C54   S    
C91   H57   S    
C1    O3    A    
C2    C11   S    
C42   N7    A    
C20   N10   S    
C104  C105  A    
C73   N3    S    
C50   C51   A    
C10   C12   S    
C54   C59   A    
C44   H2    S    
C3    C106  A    
C69   H31   S    
C15   C20   S    
O7    Zn2   S    
C33   C40   S    
N9    Zn1   S    
C90   H55   S    
C100  H64   S    
C102  C103  A    
C62   H26   S    
N1    N6    A    
C76   C77   A    
C89   C90   A    
C91   C92   A    
H9    N2    S    
C78   C79   A    
C68   C69   A    
C104  H68   S    
C83   H50   S    
C28   C39   A    
C75   H41   S    
C58   C59   A    
C97   H61   S    
C63   C96   S    
C53   H18   S    
O3    Zn2   S    
C67   C68   A    
C46   H11   S    
C23   O7    A    
C60   C61   A    
C51   C53   A    
C32   C34   A    
C76   C81   A    
C2    C89   S    
C43   H67   S    
C73   H39   S    
C79   H47   S    
C30   C76   S    
C47   C48   A    
C10   C96   S    
C16   C20   S    
C49   H15   S    
C17   C18   S    
C93   C94   A    
C46   N2    S    
C68   H30   S    
C86   H52   S    
C2    C52   S    
C4    C17   S    
C42   N1    A    
C16   C102  S    
C48   C49   A    
C36   C60   S    
C20   C22   S    
C49   C50   A    
C43   N10   S    
C72   H35   S    
C105  H69   S    
C103  H66   S    
C14   C16   S    
C65   C66   A    
C41   C63   S    
H78   N11   S    
C103  C104  A    
C3    C102  A    
C15   H34   S    
C73   H37   S    
O6    Zn2   S    
C15   C17   S    
C21   C25   S    
C54   C55   A    
C24   O8    A    
C19   O2    A    
O5    Zn1   S    
C63   N4    S    
C18   N11   S    
C86   C87   A    
N8    Zn2   S    
C28   C31   A    
C1    O1    A    
C80   C81   A    
C19   C85   S    
C25   N8    T    
C77   H44   S    
C57   H21   S    
C71   H33   S    
C84   H51   S    
C95   C97   A    
C80   H48   S    
C6    C7    A    
C99   H63   S    
C75   H42   S    
C23   C38   S    
C105  C106  A    
C17   C22   S    
C81   H49   S    
C99   C100  A    
C46   H10   S    
C64   C65   A    
C14   C22   S    
C36   C38   A    
C3    H71   S    
C71   C72   A    
C37   C39   A    
C29   N12   S    
C28   H12   S    
C11   C13   S    
C70   H32   S    
C90   C91   A    
C32   C42   S    
C15   C21   S    
C30   C52   S    
C75   H43   S    
C82   C88   A    
C41   C82   S    
C37   C67   S    
C31   N2    S    
C43   H77   S    
C92   C93   A    
C33   C35   A    
C87   H53   S    
C7    H74   S    
C101  H65   S    
C34   C36   A    
C88   H54   S    
C61   C62   A    
C5    H72   S    
C61   H25   S    
C60   C66   A    
C79   C80   A    
C43   H56   S    
C45   H7    S    
C4    C5    A    
C40   N6    A    
O8    Zn1   S    
C98   C99   A    
C22   C26   S    
C13   C85   T    
C95   C96   S    
C106  H70   S    
C34   C47   S    
C27   C38   A    
C82   C83   A    
C4    C9    A    
C26   N9    T    
C73   H38   S    
C98   H62   S    
C95   C101  A    
C10   C41   S    
C14   H23   S    
C44   H4    S    
