data_mof_unit_7114.cif
_audit_creation_date              2012-12-10T17:52:22-0500
_audit_creation_method            fapswitch 2.2
_symmetry_space_group_name_H-M    P1
_symmetry_Int_Tables_number       1
_space_group_crystal_system       triclinic
_cell_length_a                    19.056182
_cell_length_b                    10.634986
_cell_length_c                    9.913881
_cell_angle_alpha                 89.889808
_cell_angle_beta                  89.926129
_cell_angle_gamma                 91.658165
_cell_volume                      2008.32235717

loop_
_atom_site_label
_atom_site_type_symbol
_atom_type_description
_atom_site_fract_x
_atom_site_fract_y
_atom_site_fract_z
_atom_type_partial_charge
C1    C     C_R   0.502098 0.260723 0.500158 0.854661
C2    C     C_R   0.289359 0.475738 0.500613 -0.033627
C3    C     C_R   0.927676 0.401695 0.503069 0.292101
C4    C     C_R   0.069296 0.398537 0.502776 0.287456
C5    C     C_R   0.817224 0.447135 0.623764 -0.137348
C6    C     C_R   0.746663 0.475562 0.622506 -0.201158
C7    C     C_R   0.710102 0.479179 0.500059 -0.041611
C8    C     C_R   0.745001 0.454470 0.378816 -0.183649
C9    C     C_R   0.815541 0.425746 0.380098 -0.160711
C10   C     C_R   0.852182 0.421967 0.502590 0.081072
C11   C     C_R   0.617695 0.136767 0.632141 -0.219674
C12   C     C_R   0.365286 0.496634 0.500148 0.846133
C13   C     C_R   0.671511 0.073579 0.696785 0.073055
C14   C     C_R   0.671527 0.942514 0.695728 -0.181088
C15   C     C_R   0.617902 0.874584 0.630687 -0.212754
C16   C     C_R   0.562307 0.937116 0.567140 0.099014
C17   C     C_R   0.562214 0.068956 0.567701 0.081140
C18   C     C_R   0.507138 0.128674 0.500039 -0.079366
C19   C     C_R   0.455385 0.062057 0.429012 -0.212991
C20   C     C_R   0.455481 0.933640 0.428628 -0.199425
C21   C     C_R   0.507329 0.872056 0.499254 -0.098176
C22   C     C_R   0.407792 0.335379 0.140542 -0.163333
C23   C     C_R   0.502244 0.739475 0.499842 0.876678
C24   C     C_R   0.362251 0.254535 0.070617 -0.201109
C25   C     C_R   0.362265 0.254504 0.931006 -0.190117
C26   C     C_R   0.407843 0.335283 0.860504 -0.158978
C27   C     C_R   0.454593 0.418832 0.927957 0.168616
C28   C     C_R   0.454585 0.418887 0.072549 0.173492
C29   C     C_R   0.543522 0.577499 0.071212 -0.113698
C30   C     C_R   0.543509 0.577473 0.928100 -0.112362
C31   C     C_R   0.634657 0.497811 0.499908 0.832017
C32   C     C_R   0.253353 0.461599 0.623378 -0.201517
C33   C     C_R   0.181999 0.432053 0.624105 -0.161514
C34   C     C_R   0.145595 0.416687 0.502066 0.087389
C35   C     C_R   0.181818 0.429642 0.379285 -0.160992
C36   C     C_R   0.253198 0.459214 0.378565 -0.206679
H1    H     H_    0.280268 0.472389 0.719007 0.162083
H2    H     H_    0.620328 0.238470 0.631449 0.159002
H3    H     H_    0.713417 0.892610 0.744205 0.143478
H4    H     H_    0.621184 0.773283 0.629266 0.150491
H5    H     H_    0.414077 0.881869 0.375817 0.155431
H6    H     H_    0.579080 0.640852 0.124710 0.148618
H7    H     H_    0.404661 0.329583 0.247477 0.198049
H8    H     H_    0.326762 0.191469 0.125304 0.149793
H9    H     H_    0.326771 0.191430 0.876786 0.153935
H10   H     H_    0.404804 0.329423 0.753564 0.203196
H11   H     H_    0.155340 0.422971 0.720311 0.151876
H12   H     H_    0.579047 0.640829 0.874085 0.143828
H13   H     H_    0.154990 0.418776 0.283613 0.151925
H14   H     H_    0.280012 0.468126 0.282471 0.161865
H15   H     H_    0.844360 0.445988 0.719634 0.158389
H16   H     H_    0.720707 0.493481 0.717532 0.159248
H17   H     H_    0.717692 0.455464 0.283082 0.161411
H18   H     H_    0.841328 0.407380 0.285050 0.154535
H19   H     H_    0.413924 0.109742 0.376383 0.140775
N1    N     N_R   0.033163 0.393709 0.385140 -0.177093
N2    N     N_R   0.963568 0.395197 0.385288 -0.175736
N3    N     N_R   0.963699 0.401908 0.620846 -0.173816
N4    N     N_R   0.033280 0.400371 0.620697 -0.176589
N5    N     N_R   0.499340 0.498800 0.142780 -0.121230
N6    N     N_R   0.499320 0.498720 0.857170 -0.120579
O1    O     O_R   0.500000 0.316780 0.614690 -0.638652
O2    O     O_R   0.499990 0.316750 0.385360 -0.626973
O3    O     O_R   0.398140 0.500000 0.614700 -0.633256
O4    O     O_R   0.398130 0.499970 0.385370 -0.637491
O5    O     O_R   0.500010 0.683250 0.614640 -0.611519
O6    O     O_R   0.500000 0.683220 0.385310 -0.608492
O7    O     O_R   0.601870 0.500030 0.614630 -0.631945
O8    O     O_R   0.601860 0.500000 0.385300 -0.613031
Zn1   Zn    Zn3+2 0.500000 0.500020 0.653130 0.932265
Zn2   Zn    Zn3+2 0.500000 0.499980 0.346870 0.940038
C37   C     C_1   0.727158 0.143438 0.763596 0.154052
N7    N     N_1   0.771867 0.199364 0.817565 -0.208826

loop_
_geom_bond_atom_site_label_1
_geom_bond_atom_site_label_2
_ccdc_geom_bond_type
C8    H17   S    
C35   H13   S    
C11   H2    S    
C5    H15   S    
C16   C21   A    
C29   C30   A    
C13   C37   S    
O3    Zn1   S    
C29   H6    S    
C18   C19   A    
C9    C10   A    
C19   C20   A    
C35   C36   A    
C29   N5    A    
C2    C12   S    
C32   C33   A    
C33   H11   S    
C21   C23   S    
C20   H5    S    
C14   H3    S    
O8    Zn2   S    
C5    C10   A    
O7    Zn1   S    
N6    Zn1   S    
C22   C28   A    
C32   H1    S    
C20   C21   A    
C11   C13   A    
O1    Zn1   S    
C1    C18   S    
O5    Zn1   S    
C24   H8    S    
C5    C6    A    
C1    O2    A    
C4    N4    A    
C30   H12   S    
O2    Zn2   S    
C33   C34   A    
C6    C7    A    
O6    Zn2   S    
C28   N5    A    
C4    C34   S    
C17   C18   A    
C31   O7    A    
C12   O3    A    
C22   C24   A    
C15   H4    S    
N3    N4    A    
C7    C31   S    
N1    N2    A    
C26   H10   S    
C2    C36   A    
C15   C16   A    
C3    N3    A    
C25   H9    S    
C31   O8    A    
C36   H14   S    
C24   C25   A    
C23   O5    A    
C1    O1    A    
C2    C32   A    
C34   C35   A    
C12   O4    A    
C30   N6    A    
C23   O6    A    
C27   C28   A    
C3    C10   S    
C7    C8    A    
C19   H19   S    
C14   C15   A    
C8    C9    A    
C26   C27   A    
C9    H18   S    
C27   N6    A    
N5    Zn2   S    
C6    H16   S    
C25   C26   A    
C13   C14   A    
C4    N1    A    
C22   H7    S    
C16   C17   A    
O4    Zn2   S    
C37   N7    T    
C3    N2    A    
C11   C17   A    
