data_mof_unit_30445.cif
_audit_creation_date              2013-03-05T15:50:33-0500
_audit_creation_method            fapswitch 2.2
_symmetry_space_group_name_H-M    P1
_symmetry_Int_Tables_number       1
_space_group_crystal_system       triclinic
_cell_length_a                    9.623586
_cell_length_b                    10.796185
_cell_length_c                    13.383438
_cell_angle_alpha                 92.345013
_cell_angle_beta                  71.738958
_cell_angle_gamma                 88.842489
_cell_volume                      1318.579596

loop_
_atom_site_label
_atom_site_type_symbol
_atom_site_description
_atom_site_fract_x
_atom_site_fract_y
_atom_site_fract_z
_atom_type_partial_charge
O1    O     O_R   0.381190 0.680360 0.500010 -0.569593
O2    O     O_R   0.618760 0.680340 0.500000 -0.553017
C1    C     C_R   0.504344 0.735980 0.486359 0.819827
O3    O     O_R   0.323240 0.499990 0.650990 -0.497531
O4    O     O_R   0.560820 0.499960 0.650980 -0.587291
C2    C     C_R   0.420257 0.500029 0.700700 0.837941
Cu1   Cu    Cu3+1 0.359340 0.500010 0.500010 0.998326
Cu2   Cu    Cu3+1 0.640660 0.499990 0.499990 1.005590
O5    O     O_R   0.381240 0.319660 0.500000 -0.603136
O6    O     O_R   0.618810 0.319640 0.499990 -0.590121
O7    O     O_R   0.439180 0.500040 0.349020 -0.620156
O8    O     O_R   0.676760 0.500010 0.349010 -0.550629
C3    C     C_R   0.498755 0.262139 0.504557 0.797590
C4    C     C_R   0.579466 0.503824 0.299750 0.792953
C5    C     C_R   0.754280 0.642420 0.036815 -0.221833
H1    H     H_    0.746067 0.725136 0.854662 0.186063
H2    H     H_    0.843749 0.701315 0.999137 0.199720
C6    C     C_R   0.624320 0.524708 0.186195 -0.162544
C7    C     C_R   0.248308 0.419212 0.865290 0.101195
C8    C     C_R   0.212945 0.396667 0.973081 0.174789
C9    C     C_R   0.304861 0.435874 0.029320 -0.104789
C10   C     C_R   0.431889 0.502019 0.981528 0.036457
C11   C     C_R   0.455998 0.539931 0.877443 0.031235
C12   C     C_R   0.535167 0.533105 0.034202 0.104812
C13   C     C_R   0.651039 0.611751 0.986589 0.089454
C14   C     C_R   0.661683 0.660697 0.889857 -0.133194
C15   C     C_R   0.564775 0.626536 0.836617 -0.150293
C16   C     C_R   0.527732 0.487372 0.132369 -0.252126
C17   C     C_R   0.742498 0.599598 0.136261 0.310949
C18   C     C_R   0.370756 0.490835 0.816657 -0.101049
H3    H     H_    0.445310 0.423738 0.170562 0.173558
H4    H     H_    0.271631 0.415096 0.111337 0.169039
H5    H     H_    0.574940 0.670490 0.763665 0.152704
C19   C     C_R   0.261806 0.894155 0.441231 0.217403
C20   C     C_R   0.125269 0.956532 0.479567 -0.134939
H6    H     H_    0.036125 0.922318 0.455613 0.147451
C21   C     C_R   0.104756 0.062436 0.547071 0.341527
C22   C     C_R   0.227702 0.116126 0.562446 -0.220816
H7    H     H_    0.212101 0.198929 0.613400 0.204354
C23   C     C_R   0.368762 0.061882 0.514301 0.007231
C24   C     C_R   0.380205 0.939082 0.472914 0.035976
C25   C     C_R   0.509665 0.869243 0.465023 -0.124350
C26   C     C_R   0.639453 0.932362 0.455156 0.169549
H8    H     H_    0.735247 0.108934 0.457426 0.185934
C27   C     C_R   0.633791 0.060860 0.470743 -0.174065
C28   C     C_R   0.498989 0.126397 0.503276 -0.089863
H9    H     H_    0.813324 0.635226 0.623255 0.147682
C29   C     C_R   0.919358 0.335419 0.360613 -0.128933
H10   H     H_    0.812536 0.330157 0.354155 0.203619
C30   C     C_R   0.020780 0.251575 0.293888 -0.252446
H11   H     H_    0.985294 0.188402 0.242505 0.202769
C31   C     C_R   0.165206 0.248554 0.293325 0.294053
C32   C     C_R   0.206565 0.332674 0.360279 -0.228110
H12   H     H_    0.318503 0.325945 0.354549 0.231930
C33   C     C_R   0.106126 0.419023 0.430599 0.114758
C34   C     C_R   0.956827 0.419400 0.430867 0.259203
N1    N     N_R   0.852480 0.498790 0.499000 -0.204704
C35   C     C_R   0.894454 0.574480 0.567644 -0.073985
C36   C     C_R   0.041352 0.573369 0.569285 0.412822
N2    N     N_R   0.148360 0.498710 0.498970 -0.254157
N3    N     N_R   0.847785 0.637211 0.186119 0.135175
O9    O     O_R   0.883473 0.752798 0.186117 -0.343104
O10   O     O_R   0.931632 0.553780 0.208176 -0.355002
N4    N     N_3   0.281299 0.799569 0.358655 -0.523019
H13   H     H_    0.221431 0.722817 0.390059 0.247238
H14   H     H_    0.391415 0.772228 0.324640 0.226324
N5    N     N_R   0.961299 0.118391 0.595824 0.119803
O11   O     O_R   0.845687 0.052503 0.610158 -0.386066
O12   O     O_R   0.945551 0.232289 0.634519 -0.365882
N6    N     N_R   0.270170 0.160178 0.224842 0.129032
O13   O     O_R   0.232414 0.085803 0.159528 -0.321908
O14   O     O_R   0.403814 0.151835 0.228081 -0.379148
N7    N     N_R   0.073857 0.645358 0.650452 0.138335
O15   O     O_R   0.031390 0.607052 0.745839 -0.378214
O16   O     O_R   0.103207 0.761567 0.637005 -0.381609
N8    N     N_3   0.164207 0.365134 0.804122 -0.530324
H15   H     H_    0.054622 0.394416 0.837594 0.266940
H16   H     H_    0.171416 0.268665 0.806698 0.213192
N9    N     N_3   0.085903 0.330077 0.026772 -0.548296
H17   H     H_    0.993112 0.377690 0.021297 0.239073
H18   H     H_    0.093024 0.241974 0.989810 0.239638
N10   N     N_3   0.777464 0.866052 0.427132 -0.512270
H19   H     H_    0.853809 0.912025 0.368081 0.249104
H20   H     H_    0.810222 0.865990 0.494381 0.246198

loop_
_geom_bond_atom_site_label_1
_geom_bond_atom_site_label_2
_geom_bond_distance
_ccdc_geom_bond_type
C33   C34   1.435593 A    
C1    C25   1.477004 S    
N7    O15   1.300332 A    
C4    C6    1.472302 S    
C7    C8    1.407339 A    
Cu1   Cu2   2.707218 S    
C32   H12   1.056518 S    
C15   H5    1.080722 S    
Cu1   O7    1.923767 S    
C14   C15   1.386466 A    
C7    N8    1.435722 S    
C20   C21   1.398936 A    
N8    H16   1.045099 S    
C22   H7    1.080398 S    
O7    C4    1.306009 A    
C5    C13   1.400798 A    
C34   N1    1.379103 A    
C29   C34   1.411396 A    
C19   C20   1.398844 A    
C24   C25   1.415961 A    
N3    O10   1.300474 A    
O5    C3    1.298576 A    
C20   H6    1.072685 S    
C30   C31   1.387266 A    
N6    O13   1.301641 A    
C11   C15   1.411216 A    
C36   N7    1.426751 S    
C29   C30   1.386159 A    
C36   N2    1.375806 A    
C33   N2    1.387595 A    
N7    O16   1.298899 A    
C19   C24   1.421839 A    
O3    Cu1   1.940040 S    
C10   C11   1.417684 A    
C5    C17   1.398515 A    
C32   C33   1.418023 A    
H1    C14   1.084099 S    
C9    H4    1.077284 S    
C17   N3    1.433516 S    
N5    O11   1.300035 A    
C11   C18   1.419938 A    
C6    C16   1.398735 A    
C12   C13   1.416916 A    
O3    C2    1.305211 A    
N9    H18   1.044879 S    
C13   C14   1.393124 A    
C27   C28   1.398881 A    
O1    C1    1.304090 A    
N4    H14   1.044705 S    
C23   C28   1.416094 A    
C21   C22   1.395979 A    
Cu2   N1    2.034130 S    
Cu2   O8    1.940040 S    
C19   N4    1.438513 S    
C30   H11   1.083003 S    
C6    C17   1.413798 A    
N8    H15   1.044834 S    
C26   C27   1.391834 A    
C29   H10   1.060734 S    
C2    C18   1.482027 S    
O8    C4    1.304042 A    
N10   H20   1.042723 S    
C10   C12   1.425017 A    
C25   C26   1.407213 A    
Cu1   N2    2.035117 S    
C31   C32   1.399167 A    
C5    H2    1.084521 S    
C23   C24   1.404416 A    
C8    N9    1.433577 S    
O1    Cu1   1.962633 S    
C16   H3    1.076605 S    
O2    Cu2   1.954219 S    
H8    C27   1.083247 S    
C12   C16   1.403778 A    
O6    C3    1.308357 A    
O4    Cu2   1.923767 S    
N4    H13   1.044628 S    
O2    C1    1.309506 A    
C35   C36   1.420538 A    
H9    C35   1.081120 S    
C22   C23   1.410603 A    
N1    C35   1.363595 A    
O4    C2    1.307077 A    
C21   N5    1.437417 S    
N3    O9    1.300969 A    
C31   N6    1.442238 S    
N9    H17   1.045262 S    
Cu1   O5    1.954218 S    
C8    C9    1.390842 A    
Cu2   O6    1.962632 S    
N10   H19   1.045791 S    
C26   N10   1.429901 S    
C3    C28   1.464833 S    
N6    O14   1.301814 A    
N5    O12   1.301693 A    
C9    C10   1.412840 A    
C7    C18   1.416859 A    
