data_mof_unit_58333.cif
_audit_creation_date              2012-12-10T16:32:40-0500
_audit_creation_method            fapswitch 2.2
_symmetry_space_group_name_H-M    P1
_symmetry_Int_Tables_number       1
_space_group_crystal_system       triclinic
_cell_length_a                    16.890314
_cell_length_b                    16.890307
_cell_length_c                    16.890308
_cell_angle_alpha                 65.767357
_cell_angle_beta                  65.767438
_cell_angle_gamma                 65.767338
_cell_volume                      3833.36668389

loop_
_atom_site_label
_atom_site_type_symbol
_atom_type_description
_atom_site_fract_x
_atom_site_fract_y
_atom_site_fract_z
_atom_type_partial_charge
C1    C     C_R   0.585103 0.046776 0.585102 -0.059042
C2    C     C_R   0.821170 0.563551 0.034089 0.910498
C3    C     C_R   0.436449 0.965911 0.178830 0.910500
C4    C     C_R   0.563551 0.034089 0.821170 0.910499
C5    C     C_R   0.563551 0.821170 0.034089 0.910499
C6    C     C_R   0.436449 0.178830 0.965911 0.910499
C7    C     C_R   0.034089 0.563551 0.821170 0.910498
C8    C     C_R   0.965911 0.436449 0.178830 0.910498
C9    C     C_R   0.821170 0.034089 0.563551 0.910499
C10   C     C_R   0.178830 0.965911 0.436449 0.910498
C11   C     C_R   0.541091 0.023624 0.541092 0.149448
C12   C     C_R   0.414898 0.953224 0.414898 -0.059042
C13   C     C_R   0.458908 0.976376 0.458908 0.149448
C14   C     C_R   0.023624 0.541092 0.541091 0.149448
C15   C     C_R   0.976376 0.458909 0.458908 0.149448
C16   C     C_R   0.541091 0.541091 0.023624 0.149448
C17   C     C_R   0.458908 0.458908 0.976376 0.149448
C18   C     C_R   0.486771 0.091618 0.486771 -0.105611
C19   C     C_R   0.513229 0.908382 0.513229 -0.105611
C20   C     C_R   0.931961 0.554101 0.554102 -0.122133
C21   C     C_R   0.068039 0.445899 0.445898 -0.122134
C22   C     C_R   0.554101 0.554101 0.931961 -0.122133
C23   C     C_R   0.046776 0.585102 0.585102 -0.059043
C24   C     C_R   0.445898 0.445898 0.068039 -0.122134
C25   C     C_R   0.445899 0.068039 0.445898 -0.122133
C26   C     C_R   0.554101 0.931961 0.554102 -0.122133
C27   C     C_R   0.513229 0.513229 0.908382 -0.105612
C28   C     C_R   0.486771 0.486771 0.091618 -0.105611
C29   C     C_R   0.908382 0.513229 0.513229 -0.105612
C30   C     C_R   0.091618 0.486771 0.486770 -0.105612
C31   C     C_R   0.542486 0.051000 0.674734 0.132139
C32   C     C_R   0.457514 0.949000 0.325266 0.132139
C33   C     C_R   0.051000 0.674733 0.542486 0.132139
C34   C     C_R   0.953224 0.414898 0.414897 -0.059043
C35   C     C_R   0.949000 0.325266 0.457514 0.132139
C36   C     C_R   0.674734 0.542486 0.051000 0.132139
C37   C     C_R   0.325266 0.457514 0.949000 0.132139
C38   C     C_R   0.325266 0.949000 0.457514 0.132139
C39   C     C_R   0.674734 0.050999 0.542486 0.132139
C40   C     C_R   0.457514 0.325266 0.949000 0.132139
C41   C     C_R   0.542486 0.674733 0.051000 0.132139
C42   C     C_R   0.949000 0.457514 0.325266 0.132139
C43   C     C_R   0.051000 0.542486 0.674734 0.132139
C44   C     C_R   0.594238 0.050690 0.723810 -0.115882
C45   C     C_R   0.585102 0.585102 0.046776 -0.059042
C46   C     C_R   0.405762 0.949310 0.276190 -0.115882
C47   C     C_R   0.050690 0.723810 0.594238 -0.115882
C48   C     C_R   0.949310 0.276190 0.405762 -0.115882
C49   C     C_R   0.723810 0.594238 0.050690 -0.115882
C50   C     C_R   0.276190 0.405762 0.949310 -0.115882
C51   C     C_R   0.276190 0.949310 0.405762 -0.115882
C52   C     C_R   0.723810 0.050690 0.594238 -0.115882
C53   C     C_R   0.405762 0.276190 0.949310 -0.115882
C54   C     C_R   0.594238 0.723810 0.050690 -0.115882
C55   C     C_R   0.949309 0.405762 0.276190 -0.115882
C56   C     C_R   0.414897 0.414898 0.953224 -0.059042
C57   C     C_R   0.050690 0.594238 0.723810 -0.115882
C58   C     C_R   0.681804 0.054748 0.681804 -0.312447
C59   C     C_R   0.318196 0.945252 0.318196 -0.312447
C60   C     C_R   0.054748 0.681803 0.681803 -0.312447
C61   C     C_R   0.945252 0.318197 0.318197 -0.312447
C62   C     C_R   0.681803 0.681803 0.054748 -0.312447
C63   C     C_R   0.318197 0.318197 0.945252 -0.312447
C64   C     C_R   0.965911 0.178830 0.436449 0.910498
C65   C     C_R   0.034089 0.821170 0.563551 0.910499
C66   C     C_R   0.178830 0.436449 0.965911 0.910499
H1    H     H_    0.595959 0.878861 0.595960 0.142370
H2    H     H_    0.595960 0.595960 0.878861 0.142370
H3    H     H_    0.121138 0.404041 0.404039 0.142370
H4    H     H_    0.878862 0.595959 0.595960 0.142370
H5    H     H_    0.720095 0.054592 0.720095 0.210603
H6    H     H_    0.279905 0.945407 0.279905 0.210603
H7    H     H_    0.054593 0.720095 0.720095 0.210603
H8    H     H_    0.945407 0.279905 0.279905 0.210603
H9    H     H_    0.720095 0.720095 0.054593 0.210603
H10   H     H_    0.279905 0.279905 0.945407 0.210603
H11   H     H_    0.404040 0.121139 0.404040 0.142370
H12   H     H_    0.162505 0.476219 0.476218 0.151364
H13   H     H_    0.837495 0.523781 0.523781 0.151364
H14   H     H_    0.476219 0.476219 0.162505 0.151364
H15   H     H_    0.523781 0.523781 0.837495 0.151364
H16   H     H_    0.523781 0.837495 0.523782 0.151364
H17   H     H_    0.476219 0.162505 0.476218 0.151364
H18   H     H_    0.404040 0.404040 0.121138 0.142370
I1    I     I_    0.399554 0.061579 0.727932 -0.261167
I2    I     I_    0.399553 0.727932 0.061579 -0.261167
I3    I     I_    0.938420 0.600447 0.272068 -0.261167
I4    I     I_    0.061579 0.399553 0.727932 -0.261166
I5    I     I_    0.600446 0.938421 0.272068 -0.261167
I6    I     I_    0.061580 0.727932 0.399553 -0.261167
I7    I     I_    0.938422 0.272067 0.600446 -0.261166
I8    I     I_    0.727933 0.399553 0.061578 -0.261167
I9    I     I_    0.272067 0.600446 0.938422 -0.261167
I10   I     I_    0.272068 0.938421 0.600446 -0.261166
I11   I     I_    0.727932 0.061578 0.399554 -0.261167
I12   I     I_    0.600446 0.272067 0.938421 -0.261167
O1    O     O_R   0.982940 0.138950 0.510160 -0.594808
O2    O     O_R   0.982940 0.510160 0.138950 -0.594809
O3    O     O_R   0.861050 0.017060 0.489840 -0.594808
O4    O     O_R   0.138950 0.982940 0.510160 -0.594808
O5    O     O_R   0.867700 0.025880 0.612340 -0.628163
O6    O     O_R   0.132300 0.974120 0.387660 -0.628163
O7    O     O_R   0.025880 0.612340 0.867700 -0.628163
O8    O     O_R   0.974120 0.387660 0.132300 -0.628163
O9    O     O_R   0.612340 0.867700 0.025880 -0.628162
O10   O     O_R   0.387660 0.132300 0.974120 -0.628162
O11   O     O_R   0.387660 0.974120 0.132300 -0.628163
O12   O     O_R   0.017060 0.861050 0.489840 -0.594808
O13   O     O_R   0.612340 0.025880 0.867700 -0.628162
O14   O     O_R   0.132300 0.387660 0.974120 -0.628163
O15   O     O_R   0.867700 0.612340 0.025880 -0.628162
O16   O     O_R   0.974120 0.132300 0.387660 -0.628162
O17   O     O_R   0.025880 0.867700 0.612340 -0.628162
O18   O     O_R   0.138950 0.510160 0.982940 -0.594809
O19   O     O_R   0.861050 0.489840 0.017060 -0.594809
O20   O     O_R   0.510160 0.982940 0.138950 -0.594809
O21   O     O_R   0.489840 0.017060 0.861050 -0.594809
O22   O     O_R   0.489840 0.861050 0.017060 -0.594809
O23   O     O_R   0.510160 0.138950 0.982940 -0.594809
O24   O     O_R   0.017060 0.489840 0.861050 -0.594809
Zn1   Zn    Zn3+2 0.004880 0.004880 0.583590 1.060213
Zn2   Zn    Zn3+2 0.995120 0.995120 0.416410 1.060213
Zn3   Zn    Zn3+2 0.004880 0.583590 0.004880 1.060213
Zn4   Zn    Zn3+2 0.995120 0.416410 0.995120 1.060213
Zn5   Zn    Zn3+2 0.583590 0.004880 0.004880 1.060213
Zn6   Zn    Zn3+2 0.416410 0.995120 0.995120 1.060213

loop_
_geom_bond_atom_site_label_1
_geom_bond_atom_site_label_2
_ccdc_geom_bond_type
C16   C28   A    
C4    O13   A    
C11   C18   A    
C31   I1    S    
C46   C59   A    
C40   C56   A    
C34   C42   A    
O7    Zn3   S    
C5    O9    A    
C41   I2    S    
C18   C25   A    
C25   H11   S    
C43   I4    S    
C40   I12   S    
C34   C35   A    
C3    O20   A    
C58   H5    S    
C48   C64   S    
C63   H10   S    
C10   C51   S    
C60   H7    S    
C1    C31   A    
C23   C43   A    
O4    Zn1   S    
C19   C26   A    
C8    O2    A    
O1    Zn1   S    
O14   Zn4   S    
C47   C60   A    
C37   C56   A    
C44   C58   A    
C23   C33   A    
C1    C11   S    
C4    O21   A    
C49   C62   A    
C19   H16   S    
O21   Zn6   S    
C15   C34   S    
C59   H6    S    
C36   I8    S    
C39   C52   A    
C9    O3    A    
C7    O7    A    
C12   C32   A    
C50   C63   A    
C20   H4    S    
C9    C52   S    
C32   C46   A    
C14   C30   A    
C35   C48   A    
C8    C55   S    
C15   C29   A    
C20   C29   A    
O2    Zn3   S    
C2    O15   A    
C17   C24   A    
C31   C44   A    
C13   C19   A    
O15   Zn3   S    
C17   C27   A    
C14   C20   A    
C5    C54   S    
C27   H15   S    
C1    C39   A    
C57   C60   A    
C38   C51   A    
C4    C44   S    
C11   C26   A    
C3    O11   A    
O5    Zn1   S    
C21   H3    S    
C14   C23   S    
O16   Zn2   S    
C2    C49   S    
C42   C55   A    
C8    O8    A    
C2    O19   A    
C32   I5    S    
C29   H13   S    
C10   O6    A    
C39   I11   S    
C38   I10   S    
C18   H17   S    
C6    O10   A    
C37   I9    S    
C36   C45   A    
C65   O12   A    
C66   O14   A    
C10   O4    A    
C50   C66   S    
C17   C56   S    
C22   H2    S    
C52   C58   A    
O3    Zn2   S    
O18   Zn3   S    
O23   Zn5   S    
O13   Zn5   S    
C64   O1    A    
O20   Zn5   S    
C33   C47   A    
C62   H9    S    
C51   C59   A    
C26   H1    S    
C6    C53   S    
C6    O23   A    
C16   C22   A    
O19   Zn4   S    
C66   O18   A    
C65   O17   A    
C7    O24   A    
C24   C28   A    
O11   Zn6   S    
O12   Zn2   S    
C13   C25   A    
C16   C45   S    
O8    Zn4   S    
C61   H8    S    
C54   C62   A    
C21   C30   A    
O10   Zn6   S    
C3    C46   S    
O9    Zn5   S    
C5    O22   A    
C22   C27   A    
C24   H18   S    
C33   I6    S    
C37   C50   A    
C53   C63   A    
C48   C61   A    
C55   C61   A    
C7    C57   S    
C12   C38   A    
C28   H14   S    
C41   C54   A    
C64   O16   A    
C43   C57   A    
C30   H12   S    
C15   C21   A    
O17   Zn1   S    
C12   C13   S    
C9    O5    A    
C40   C53   A    
C41   C45   A    
C42   I3    S    
O22   Zn6   S    
O6    Zn2   S    
C47   C65   S    
C36   C49   A    
O24   Zn4   S    
C35   I7    S    
