data_mof_unit_38227.cif
_audit_creation_date              2013-03-05T16:19:20-0500
_audit_creation_method            fapswitch 2.2
_symmetry_space_group_name_H-M    P1
_symmetry_Int_Tables_number       1
_space_group_crystal_system       triclinic
_cell_length_a                    11.062191
_cell_length_b                    10.0
_cell_length_c                    23.417642
_cell_angle_alpha                 88.923094
_cell_angle_beta                  91.317265
_cell_angle_gamma                 92.767261
_cell_volume                      2586.39397007

loop_
_atom_site_label
_atom_site_type_symbol
_atom_site_description
_atom_site_fract_x
_atom_site_fract_y
_atom_site_fract_z
_atom_type_partial_charge
O1    O     O_R   0.314910 0.616040 0.499990 -0.602024
O2    O     O_R   0.314910 0.383960 0.499990 -0.568405
C1    C     C_R   0.258290 0.496412 0.500011 0.934774
O3    O     O_R   0.500080 0.616070 0.416130 -0.560880
O4    O     O_R   0.500080 0.383930 0.416130 -0.622791
C2    C     C_R   0.500388 0.501132 0.390151 0.932512
Zn1   Zn    Zn3+2 0.500150 0.654960 0.499970 1.077576
Zn2   Zn    Zn3+2 0.500150 0.345040 0.499970 1.062458
O5    O     O_R   0.685320 0.616040 0.499970 -0.571298
O6    O     O_R   0.685320 0.383960 0.499970 -0.617744
O7    O     O_R   0.500150 0.616010 0.583820 -0.555474
O8    O     O_R   0.500150 0.383990 0.583820 -0.573650
C3    C     C_R   0.742523 0.501352 0.500851 0.898400
C4    C     C_R   0.497216 0.499328 0.610147 1.017429
C5    C     C_R   0.534147 0.386996 0.883480 0.610322
N1    N     N_R   0.507615 0.499673 0.853061 -0.332409
C6    C     C_R   0.479919 0.615040 0.879120 0.636206
C7    C     C_R   0.466524 0.616780 0.938731 -0.194051
C8    C     C_R   0.499977 0.503150 0.971027 -0.039493
C9    C     C_R   0.536233 0.388415 0.943031 -0.032607
C10   C     C_R   0.421653 0.727680 0.966697 0.342060
C11   C     C_R   0.414671 0.727122 0.026377 0.014792
C12   C     C_R   0.454244 0.615699 0.059332 -0.101114
C13   C     C_R   0.497481 0.503621 0.031183 -0.057497
C14   C     C_R   0.538149 0.391333 0.062997 -0.009451
C15   C     C_R   0.576082 0.277957 0.034094 0.109207
C16   C     C_R   0.572952 0.277159 0.974655 -0.129639
C17   C     C_R   0.451886 0.610828 0.119483 0.618583
N2    N     N_R   0.497480 0.505178 0.148988 -0.338317
C18   C     C_R   0.539672 0.396969 0.122789 0.580661
O9    O     O_2   0.558241 0.274141 0.855989 -0.452560
O10   O     O_2   0.466826 0.727091 0.847030 -0.429029
O11   O     O_2   0.405904 0.710173 0.149105 -0.534587
O12   O     O_2   0.582647 0.295844 0.155091 -0.496736
H1    H     H_    0.601428 0.188975 0.953397 0.220421
C19   C     C_R   0.596374 0.571896 0.239614 0.296641
C20   C     C_R   0.596575 0.571716 0.299587 -0.068442
C21   C     C_R   0.501515 0.503869 0.328476 -0.064937
C22   C     C_R   0.406902 0.437223 0.298584 -0.225636
H2    H     H_    0.333755 0.385550 0.321327 0.202924
C23   C     C_R   0.404619 0.439360 0.239207 0.112467
C24   C     C_R   0.498985 0.506803 0.209847 0.195708
C25   C     C_R   0.393123 0.505253 0.762986 0.031983
C26   C     C_R   0.388884 0.513617 0.702749 0.281205
C27   C     C_R   0.497814 0.500407 0.672729 -0.264521
C28   C     C_R   0.609776 0.493847 0.702661 0.203596
C29   C     C_R   0.612526 0.491994 0.762503 0.269417
C30   C     C_R   0.504434 0.496188 0.792047 0.097022
C31   C     C_3   0.079119 0.636579 0.496981 0.055885
C32   C     C_3   0.071393 0.426385 0.558287 0.003299
H3    H     H_    0.125727 0.695234 0.531848 0.153587
H4    H     H_    0.093880 0.501312 0.591655 0.173861
C33   C     C_3   0.943448 0.640025 0.509276 0.060932
C34   C     C_3   0.928774 0.413477 0.554683 0.057389
H5    H     H_    0.933962 0.667854 0.554853 0.135371
H6    H     H_    0.897609 0.461916 0.593375 0.173859
H7    H     H_    0.108438 0.422847 0.410135 0.215949
H8    H     H_    0.069588 0.299122 0.459724 0.283080
H9    H     H_    0.909414 0.501511 0.408236 0.240659
H10   H     H_    0.872803 0.341627 0.434824 0.214711
C35   C     C_3   0.061766 0.406861 0.451218 -0.264241
C36   C     C_3   0.121774 0.489464 0.500997 -0.227700
C37   C     C_3   0.880048 0.498123 0.501720 -0.176782
C38   C     C_3   0.925095 0.435115 0.445654 -0.357132
C39   C     C_3   0.373948 0.070589 0.493745 0.109488
C40   C     C_3   0.378258 0.913385 0.481197 0.095646
H11   H     H_    0.329199 0.077658 0.534957 0.196095
H12   H     H_    0.307103 0.861404 0.506750 0.187094
H13   H     H_    0.512931 0.104128 0.408961 0.228095
H14   H     H_    0.557626 0.882546 0.411843 0.215539
C41   C     C_3   0.566094 0.086436 0.448711 -0.101396
C42   C     C_3   0.580313 0.926980 0.454237 -0.140711
C43   C     C_3   0.558347 0.078750 0.551805 0.056517
C44   C     C_3   0.540808 0.919826 0.555159 0.045096
N3    N     N_3   0.499750 0.138610 0.498760 -0.164871
N4    N     N_3   0.499750 0.861390 0.498760 -0.179476
H15   H     H_    0.657151 0.102520 0.549050 0.184480
H16   H     H_    0.631474 0.881224 0.565726 0.168933
N5    N     N_R   0.374037 0.838274 0.934909 0.267169
O13   O     O_R   0.275185 0.820324 0.904235 -0.284260
O14   O     O_R   0.418745 0.959331 0.943008 -0.338991
N6    N     N_R   0.277841 0.545737 0.672986 0.220023
O15   O     O_R   0.280485 0.627330 0.629193 -0.367866
O16   O     O_R   0.172810 0.509369 0.693563 -0.338874
N7    N     N_R   0.721364 0.503106 0.672501 0.212280
O17   O     O_R   0.742188 0.602136 0.636682 -0.409043
O18   O     O_R   0.809495 0.427774 0.687791 -0.257080
N8    N     N_R   0.725576 0.496953 0.793713 0.246428
O19   O     O_R   0.759742 0.604355 0.821379 -0.307147
O20   O     O_R   0.783409 0.387963 0.802493 -0.239517
N9    N     N_R   0.109336 0.706366 0.442433 0.297827
O21   O     O_R   0.118993 0.836156 0.441755 -0.227365
O22   O     O_R   0.096945 0.648307 0.393305 -0.332642
N10   N     N_R   0.128140 0.302019 0.577239 0.274296
O23   O     O_R   0.191503 0.299570 0.624588 -0.268504
O24   O     O_R   0.113875 0.191877 0.548975 -0.261539
N11   N     N_R   0.893564 0.747557 0.475890 0.250874
O25   O     O_R   0.865098 0.728747 0.422273 -0.383873
O26   O     O_R   0.926478 0.867876 0.492517 -0.307774
N12   N     N_R   0.880443 0.273776 0.557664 0.274357
O27   O     O_R   0.886402 0.193537 0.514909 -0.340749
O28   O     O_R   0.845817 0.223743 0.606589 -0.248918
N13   N     N_R   0.290516 0.136618 0.453589 0.260079
O29   O     O_R   0.177784 0.093773 0.451470 -0.271307
O30   O     O_R   0.327962 0.217789 0.413258 -0.370754
N14   N     N_R   0.347336 0.880398 0.420239 0.245897
O31   O     O_R   0.329181 0.757040 0.405441 -0.298803
O32   O     O_R   0.346004 0.969286 0.379024 -0.326430
N15   N     N_3   0.364125 0.840986 0.051644 -0.374565
H17   H     H_    0.285904 0.810268 0.073448 0.256764
H18   H     H_    0.428355 0.887508 0.079066 0.250238
N16   N     N_R   0.523969 0.138682 0.605704 0.257122
O33   O     O_R   0.608108 0.169909 0.643550 -0.268562
O34   O     O_R   0.411727 0.146348 0.620165 -0.275191
N17   N     N_R   0.464802 0.873225 0.603265 0.271355
O35   O     O_R   0.517696 0.837412 0.651012 -0.265315
O36   O     O_R   0.348802 0.888607 0.603342 -0.309182
N18   N     N_3   0.682046 0.160403 0.439341 -0.377852
H19   H     H_    0.664835 0.251905 0.419954 0.232249
H20   H     H_    0.726525 0.116393 0.406237 0.181336
N19   N     N_3   0.703848 0.895480 0.465068 -0.334433
H21   H     H_    0.749337 0.913806 0.426942 0.258488
H22   H     H_    0.742574 0.961726 0.494799 0.259543
N20   N     N_3   0.617051 0.162188 0.064445 -0.346801
H23   H     H_    0.562467 0.079271 0.051793 0.212561
H24   H     H_    0.705518 0.146676 0.052179 0.220751
N21   N     N_R   0.695002 0.635830 0.209092 0.204800
O37   O     O_R   0.804920 0.598528 0.218151 -0.351637
O38   O     O_R   0.675550 0.731556 0.172145 -0.343044
N22   N     N_3   0.691988 0.640024 0.331605 -0.400133
H25   H     H_    0.699483 0.739671 0.317262 0.248800
H26   H     H_    0.773138 0.594749 0.324132 0.251444
N23   N     N_3   0.306967 0.372671 0.208231 -0.415221
H27   H     H_    0.226185 0.413011 0.220413 0.227480
H28   H     H_    0.303856 0.271570 0.220611 0.232697
N24   N     N_3   0.286602 0.511837 0.796482 -0.378758
H29   H     H_    0.228554 0.428674 0.788048 0.273766
H30   H     H_    0.243979 0.600698 0.786641 0.287178

loop_
_geom_bond_atom_site_label_1
_geom_bond_atom_site_label_2
_geom_bond_distance
_ccdc_geom_bond_type
C40   H12   1.103768 S    
N2    C24   1.425275 S    
C7    C10   1.414413 A    
C23   C24   1.401750 A    
C19   C24   1.408922 A    
C8    C9    1.411348 A    
C42   N4    1.507338 S    
N1    C30   1.429462 S    
C31   H3    1.116254 S    
C23   N23   1.431937 S    
N11   O25   1.302313 A    
C22   C23   1.389909 A    
N7    O17   1.301148 A    
Zn1   O7    1.994632 S    
H9    C38   1.104980 S    
N2    C18   1.360906 A    
C44   N4    1.505951 S    
C19   C20   1.404361 A    
C31   N9    1.481226 S    
C26   N6    1.445061 S    
N15   H18   1.044978 S    
C21   C22   1.395023 A    
C42   N19   1.433075 S    
O7    C4    1.308754 A    
C39   H11   1.099714 S    
N14   O31   1.292700 A    
N17   O35   1.302294 A    
C20   N22   1.433893 S    
C7    C8    1.412639 A    
C43   C44   1.592395 S    
H13   C41   1.105588 S    
O5    C3    1.335950 A    
N18   H19   1.037715 S    
N1    C6    1.366163 A    
N17   O36   1.299801 A    
C32   H4    1.108583 S    
C12   C13   1.418969 A    
C2    C21   1.444357 S    
C25   C30   1.399100 A    
C35   C36   1.558692 S    
C28   N7    1.434489 S    
H8    C35   1.099128 S    
N7    O18   1.300346 A    
C10   C11   1.401354 A    
C43   N3    1.514604 S    
C34   N12   1.472515 S    
C25   N24   1.435284 S    
C15   N20   1.433775 S    
C40   N14   1.499299 S    
O3    Zn1   2.008614 S    
N16   O34   1.300659 A    
N16   O33   1.301417 A    
N11   O26   1.304085 A    
C4    C27   1.465614 S    
C33   H5    1.116577 S    
C5    C9    1.394523 A    
C34   H6    1.105183 S    
C18   O12   1.349804 S    
C13   C14   1.421341 A    
N24   H30   1.045377 S    
C22   H2    1.083743 S    
N5    O14   1.300983 A    
C32   N10   1.476323 S    
C33   N11   1.441497 S    
C14   C15   1.416845 A    
C27   C28   1.412744 A    
C5    O9    1.350319 S    
Zn2   N3    2.064818 S    
N5    O13   1.301431 A    
O1    C1    1.323267 A    
C35   C38   1.553508 S    
N22   H26   1.044473 S    
C25   C26   1.411356 A    
N21   O38   1.300539 A    
C20   C21   1.403696 A    
N9    O22   1.299841 A    
C34   C37   1.587197 S    
C29   C30   1.397921 A    
C3    C37   1.522887 S    
Zn2   O8    2.008993 S    
C11   N15   1.435705 S    
C40   N4    1.509897 S    
C10   N5    1.435969 S    
N12   O28   1.299933 A    
C6    C7    1.407690 A    
C15   C16   1.391743 A    
N13   O30   1.295837 A    
C32   C34   1.577177 S    
C12   C17   1.409323 A    
N10   O24   1.296895 A    
N19   H21   1.043814 S    
O3    C2    1.310703 A    
N8    O20   1.300889 A    
C17   O11   1.348244 S    
N6    O15   1.298435 A    
N6    O16   1.301058 A    
N23   H27   1.045728 S    
C32   C36   1.573854 S    
C19   N21   1.435729 S    
C39   N13   1.472294 S    
N21   O37   1.300619 A    
N9    O21   1.296969 A    
C26   C27   1.421796 A    
C43   N16   1.472913 S    
N20   H24   1.045733 S    
C1    C36   1.509099 S    
C14   C18   1.402042 A    
Zn1   O5    2.103413 S    
C28   C29   1.400778 A    
C17   N2    1.362338 A    
C31   C36   1.567028 S    
C41   N18   1.468250 S    
O1    Zn1   2.067259 S    
C8    C13   1.409711 A    
O2    Zn2   2.104184 S    
O8    C4    1.320117 A    
N24   H29   1.044863 S    
O6    C3    1.306728 A    
O4    Zn2   1.994289 S    
H7    C35   1.107608 S    
Zn1   N4    2.064180 S    
C9    C16   1.396437 A    
C39   N3    1.522250 S    
H10   C38   1.105840 S    
C16   H1    1.084072 S    
C29   N8    1.433142 S    
N22   H25   1.045648 S    
C41   C42   1.612346 S    
N15   H17   1.045259 S    
C41   N3    1.511284 S    
C33   C37   1.563472 S    
O4    C2    1.310213 A    
N14   O32   1.300073 A    
C31   C33   1.536805 S    
C44   N17   1.476193 S    
N12   O27   1.299594 A    
O2    C1    1.313354 A    
N10   O23   1.298550 A    
N18   H20   1.043079 S    
N19   H22   1.040834 S    
C37   C38   1.568630 S    
N8    O19   1.300698 A    
Zn2   O6    2.066491 S    
C39   C40   1.607852 S    
C44   H16   1.112914 S    
N13   O29   1.299056 A    
N23   H28   1.045689 S    
C6    O10   1.349160 S    
C43   H15   1.110346 S    
C11   C12   1.424059 A    
H14   C42   1.113732 S    
C5    N1    1.362110 A    
N20   H23   1.045261 S    
