data_mof_unit_64616.cif
_audit_creation_date              2013-03-05T15:52:35-0500
_audit_creation_method            fapswitch 2.2
_symmetry_space_group_name_H-M    P1
_symmetry_Int_Tables_number       1
_space_group_crystal_system       triclinic
_cell_length_a                    43.786643
_cell_length_b                    30.102735
_cell_length_c                    31.853476
_cell_angle_alpha                 90.0006
_cell_angle_beta                  136.559716
_cell_angle_gamma                 90.037699
_cell_volume                      28869.4796946

loop_
_atom_site_label
_atom_site_type_symbol
_atom_site_description
_atom_site_fract_x
_atom_site_fract_y
_atom_site_fract_z
_atom_type_partial_charge
O1    O     O_R   0.566070 0.962660 0.066090 -0.608526
O2    O     O_R   0.433930 0.962660 0.933910 -0.600862
O3    O     O_R   0.066070 0.462660 0.066090 -0.608772
O4    O     O_R   0.933930 0.462660 0.933910 -0.608678
O5    O     O_R   0.566010 0.037250 0.066030 -0.617802
O6    O     O_R   0.433990 0.037250 0.933970 -0.620207
O7    O     O_R   0.066010 0.537250 0.066030 -0.617992
O8    O     O_R   0.933990 0.537250 0.933970 -0.617727
C1    C     C_R   0.586694 0.000012 0.086667 0.878210
C2    C     C_R   0.413311 0.999941 0.913316 0.873449
C3    C     C_R   0.086694 0.500012 0.086667 0.878470
C4    C     C_R   0.913307 0.499974 0.913343 0.878636
O9    O     O_R   0.499990 0.962670 0.061610 -0.587972
O10   O     O_R   0.500010 0.962670 0.938390 -0.588818
O11   O     O_R   0.999990 0.462670 0.061610 -0.589098
O12   O     O_R   0.000010 0.462670 0.938390 -0.588869
O13   O     O_R   0.499940 0.037260 0.061550 -0.614894
O14   O     O_R   0.500060 0.037260 0.938450 -0.615537
O15   O     O_R   0.999940 0.537260 0.061550 -0.614860
O16   O     O_R   0.000060 0.537260 0.938450 -0.615615
C5    C     C_R   0.499976 0.999967 0.081176 0.887431
C6    C     C_R   0.500032 0.999967 0.918831 0.882702
C7    C     C_R   0.999977 0.499967 0.081178 0.887332
C8    C     C_R   0.000023 0.499966 0.918822 0.887734
Zn1   Zn    Zn3+2 0.500000 0.950160 0.000000 1.089027
Zn2   Zn    Zn3+2 0.000000 0.450160 0.000000 1.081067
Zn3   Zn    Zn3+2 0.500000 0.049770 0.000000 1.022326
Zn4   Zn    Zn3+2 0.000000 0.549770 0.000000 1.023729
C9    C     C_3   0.538866 0.983755 0.303024 -0.179106
C10   C     C_3   0.460835 0.984504 0.696683 -0.183084
C11   C     C_3   0.038911 0.483849 0.303069 -0.179008
C12   C     C_3   0.960278 0.485845 0.696120 -0.178945
C13   C     C_3   0.532848 0.025567 0.268813 -0.250472
C14   C     C_3   0.467738 0.026192 0.731776 -0.255559
C15   C     C_3   0.032792 0.525646 0.268758 -0.250418
C16   C     C_3   0.968595 0.527277 0.732621 -0.250751
H1    H     H_    0.560161 0.046819 0.284003 0.190681
H2    H     H_    0.440881 0.047964 0.717046 0.188145
H3    H     H_    0.060054 0.546964 0.283899 0.190674
H4    H     H_    0.942496 0.549957 0.718637 0.190516
H5    H     H_    0.570784 0.970208 0.346705 0.180735
H6    H     H_    0.428636 0.971571 0.652726 0.179118
H7    H     H_    0.070861 0.470378 0.346783 0.180714
H8    H     H_    0.927660 0.474018 0.651738 0.180815
H9    H     H_    0.488601 0.075941 0.264773 0.189858
H10   H     H_    0.513028 0.075711 0.736851 0.189458
H11   H     H_    0.988423 0.575913 0.264596 0.189851
H12   H     H_    0.015564 0.575211 0.739377 0.190320
C17   C     C_1   0.499877 0.999950 0.125521 -0.086501
C18   C     C_1   0.500149 0.999950 0.874504 -0.092277
C19   C     C_1   0.999881 0.499950 0.125526 -0.087172
C20   C     C_1   0.000109 0.499948 0.874464 -0.087313
C21   C     C_1   0.500064 0.999953 0.374408 -0.144369
C22   C     C_1   0.499940 0.999954 0.625596 -0.144611
C23   C     C_1   0.000065 0.499952 0.374408 -0.144326
C24   C     C_1   0.999933 0.499945 0.625590 -0.144264
C25   C     C_3   0.505054 0.958825 0.241774 0.309165
C26   C     C_3   0.494122 0.958933 0.757401 0.308975
C27   C     C_3   0.005158 0.458838 0.241878 0.309360
C28   C     C_3   0.992660 0.459152 0.755948 0.309300
C29   C     C_3   0.499427 0.999592 0.208023 -0.028856
C30   C     C_3   0.500611 0.999583 0.792013 -0.027335
C31   C     C_3   0.999434 0.499591 0.208031 -0.028776
C32   C     C_3   0.000529 0.499563 0.791932 -0.028755
C33   C     C_3   0.465949 0.973500 0.230678 -0.269760
C34   C     C_3   0.533521 0.972857 0.768785 -0.269172
C35   C     C_3   0.966018 0.473418 0.230746 -0.270242
C36   C     C_3   0.032521 0.471714 0.767802 -0.270655
C37   C     C_3   0.499666 0.999703 0.291117 0.077195
C38   C     C_3   0.500356 0.999699 0.708904 0.079333
C39   C     C_3   0.999672 0.499701 0.291123 0.077315
C40   C     C_3   0.000305 0.499673 0.708854 0.077269
C41   C     C_3   0.461341 0.015059 0.198188 0.307726
C42   C     C_3   0.539008 0.014320 0.802154 0.308853
C43   C     C_3   0.961311 0.514967 0.198157 0.307680
C44   C     C_3   0.039416 0.512971 0.802570 0.307796
C45   C     C_3   0.493848 0.041672 0.258138 -0.171981
C46   C     C_3   0.507063 0.041549 0.742769 -0.169911
C47   C     C_3   0.993753 0.541657 0.258044 -0.171847
C48   C     C_3   0.008430 0.541274 0.744132 -0.171413
C49   C     C_1   0.499710 0.999833 0.162846 0.116088
C50   C     C_1   0.500328 0.999830 0.837190 0.111299
C51   C     C_1   0.999716 0.499833 0.162852 0.115898
C52   C     C_1   0.000262 0.499822 0.837126 0.115690
C53   C     C_1   0.499956 0.999879 0.336806 0.036621
C54   C     C_1   0.500056 0.999879 0.663206 0.035722
C55   C     C_1   0.999959 0.499878 0.336809 0.036594
C56   C     C_1   0.000032 0.499861 0.663182 0.036631
H13   H     H_    0.438544 0.952171 0.215090 0.196157
H14   H     H_    0.560469 0.951008 0.783911 0.195736
H15   H     H_    0.938664 0.452023 0.215208 0.195984
H16   H     H_    0.058708 0.448953 0.782180 0.195835
C57   C     C_R   0.842666 0.028307 0.315374 -0.176129
C58   C     C_R   0.157323 0.028360 0.684740 -0.175692
C59   C     C_R   0.342666 0.528308 0.315375 -0.176050
C60   C     C_R   0.657392 0.528250 0.684715 -0.176151
C61   C     C_R   0.865252 0.000577 0.365719 -0.085135
C62   C     C_R   0.134719 0.000574 0.634397 -0.084385
C63   C     C_R   0.365252 0.500577 0.365719 -0.085125
C64   C     C_R   0.634749 0.500550 0.634290 -0.085136
C65   C     C_R   0.842459 0.974084 0.371625 -0.199663
C66   C     C_R   0.157491 0.973355 0.629124 -0.200209
C67   C     C_R   0.342459 0.474083 0.371625 -0.199670
C68   C     C_R   0.657487 0.474043 0.628337 -0.199652
C69   C     C_R   0.796367 0.974118 0.325950 0.081183
C70   C     C_R   0.203573 0.972505 0.675645 0.080681
C71   C     C_R   0.296367 0.474117 0.325950 0.081181
C72   C     C_R   0.703580 0.474039 0.674041 0.081157
C73   C     C_R   0.773101 0.002607 0.275272 0.029530
C74   C     C_R   0.226885 0.000937 0.726441 0.029474
C75   C     C_R   0.273101 0.502607 0.275272 0.029518
C76   C     C_R   0.726905 0.502503 0.724798 0.029528
C77   C     C_R   0.796368 0.030991 0.270502 -0.000928
C78   C     C_R   0.203672 0.030270 0.730366 -0.000935
C79   C     C_R   0.296368 0.530991 0.270502 -0.000931
C80   C     C_R   0.703696 0.530896 0.729623 -0.000955
C81   C     C_R   0.773443 0.946082 0.330539 -0.259160
C82   C     C_R   0.226414 0.943030 0.672344 -0.257476
C83   C     C_R   0.273444 0.446081 0.330538 -0.259201
C84   C     C_R   0.726447 0.445992 0.669404 -0.258977
C85   C     C_R   0.727075 0.945440 0.284896 0.301666
C86   C     C_R   0.272687 0.940438 0.719791 0.299667
C87   C     C_R   0.227075 0.445439 0.284895 0.301698
C88   C     C_R   0.772815 0.445326 0.715063 0.301285
C89   C     C_R   0.703377 0.972974 0.233081 -0.000867
C90   C     C_R   0.296492 0.969526 0.770246 -0.000829
C91   C     C_R   0.203377 0.472973 0.233080 -0.000918
C92   C     C_R   0.796570 0.472847 0.766945 -0.000975
C93   C     C_R   0.726643 0.002236 0.229127 0.026938
C94   C     C_R   0.273326 0.999866 0.773253 0.027204
C95   C     C_R   0.226643 0.502236 0.229126 0.026904
C96   C     C_R   0.773362 0.502107 0.770962 0.027019
C97   C     C_R   0.703379 0.030792 0.178511 0.074031
C98   C     C_R   0.296669 0.029267 0.823136 0.074194
C99   C     C_R   0.203379 0.530792 0.178511 0.074202
C100  C     C_R   0.796682 0.530648 0.821647 0.074036
C101  C     C_R   0.726300 0.059507 0.174553 -0.242580
C102  C     C_R   0.273806 0.058602 0.826550 -0.241950
C103  C     C_R   0.226300 0.559508 0.174554 -0.242496
C104  C     C_R   0.773821 0.559360 0.825670 -0.242673
C105  C     C_R   0.772668 0.060314 0.220350 0.298629
C106  C     C_R   0.227445 0.059751 0.780424 0.298572
C107  C     C_R   0.272668 0.560315 0.220351 0.298653
C108  C     C_R   0.727457 0.560192 0.779859 0.298555
C109  C     C_R   0.657084 0.971406 0.184254 -0.171712
C110  C     C_R   0.342868 0.970131 0.817067 -0.171014
C111  C     C_R   0.157084 0.471406 0.184253 -0.171836
C112  C     C_R   0.842863 0.471284 0.815763 -0.171608
C113  C     C_R   0.634498 0.000359 0.135048 -0.080803
C114  C     C_R   0.365508 0.999818 0.865599 -0.081258
C115  C     C_R   0.134498 0.500359 0.135048 -0.080710
C116  C     C_R   0.865503 0.500244 0.865018 -0.080880
C117  C     C_R   0.657288 0.030321 0.132366 -0.179270
C118  C     C_R   0.342771 0.029290 0.868819 -0.179365
C119  C     C_R   0.157288 0.530321 0.132366 -0.179321
C120  C     C_R   0.842769 0.530180 0.867782 -0.179648
H17   H     H_    0.860721 0.952636 0.411098 0.155711
H18   H     H_    0.139196 0.951777 0.589729 0.155409
H19   H     H_    0.360721 0.452635 0.411098 0.155693
H20   H     H_    0.639180 0.452613 0.588805 0.155776
H21   H     H_    0.791698 0.924929 0.370227 0.192026
H22   H     H_    0.208104 0.920870 0.633536 0.192311
H23   H     H_    0.291699 0.424927 0.370226 0.192001
H24   H     H_    0.708150 0.424854 0.629661 0.192077
H25   H     H_    0.638071 0.948184 0.183982 0.202982
H26   H     H_    0.361930 0.948826 0.815528 0.199851
H27   H     H_    0.138071 0.448183 0.183981 0.202949
H28   H     H_    0.861834 0.448078 0.815978 0.203143
H29   H     H_    0.708043 0.081856 0.135975 0.200361
H30   H     H_    0.292109 0.081377 0.864746 0.200226
H31   H     H_    0.208043 0.581857 0.135976 0.200174
H32   H     H_    0.792125 0.581695 0.864306 0.200471
O17   O     O_R   0.537250 0.933800 0.537250 -0.617645
O18   O     O_R   0.462750 0.933800 0.462750 -0.617716
O19   O     O_R   0.037250 0.433800 0.537250 -0.617643
O20   O     O_R   0.962750 0.433800 0.462750 -0.617645
C121  C     C_R   0.499981 0.913125 0.499976 0.878866
C122  C     C_R   0.999981 0.413125 0.499976 0.878750
O21   O     O_R   0.537260 0.999870 0.475660 -0.614895
O22   O     O_R   0.462740 0.999870 0.524340 -0.615057
O23   O     O_R   0.037260 0.499870 0.475660 -0.614847
O24   O     O_R   0.962740 0.499870 0.524340 -0.614758
O25   O     O_R   0.462660 0.999960 0.401030 -0.600727
O26   O     O_R   0.537340 0.999960 0.598970 -0.600688
O27   O     O_R   0.962660 0.499960 0.401030 -0.600734
O28   O     O_R   0.037340 0.499960 0.598970 -0.600667
C123  C     C_R   0.500004 0.999970 0.418802 0.895729
C124  C     C_R   0.499996 0.999971 0.581198 0.895757
C125  C     C_R   0.000004 0.499970 0.418802 0.895606
C126  C     C_R   0.999996 0.499970 0.581198 0.895598
Zn5   Zn    Zn3+2 0.549780 0.999850 0.549790 1.029336
Zn6   Zn    Zn3+2 0.450220 0.999850 0.450210 1.028977
Zn7   Zn    Zn3+2 0.049780 0.499850 0.549790 1.029786
Zn8   Zn    Zn3+2 0.950220 0.499850 0.450210 1.029622
O29   O     O_R   0.537280 0.065930 0.537300 -0.611698
O30   O     O_R   0.462720 0.065930 0.462700 -0.611766
O31   O     O_R   0.037280 0.565930 0.537300 -0.611630
O32   O     O_R   0.962720 0.565930 0.462700 -0.611681
C127  C     C_R   0.500019 0.086570 0.500015 0.882512
C128  C     C_R   0.000019 0.586570 0.500015 0.882432
O33   O     O_R   0.999920 0.066060 0.534710 -0.614998
O34   O     O_R   0.000080 0.066060 0.465290 -0.614824
O35   O     O_R   0.499920 0.566060 0.534710 -0.614741
O36   O     O_R   0.500080 0.566060 0.465290 -0.614695
C129  C     C_R   0.999998 0.086882 0.499998 0.895125
C130  C     C_R   0.499999 0.586882 0.499999 0.895588
O37   O     O_R   0.933920 0.999970 0.468730 -0.619207
O38   O     O_R   0.066080 0.999970 0.531270 -0.619013
O39   O     O_R   0.433920 0.499970 0.468730 -0.619215
O40   O     O_R   0.566080 0.499970 0.531270 -0.619142
O41   O     O_R   0.933860 0.999980 0.399100 -0.614877
O42   O     O_R   0.066140 0.999980 0.600900 -0.614790
O43   O     O_R   0.433860 0.499980 0.399100 -0.614829
O44   O     O_R   0.566140 0.499980 0.600900 -0.614930
C131  C     C_R   0.913056 0.999916 0.413156 0.884128
C132  C     C_R   0.086932 0.000055 0.586843 0.883781
C133  C     C_R   0.413056 0.499916 0.413156 0.884058
C134  C     C_R   0.586943 0.499914 0.586844 0.884093
Zn9   Zn    Zn3+2 0.000000 0.999990 0.546450 1.014709
Zn10  Zn    Zn3+2 0.000000 0.999990 0.453550 1.014962
Zn11  Zn    Zn3+2 0.500000 0.499990 0.546450 1.014895
Zn12  Zn    Zn3+2 0.500000 0.499990 0.453550 1.015163
O45   O     O_R   0.000070 0.933930 0.534840 -0.619382
O46   O     O_R   0.999930 0.933930 0.465160 -0.619421
O47   O     O_R   0.500070 0.433930 0.534840 -0.619542
O48   O     O_R   0.499930 0.433930 0.465160 -0.619475
C135  C     C_R   0.000003 0.913070 0.500002 0.880014
C136  C     C_R   0.500001 0.413070 0.500000 0.879790
C137  C     C_R   0.972051 0.157370 0.499739 -0.216734
C138  C     C_R   0.027898 0.157428 0.500187 -0.216944
C139  C     C_R   0.472053 0.657370 0.499742 -0.216664
C140  C     C_R   0.527897 0.657428 0.500185 -0.216651
C141  C     C_R   0.999985 0.134663 0.499981 -0.059202
C142  C     C_R   0.499986 0.634663 0.499982 -0.059298
C143  C     C_R   0.028627 0.203589 0.501160 0.118092
C144  C     C_R   0.971283 0.203531 0.498698 0.117883
C145  C     C_R   0.528627 0.703589 0.501158 0.117947
C146  C     C_R   0.471285 0.703531 0.498701 0.117980
C147  C     C_R   0.999947 0.226769 0.499914 0.063197
C148  C     C_R   0.499947 0.726769 0.499914 0.063215
C149  C     C_R   0.057543 0.226906 0.503516 -0.176909
C150  C     C_R   0.942351 0.226791 0.496311 -0.176849
C151  C     C_R   0.557540 0.726907 0.503511 -0.176726
C152  C     C_R   0.442354 0.726791 0.496316 -0.176742
C153  C     C_R   0.558214 0.773164 0.504837 -0.181156
C154  C     C_R   0.441657 0.773047 0.494948 -0.181251
C155  C     C_R   0.058216 0.273164 0.504842 -0.181288
C156  C     C_R   0.941654 0.273047 0.494943 -0.181129
C157  C     C_R   0.529534 0.796425 0.502948 0.115249
C158  C     C_R   0.470329 0.796367 0.496826 0.115300
C159  C     C_R   0.029535 0.296425 0.502951 0.115297
C160  C     C_R   0.970328 0.296367 0.496824 0.115141
C161  C     C_R   0.499935 0.773187 0.499892 0.063918
C162  C     C_R   0.999934 0.273187 0.499892 0.063884
C163  C     C_R   0.529787 0.842586 0.503908 -0.227520
C164  C     C_R   0.470081 0.842530 0.495878 -0.227681
C165  C     C_R   0.029788 0.342586 0.503911 -0.227567
C166  C     C_R   0.970080 0.342530 0.495876 -0.227632
C167  C     C_R   0.499942 0.865314 0.499909 -0.058622
C168  C     C_R   0.999942 0.365314 0.499909 -0.058675
H33   H     H_    0.950376 0.139021 0.499096 0.156354
H34   H     H_    0.049585 0.139123 0.500850 0.156208
H35   H     H_    0.450379 0.639021 0.499101 0.156351
H36   H     H_    0.549584 0.639123 0.500847 0.156357
H37   H     H_    0.079749 0.209374 0.504664 0.163358
H38   H     H_    0.920154 0.209214 0.495182 0.163596
H39   H     H_    0.579746 0.709375 0.504657 0.163563
H40   H     H_    0.420158 0.709214 0.495188 0.163546
H41   H     H_    0.580942 0.790740 0.507010 0.164307
H42   H     H_    0.418923 0.790577 0.492766 0.164273
H43   H     H_    0.080945 0.290740 0.507017 0.164222
H44   H     H_    0.918920 0.290578 0.492760 0.164566
C169  C     C_R   0.974534 0.842412 0.445009 -0.205700
C170  C     C_R   0.025528 0.842465 0.555025 -0.205786
C171  C     C_R   0.474558 0.342410 0.445013 -0.205661
C172  C     C_R   0.525495 0.342463 0.555015 -0.205752
C173  C     C_R   0.000018 0.865231 0.500012 -0.069415
C174  C     C_R   0.500015 0.365230 0.500010 -0.069276
C175  C     C_R   0.026220 0.796287 0.555529 0.068878
C176  C     C_R   0.973886 0.796232 0.444518 0.069002
C177  C     C_R   0.526187 0.296285 0.555520 0.068981
C178  C     C_R   0.473909 0.296230 0.444522 0.068953
C179  C     C_R   0.000061 0.772935 0.500026 0.068245
C180  C     C_R   0.500057 0.272933 0.500024 0.068245
C181  C     C_R   0.052425 0.773357 0.610616 -0.256044
C182  C     C_R   0.947703 0.773250 0.389437 -0.256156
C183  C     C_R   0.552363 0.273355 0.610603 -0.256314
C184  C     C_R   0.447755 0.273248 0.389445 -0.256171
C185  C     C_R   0.552803 0.226983 0.611650 0.300615
C186  C     C_R   0.447341 0.226875 0.388407 0.300455
C187  C     C_R   0.052865 0.726984 0.611663 0.300728
C188  C     C_R   0.947287 0.726877 0.388398 0.300480
C189  C     C_R   0.527006 0.203275 0.556215 0.008494
C190  C     C_R   0.473141 0.203221 0.443845 0.008483
C191  C     C_R   0.027038 0.703276 0.556221 0.008508
C192  C     C_R   0.973115 0.703223 0.443842 0.008498
C193  C     C_R   0.500070 0.226470 0.500028 -0.010715
C194  C     C_R   0.000074 0.726472 0.500031 -0.010727
C195  C     C_R   0.528020 0.157007 0.555387 -0.167231
C196  C     C_R   0.472118 0.156954 0.444673 -0.167151
C197  C     C_R   0.028048 0.657008 0.555390 -0.166962
C198  C     C_R   0.972093 0.656956 0.444672 -0.167002
C199  C     C_R   0.500059 0.134362 0.500028 -0.095010
C200  C     C_R   0.000060 0.634363 0.500029 -0.095045
H45   H     H_    0.954680 0.860691 0.402624 0.160011
H46   H     H_    0.045369 0.860786 0.597404 0.160135
H47   H     H_    0.454726 0.360688 0.402632 0.160053
H48   H     H_    0.545315 0.360784 0.597391 0.160020
H49   H     H_    0.549799 0.138010 0.597303 0.198383
H50   H     H_    0.450327 0.137917 0.402754 0.198367
H51   H     H_    0.049845 0.638011 0.597307 0.198441
H52   H     H_    0.950283 0.637920 0.402751 0.198416
N1    N     N_R   0.704901 0.917463 0.292736 0.211661
O49   O     O_R   0.674938 0.934136 0.287686 -0.367047
O50   O     O_R   0.720327 0.877972 0.316032 -0.339832
N2    N     N_R   0.294615 0.907702 0.716240 0.208822
O51   O     O_R   0.322334 0.879941 0.761019 -0.346692
O52   O     O_R   0.280713 0.900083 0.664357 -0.347517
N3    N     N_R   0.204901 0.417461 0.292735 0.211550
O53   O     O_R   0.174937 0.434134 0.287683 -0.367091
O54   O     O_R   0.220328 0.377970 0.316032 -0.340369
N4    N     N_R   0.794932 0.417343 0.707169 0.211716
O55   O     O_R   0.824928 0.434010 0.712249 -0.365250
O56   O     O_R   0.779422 0.377854 0.683790 -0.339560
H53   H     H_    0.639025 0.052434 0.093510 0.165790
H54   H     H_    0.361094 0.051867 0.907265 0.166272
H55   H     H_    0.139025 0.552435 0.093511 0.165467
H56   H     H_    0.861075 0.552296 0.906679 0.165841
N5    N     N_R   0.794838 0.091693 0.215678 0.210053
O57   O     O_R   0.824737 0.118297 0.261001 -0.376912
O58   O     O_R   0.779462 0.099465 0.162867 -0.325985
N6    N     N_R   0.205385 0.091848 0.784468 0.209920
O59   O     O_R   0.176141 0.118613 0.739035 -0.377598
O60   O     O_R   0.220388 0.100040 0.836967 -0.325662
N7    N     N_R   0.294838 0.591695 0.215680 0.210086
O61   O     O_R   0.324737 0.618298 0.261004 -0.376889
O62   O     O_R   0.279462 0.599468 0.162869 -0.325758
N8    N     N_R   0.705353 0.591572 0.784601 0.210062
O63   O     O_R   0.675540 0.618211 0.739357 -0.376796
O64   O     O_R   0.720724 0.599310 0.837420 -0.325873
H57   H     H_    0.552469 0.860917 0.506516 0.157374
H58   H     H_    0.447409 0.860818 0.493290 0.157327
H59   H     H_    0.052472 0.360917 0.506520 0.157381
H60   H     H_    0.947407 0.360818 0.493286 0.157554
H61   H     H_    0.072006 0.791580 0.652971 0.194669
H62   H     H_    0.928115 0.791434 0.347079 0.194573
H63   H     H_    0.571921 0.291579 0.652952 0.194515
H64   H     H_    0.428189 0.291432 0.347093 0.194593
N9    N     N_R   0.578516 0.204796 0.668999 0.210380
O65   O     O_R   0.617668 0.219831 0.718005 -0.335574
O66   O     O_R   0.559820 0.175448 0.674597 -0.371465
N10   N     N_R   0.421646 0.204636 0.331063 0.210425
O67   O     O_R   0.382497 0.219589 0.282043 -0.335455
O68   O     O_R   0.440355 0.175319 0.325491 -0.370785
N11   N     N_R   0.078609 0.704798 0.669022 0.210407
O69   O     O_R   0.117772 0.719832 0.718002 -0.334626
O70   O     O_R   0.059937 0.675452 0.674661 -0.371829
N12   N     N_R   0.921561 0.704638 0.331045 0.210447
O71   O     O_R   0.882404 0.719592 0.282050 -0.335243
O72   O     O_R   0.940246 0.675321 0.325433 -0.370800
N13   N     N_R   0.418742 0.032471 0.141543 0.229641
O73   O     O_R   0.389247 0.044713 0.139571 -0.321183
O74   O     O_R   0.409835 0.035787 0.092834 -0.366255
N14   N     N_R   0.581967 0.030915 0.859152 0.229337
O75   O     O_R   0.611712 0.042586 0.861369 -0.322016
O76   O     O_R   0.590944 0.034069 0.907930 -0.365985
N15   N     N_R   0.918670 0.532276 0.141471 0.229518
O77   O     O_R   0.889144 0.544445 0.139469 -0.321233
O78   O     O_R   0.909757 0.535576 0.092756 -0.366882
N16   N     N_R   0.082912 0.528089 0.860112 0.229588
O79   O     O_R   0.113045 0.538729 0.862721 -0.322118
O80   O     O_R   0.091979 0.530952 0.908981 -0.366961
N17   N     N_R   0.511425 0.913248 0.233968 0.230654
O81   O     O_R   0.515970 0.881600 0.265943 -0.343452
O82   O     O_R   0.512541 0.903849 0.195254 -0.338792
N18   N     N_R   0.486798 0.913486 0.764256 0.228977
O83   O     O_R   0.481575 0.881934 0.731602 -0.344295
O84   O     O_R   0.485513 0.904105 0.802800 -0.342837
N19   N     N_R   0.011640 0.413276 0.234182 0.230422
O85   O     O_R   0.016260 0.381639 0.266232 -0.344068
O86   O     O_R   0.012781 0.403881 0.195493 -0.340081
N20   N     N_R   0.983776 0.413984 0.761251 0.230629
O87   O     O_R   0.977496 0.382620 0.727547 -0.343968
O88   O     O_R   0.982122 0.404668 0.799429 -0.339141
H65   H     H_    0.861680 0.047787 0.312161 0.200767
H66   H     H_    0.138286 0.048420 0.687416 0.200136
H67   H     H_    0.361680 0.547788 0.312162 0.200803
H68   H     H_    0.638418 0.547737 0.687964 0.200770

loop_
_geom_bond_atom_site_label_1
_geom_bond_atom_site_label_2
_geom_bond_distance
_ccdc_geom_bond_type
C63   C67   1.392527 A    
C165  H59   1.085047 S    
C72   C84   1.397513 A    
O28   Zn7   1.997491 S    
C41   N13   1.457203 S    
C100  C104  1.397488 A    
C26   N18   1.457150 S    
C160  C166  1.389845 A    
C177  C180  1.410642 A    
C97   C101  1.397501 A    
O41   Zn10  2.025104 S    
C1    C113  1.439458 S    
C151  H39   1.083702 S    
C59   C63   1.394483 A    
C164  C167  1.396951 A    
C9    C13   1.557108 S    
C180  C193  1.398685 A    
C64   C68   1.392545 A    
O47   C136  1.273191 A    
C11   C27   1.538009 S    
C20   C52   1.194253 T    
C171  C178  1.390257 A    
C113  C117  1.392534 A    
C32   C52   1.448099 S    
C110  C114  1.394476 A    
C195  H49   1.082052 S    
C116  C120  1.392521 A    
C183  C185  1.396146 A    
C103  H31   1.084383 S    
O24   Zn8   1.999108 S    
C175  C179  1.410648 A    
O4    C4    1.283979 A    
O38   C132  1.272831 A    
C43   N15   1.457199 S    
C158  C161  1.412166 A    
C70   C82   1.397304 A    
C94   C98   1.411781 A    
C9    C37   1.541492 S    
C146  C148  1.412210 A    
C87   N3    1.437140 S    
O33   Zn9   2.023281 S    
C12   C40   1.541488 S    
C16   C48   1.557153 S    
N7    O62   1.301290 A    
O16   Zn4   1.998291 S    
C62   C66   1.392145 A    
O17   Zn5   2.023399 S    
C185  C189  1.416229 A    
O7    Zn4   2.023185 S    
C185  N9    1.437034 S    
N2    O51   1.301281 A    
O28   C126  1.284530 A    
C187  C191  1.416230 A    
O43   Zn12  2.025104 S    
O4    Zn2   2.024850 S    
N11   O69   1.301265 A    
C36   C40   1.542443 S    
N10   O67   1.301266 A    
C140  C142  1.396681 A    
O26   Zn5   1.997491 S    
O9    C5    1.284344 A    
O18   C121  1.282648 A    
C111  H27   1.081923 S    
C93   C97   1.411459 A    
C157  C163  1.389778 A    
O8    Zn4   2.022471 S    
C149  H37   1.083701 S    
C169  H45   1.085133 S    
C19   C51   1.194256 T    
C170  H46   1.085132 S    
C67   C71   1.387764 A    
C197  C200  1.391709 A    
C82   H22   1.084402 S    
C149  C155  1.392758 A    
O3    Zn2   2.024131 S    
C28   N20   1.457157 S    
C154  H42   1.083700 S    
C106  N6    1.437067 S    
C44   N16   1.457205 S    
C25   C29   1.529124 S    
C83   C87   1.396296 A    
C27   C31   1.529127 S    
C90   C110  1.396454 A    
C28   C32   1.529129 S    
O39   C133  1.272712 A    
C137  C144  1.389788 A    
C172  H48   1.085131 S    
C137  C141  1.396702 A    
C34   C38   1.542443 S    
C36   H16   1.110164 S    
C139  C142  1.396700 A    
C91   C95   1.419448 A    
O3    C3    1.283944 A    
C61   C131  1.439451 S    
N7    O61   1.301343 A    
C89   C93   1.419447 A    
O21   Zn5   1.999108 S    
C13   C29   1.544624 S    
C90   C94   1.419380 A    
C60   C80   1.396938 A    
C15   C31   1.544625 S    
O24   C126  1.284853 A    
C16   C32   1.544620 S    
C43   C47   1.538091 S    
O19   Zn7   2.023399 S    
C2    C114  1.439239 S    
C156  C160  1.400842 A    
N3    O54   1.301284 A    
C86   C90   1.414993 A    
N9    O65   1.301266 A    
O40   Zn12  2.024498 S    
Zn11  O47   2.023087 S    
C4    C116  1.439421 S    
C37   C45   1.541557 S    
C66   H18   1.085301 S    
C181  H61   1.084353 S    
N16   O79   1.300217 A    
C192  C198  1.394329 A    
C11   H7    1.110125 S    
C23   C125  1.416028 S    
O45   C135  1.273186 A    
C24   C56   1.194323 T    
C17   C49   1.194253 T    
C34   C42   1.540823 S    
N14   O75   1.300207 A    
C188  N12   1.437045 S    
C82   C86   1.396021 A    
O34   Zn10  2.023269 S    
C143  C149  1.400779 A    
C27   C35   1.540779 S    
C80   C108  1.414880 A    
C103  C107  1.396291 A    
N14   O76   1.300274 A    
C166  H60   1.085037 S    
C74   C78   1.419226 A    
C196  C199  1.391697 A    
O8    C4    1.282798 A    
O20   C122  1.282645 A    
C64   C134  1.439432 S    
N5    O58   1.301289 A    
O30   C127  1.282889 A    
C187  N11   1.437034 S    
N18   O84   1.300251 A    
O29   C127  1.282928 A    
C158  C164  1.389845 A    
C24   C126  1.416031 S    
C169  C176  1.390254 A    
C10   C14   1.557100 S    
C42   N14   1.457200 S    
C170  C175  1.390291 A    
O13   Zn3   1.998295 S    
C188  C192  1.416221 A    
C171  C174  1.395206 A    
C117  H53   1.085306 S    
N6    O59   1.301341 A    
O44   C134  1.273776 A    
C22   C54   1.194319 T    
O42   C132  1.273335 A    
C159  C162  1.412142 A    
C136  C174  1.440112 S    
C150  C156  1.392787 A    
C184  C186  1.396121 A    
C111  C115  1.394467 A    
O5    C1    1.282857 A    
C135  C173  1.440088 S    
C87   C91   1.414914 A    
C96   C100  1.411438 A    
N12   O72   1.301340 A    
O15   Zn4   1.998295 S    
C120  H56   1.085313 S    
C75   C95   1.398782 A    
N11   O70   1.301342 A    
N8    O64   1.301286 A    
C73   C93   1.398785 A    
C140  C145  1.389749 A    
C35   C43   1.540805 S    
C57   C61   1.394482 A    
C76   C80   1.419432 A    
C37   C53   1.446157 S    
C3    C115  1.439458 S    
C69   C73   1.411451 A    
C41   C45   1.538094 S    
C140  H36   1.085073 S    
C9    H5    1.110124 S    
O14   C6    1.284416 A    
C71   C75   1.411452 A    
C10   H6    1.110121 S    
C44   C48   1.538089 S    
O36   C130  1.273160 A    
C21   C53   1.194327 T    
O27   C125  1.284525 A    
C155  C159  1.400830 A    
C36   C44   1.540805 S    
C33   H13   1.110164 S    
C178  C180  1.410648 A    
C115  C119  1.392534 A    
C144  C147  1.412211 A    
C182  C188  1.396121 A    
C130  C142  1.438321 S    
C165  C168  1.396949 A    
O10   C6    1.284354 A    
C40   C48   1.541554 S    
C198  C200  1.391703 A    
C29   C49   1.448101 S    
C13   C45   1.557157 S    
Zn8   O32   2.024119 S    
C139  H35   1.085071 S    
C60   C64   1.394456 A    
C15   C47   1.557158 S    
C152  C154  1.392787 A    
C150  H38   1.083698 S    
C23   C55   1.194324 T    
C176  C182  1.396168 A    
C84   H24   1.084376 S    
C171  H47   1.085131 S    
C145  C148  1.412218 A    
O33   C129  1.273175 A    
H9    C45   1.110139 S    
O18   Zn6   2.024117 S    
O2    C2    1.283047 A    
C8    C20   1.415677 S    
C138  H34   1.085072 S    
O38   Zn10  2.024498 S    
N20   O87   1.300209 A    
C170  C173  1.395215 A    
O39   Zn11  2.024503 S    
C176  C179  1.410647 A    
O27   Zn8   1.997490 S    
O25   Zn6   1.997490 S    
N4    O56   1.301282 A    
N19   O85   1.300208 A    
C34   H14   1.110161 S    
C109  H25   1.081924 S    
N13   O74   1.300269 A    
C139  C146  1.389788 A    
Zn6   O30   2.024119 S    
C186  N10   1.437046 S    
N17   O82   1.300247 A    
C70   C74   1.411680 A    
O21   C123  1.284862 A    
C58   C62   1.394548 A    
C14   C30   1.544628 S    
N2    O52   1.301277 A    
C71   C83   1.397504 A    
C153  C157  1.400831 A    
O22   C124  1.284864 A    
O23   C125  1.284859 A    
O34   C129  1.273160 A    
N10   O68   1.301344 A    
O23   Zn7   1.999108 S    
C88   C92   1.414917 A    
C192  C194  1.420353 A    
N4    O55   1.301331 A    
C30   C50   1.448108 S    
C65   H17   1.085291 S    
C22   C124  1.416019 S    
C69   C81   1.397503 A    
C68   H20   1.085288 S    
C39   C47   1.541555 S    
C10   C38   1.541472 S    
O19   C122  1.282603 A    
O12   Zn2   1.998618 S    
O35   C130  1.273175 A    
C145  C151  1.400777 A    
C112  C116  1.394455 A    
O1    C1    1.283944 A    
C190  C193  1.420355 A    
C102  C106  1.396286 A    
H10   C46   1.110141 S    
C92   C112  1.397087 A    
C29   C41   1.529128 S    
C169  C173  1.395201 A    
C72   C76   1.411446 A    
C31   C51   1.448104 S    
O31   C128  1.282933 A    
C15   H3    1.110098 S    
O44   Zn11  2.025101 S    
O25   C123  1.284523 A    
C155  H43   1.083702 S    
C156  H44   1.083701 S    
C35   H15   1.110167 S    
C138  C143  1.389750 A    
N15   O78   1.300270 A    
C57   C77   1.396989 A    
C76   C96   1.398775 A    
C58   H66   1.081961 S    
C39   C55   1.446156 S    
C9    C25   1.538009 S    
C183  H63   1.084354 S    
C112  H28   1.081915 S    
C11   C15   1.557111 S    
C12   C28   1.538012 S    
O46   C135  1.273170 A    
C12   C16   1.557112 S    
C68   C72   1.387793 A    
C18   C50   1.194264 T    
C160  C162  1.412162 A    
C88   N4    1.437137 S    
C101  C105  1.396291 A    
O36   Zn12  2.023269 S    
C143  C147  1.412218 A    
C104  C108  1.396246 A    
C25   C33   1.540781 S    
O6    C2    1.283604 A    
N16   O80   1.300267 A    
O42   Zn9   2.025101 S    
C99   C103  1.397501 A    
C60   H68   1.081930 S    
O32   C128  1.282899 A    
C159  C165  1.389778 A    
N1    O49   1.301335 A    
C98   C118  1.388061 A    
C33   C37   1.542443 S    
C129  C141  1.438321 S    
C127  C199  1.438666 S    
C74   C94   1.398692 A    
O2    Zn1   2.024850 S    
C35   C39   1.542442 S    
C128  C200  1.438688 S    
O10   Zn1   1.998618 S    
C189  C193  1.420373 A    
C118  H54   1.085263 S    
O13   C5    1.284419 A    
N1    O50   1.301281 A    
Zn9   O45   2.023087 S    
N3    O53   1.301335 A    
C191  C197  1.394388 A    
C28   C36   1.540784 S    
C42   C46   1.538100 S    
C198  H52   1.082059 S    
C30   C42   1.529118 S    
C89   C109  1.397031 A    
C137  H33   1.085073 S    
O20   Zn8   2.024117 S    
C195  C199  1.391699 A    
C109  C113  1.394465 A    
C102  H30   1.084396 S    
C177  C183  1.396177 A    
O41   C131  1.273798 A    
C26   C30   1.529128 S    
C178  C184  1.396168 A    
C38   C46   1.541557 S    
N5    O57   1.301342 A    
O12   C8    1.284344 A    
O15   C7    1.284421 A    
N15   O77   1.300219 A    
H11   C47   1.110142 S    
C182  H62   1.084357 S    
C58   C78   1.396761 A    
C99   C119  1.387741 A    
C184  H64   1.084357 S    
O7    C3    1.282857 A    
C148  C161  1.397327 A    
C31   C43   1.529125 S    
C97   C117  1.387741 A    
C78   C106  1.414933 A    
C25   N17   1.457154 S    
N6    O60   1.301280 A    
C95   C99   1.411458 A    
C100  C120  1.387665 A    
C57   H65   1.081931 S    
N19   O86   1.300247 A    
C172  C177  1.390291 A    
Zn12  O48   2.023090 S    
C85   N1    1.437140 S    
C146  C152  1.400797 A    
C157  C161  1.412142 A    
C33   C41   1.540807 S    
O35   Zn11  2.023281 S    
C138  C141  1.396676 A    
C144  C150  1.400798 A    
C81   C85   1.396296 A    
C85   C89   1.414911 A    
C26   C34   1.540775 S    
O16   C8    1.284417 A    
C59   C79   1.396989 A    
C151  C153  1.392755 A    
C101  H29   1.084383 S    
C73   C77   1.419422 A    
C32   C44   1.529128 S    
O11   C7    1.284345 A    
C110  H26   1.081907 S    
N9    O66   1.301341 A    
O5    Zn3   2.023185 S    
O1    Zn1   2.024131 S    
O9    Zn1   1.998607 S    
C92   C96   1.419476 A    
O37   C131  1.272712 A    
C40   C56   1.446157 S    
C191  C194  1.420371 A    
Zn5   O29   2.024834 S    
C65   C69   1.387767 A    
C163  C167  1.396954 A    
C63   C133  1.439451 S    
C6    C18   1.415703 S    
C16   H4    1.110098 S    
O22   Zn6   1.999108 S    
C83   H23   1.084376 S    
O43   C133  1.273798 A    
O11   Zn2   1.998607 S    
C81   H21   1.084375 S    
O26   C124  1.284510 A    
C164  H58   1.085041 S    
C86   N2    1.436937 S    
C152  H40   1.083699 S    
C189  C195  1.394388 A    
C153  H41   1.083703 S    
C190  C196  1.394330 A    
C7    C19   1.415680 S    
O6    Zn3   2.022471 S    
O17   C121  1.282600 A    
C147  C162  1.397327 A    
C12   H8    1.110125 S    
C121  C167  1.439254 S    
C122  C168  1.439257 S    
C5    C17   1.415680 S    
C172  C174  1.395224 A    
O48   C136  1.273180 A    
C107  N7    1.437139 S    
C38   C54   1.446138 S    
C166  C168  1.396954 A    
Zn10  O46   2.023090 S    
N18   O83   1.300205 A    
C13   H1    1.110095 S    
C181  C187  1.396146 A    
C154  C158  1.400840 A    
C62   C132  1.438823 S    
N20   O88   1.300251 A    
C14   H2    1.110094 S    
O14   Zn3   1.998291 S    
C98   C102  1.397489 A    
N13   O73   1.300218 A    
O37   Zn9   2.024503 S    
O40   C134  1.272724 A    
H12   C48   1.110141 S    
C108  N8    1.437139 S    
C21   C123  1.416031 S    
N17   O81   1.300209 A    
C14   C46   1.557138 S    
C59   H67   1.081927 S    
C179  C194  1.398685 A    
C67   H19   1.085291 S    
Zn7   O31   2.024834 S    
C10   C26   1.538002 S    
C11   C39   1.541491 S    
C105  N5    1.437141 S    
C66   C70   1.387763 A    
C77   C105  1.414897 A    
C79   C107  1.414897 A    
C27   N19   1.457156 S    
N12   O71   1.301265 A    
C175  C181  1.396178 A    
C196  H50   1.082060 S    
C119  H55   1.085304 S    
C197  H51   1.082053 S    
C104  H32   1.084384 S    
N8    O63   1.301344 A    
C114  C118  1.392185 A    
C163  H57   1.085044 S    
C75   C79   1.419425 A    
C186  C190  1.416217 A    
C61   C65   1.392528 A    
C84   C88   1.396321 A    
C91   C111  1.397031 A    
