data_mof_unit_48573.cif
_audit_creation_date              2012-10-26T20:22:05-0400
_audit_creation_method            fapswitch 2.2
_symmetry_space_group_name_H-M    P1
_symmetry_Int_Tables_number       1
_space_group_crystal_system       triclinic
_cell_length_a                    10.785717
_cell_length_b                    9.528921
_cell_length_c                    10.67836
_cell_angle_alpha                 90.798713
_cell_angle_beta                  90.002382
_cell_angle_gamma                 90.016002
_cell_volume                      1097.37506779

loop_
_atom_site_label
_atom_site_type_symbol
_atom_type_description
_atom_site_fract_x
_atom_site_fract_y
_atom_site_fract_z
_atom_type_partial_charge
C1    C     C_R   0.871420 0.499996 0.500355 -0.054286
C2    C     C_3   0.502431 0.366512 0.036633 0.014179
C3    C     C_3   0.400170 0.431133 0.953776 -0.154376
C4    C     C_3   0.599831 0.568867 0.046224 -0.154377
C5    C     C_3   0.502591 0.503327 0.876842 -0.033542
C6    C     C_3   0.497410 0.496673 0.123158 -0.033543
C7    C     C_R   0.412112 0.073296 0.435249 0.041508
C8    C     C_R   0.587887 0.926703 0.564751 0.041508
C9    C     C_R   0.587735 0.075397 0.565046 0.044003
C10   C     C_R   0.412265 0.924603 0.434954 0.044002
C11   C     C_R   0.064334 0.422979 0.406993 0.209060
C12   C     C_R   0.128580 0.500004 0.499645 -0.054287
C13   C     C_R   0.935666 0.577021 0.593007 0.209062
C14   C     C_R   0.935176 0.422900 0.407467 0.196955
C15   C     C_R   0.064824 0.577100 0.592533 0.196956
C16   C     C_2   0.277480 0.628272 0.085394 0.662507
C17   C     C_2   0.722520 0.371725 0.914606 0.662507
C18   C     C_2   0.500976 0.783946 0.923973 0.637769
C19   C     C_2   0.499024 0.216054 0.076027 0.637769
C20   C     C_R   0.262418 0.499970 0.499610 0.630253
C21   C     C_R   0.737582 0.500030 0.500390 0.630252
C22   C     C_R   0.498840 0.498885 0.259501 0.615112
C23   C     C_R   0.501161 0.501115 0.740499 0.615112
C24   C     C_3   0.396278 0.561926 0.041318 0.012721
C25   C     C_3   0.603723 0.438074 0.958681 0.012722
C26   C     C_3   0.497569 0.633488 0.963366 0.014178
Cl1   Cl    Cl    0.144817 0.331513 0.286476 -0.438653
Cl2   Cl    Cl    0.855183 0.668485 0.713525 -0.438653
Cl3   Cl    Cl    0.853751 0.330679 0.288107 -0.416915
Cl4   Cl    Cl    0.146249 0.669321 0.711893 -0.416914
Cu1   Cu    Cu3+1 0.500000 0.640660 0.500000 1.088157
Cu2   Cu    Cu3+1 0.500000 0.359340 0.500000 1.088159
H1    H     H_    0.341496 0.128297 0.383598 0.185387
H2    H     H_    0.399529 0.060057 0.152305 0.349909
H3    H     H_    0.658504 0.871703 0.616402 0.185386
H4    H     H_    0.657933 0.132034 0.617490 0.153829
H5    H     H_    0.342067 0.867966 0.382510 0.153829
H6    H     H_    0.318549 0.374997 0.914148 0.190649
H7    H     H_    0.681452 0.625003 0.085852 0.190649
H8    H     H_    0.170468 0.690228 0.230791 0.350375
H9    H     H_    0.829526 0.309757 0.769208 0.350374
H10   H     H_    0.600470 0.939944 0.847696 0.349910
N1    N     N_R   0.500000 0.852070 0.500000 -0.238388
N2    N     N_R   0.500000 0.147930 0.500000 -0.238388
O1    O     O_R   0.319640 0.618740 0.499990 -0.467368
O2    O     O_R   0.253790 0.644826 0.213273 -0.678797
O3    O     O_2   0.798563 0.332719 0.991390 -0.371821
O4    O     O_R   0.746207 0.355166 0.786726 -0.678799
O5    O     O_2   0.411373 0.859990 0.941965 -0.451207
O6    O     O_R   0.608070 0.836759 0.868274 -0.629849
O7    O     O_2   0.588626 0.140009 0.058032 -0.451208
O8    O     O_R   0.391931 0.163242 0.131728 -0.629850
O9    O     O_R   0.680360 0.381260 0.500010 -0.467367
O10   O     O_R   0.680360 0.618740 0.500010 -0.488864
O11   O     O_R   0.319640 0.381260 0.499990 -0.488864
O12   O     O_R   0.499970 0.618770 0.316850 -0.495350
O13   O     O_R   0.500030 0.381230 0.683150 -0.495348
O14   O     O_R   0.500030 0.618770 0.683150 -0.462958
O15   O     O_R   0.499970 0.381230 0.316850 -0.462956
O16   O     O_2   0.201435 0.667277 0.008610 -0.371822

loop_
_geom_bond_atom_site_label_1
_geom_bond_atom_site_label_2
_ccdc_geom_bond_type
Cu1   O14   S    
C23   O14   A    
C4    C26   S    
C11   C12   A    
C4    H7    S    
C13   Cl2   S    
C1    C21   S    
Cu1   O12   S    
C7    C10   A    
Cu2   O11   S    
H2    O8    S    
C20   O1    A    
C5    C23   S    
C12   C15   A    
C11   Cl1   S    
C17   O4    S    
C6    C24   S    
C12   C20   S    
C2    C3    S    
Cu2   N2    S    
C17   C25   S    
C16   C24   S    
C7    N2    A    
H8    O2    S    
C7    H1    S    
C3    C24   S    
C2    C6    S    
Cu1   N1    S    
Cu2   O13   S    
H10   O6    S    
C10   H5    S    
C5    C25   S    
C21   O9    A    
C8    N1    A    
H9    O4    S    
C24   C26   S    
C4    C25   S    
C2    C25   S    
C13   C15   A    
Cu1   O10   S    
Cu1   O1    S    
C21   O10   A    
C11   C14   A    
C20   O11   A    
C14   Cl3   S    
C5    C26   S    
C6    C22   S    
C9    H4    S    
C19   O7    D    
Cu2   O9    S    
C1    C13   A    
C18   O6    S    
C15   Cl4   S    
C4    C6    S    
C16   O16   D    
C16   O2    S    
C22   O15   A    
C23   O13   A    
C9    N2    A    
C22   O12   A    
C1    C14   A    
Cu2   O15   S    
C10   N1    A    
C2    C19   S    
C19   O8    S    
Cu1   Cu2   S    
C17   O3    D    
C18   O5    D    
C3    H6    S    
C8    C9    A    
C3    C5    S    
C8    H3    S    
C18   C26   S    
