data_mof_unit_11506.cif
_audit_creation_date              2012-12-11T14:50:47-0500
_audit_creation_method            fapswitch 2.2
_symmetry_space_group_name_H-M    P1
_symmetry_Int_Tables_number       1
_space_group_crystal_system       triclinic
_cell_length_a                    10.912491
_cell_length_b                    10.881569
_cell_length_c                    18.846594
_cell_angle_alpha                 90.292771
_cell_angle_beta                  89.868284
_cell_angle_gamma                 60.255451
_cell_volume                      1943.02636476

loop_
_atom_site_label
_atom_site_type_symbol
_atom_type_description
_atom_site_fract_x
_atom_site_fract_y
_atom_site_fract_z
_atom_type_partial_charge
C1    C     C_R   0.237156 0.645935 0.609996 0.546606
C2    C     C_R   0.554880 0.206819 0.793055 -0.144193
C3    C     C_R   0.542020 0.215468 0.720868 -0.137705
C4    C     C_R   0.654517 0.623964 0.600361 0.567214
C5    C     C_R   0.657135 0.189532 0.677925 0.017700
C6    C     C_R   0.208950 0.544979 0.723135 -0.096123
C7    C     C_R   0.203877 0.548354 0.797240 0.177336
C8    C     C_R   0.183849 0.671468 0.833923 0.001912
C9    C     C_R   0.184419 0.782262 0.794400 0.226566
C10   C     C_R   0.180943 0.779496 0.721407 -0.062537
C11   C     C_R   0.197592 0.660276 0.684945 -0.089159
C12   C     C_3   0.674179 0.557195 0.798717 -0.286299
C13   C     C_R   0.737933 0.532034 0.273377 -0.164009
C14   C     C_R   0.734493 0.541343 0.200635 -0.181879
C15   C     C_R   0.647423 0.670353 0.167488 -0.036792
C16   C     C_R   0.626678 0.230984 0.603846 0.531778
C17   C     C_R   0.548470 0.787336 0.208957 0.284039
C18   C     C_R   0.556116 0.779945 0.283190 0.284245
C19   C     C_R   0.651030 0.650100 0.315948 -0.027375
C20   C     C_R   0.534106 0.175550 0.285138 -0.088908
C21   C     C_R   0.535970 0.169695 0.212467 -0.098890
C22   C     C_R   0.650226 0.162406 0.175257 0.019698
C23   C     C_3   0.703883 0.680205 0.810628 0.081553
C24   C     C_R   0.758413 0.170518 0.211358 -0.142007
C25   C     C_R   0.755048 0.179453 0.284541 -0.145528
C26   C     C_R   0.642267 0.182889 0.321668 0.017830
C27   C     C_R   0.101818 0.804432 0.303665 -0.157696
C28   C     C_R   0.216068 0.651071 0.403206 0.541522
C29   C     C_R   0.090875 0.812190 0.231348 -0.128801
C30   C     C_R   0.108538 0.695255 0.191224 -0.017983
C31   C     C_R   0.124568 0.574484 0.225336 -0.073565
C32   C     C_R   0.135415 0.565703 0.298906 0.228594
C33   C     C_R   0.138166 0.677142 0.337327 0.005906
C34   C     C_3   0.671424 0.652351 0.675382 0.057863
C35   C     C_R   0.701979 0.102733 0.896287 0.554741
C36   C     C_R   0.726997 0.690818 0.886920 0.604668
C37   C     C_R   0.119965 0.705857 0.905563 0.553962
C38   C     C_R   0.674342 0.108614 0.103626 0.543469
C39   C     C_R   0.693051 0.689399 0.096935 0.538340
C40   C     C_R   0.641524 0.622207 0.391300 0.529259
C41   C     C_R   0.083159 0.714985 0.115685 0.543063
C42   C     C_R   0.616609 0.229782 0.394563 0.543782
C43   C     C_3   0.579216 0.821339 0.780917 0.169403
C44   C     C_3   0.563875 0.807251 0.699848 0.125935
C45   C     C_3   0.823206 0.627727 0.689292 0.050788
C46   C     C_3   0.839425 0.652238 0.769281 0.052917
C47   C     C_3   0.643928 0.548376 0.720329 -0.223099
C48   C     C_R   0.788116 0.150897 0.709194 -0.148961
C49   C     C_R   0.803284 0.133500 0.782838 -0.121943
C50   C     C_R   0.686253 0.159339 0.824887 0.021895
Cr1   Cr    Cr6+3 0.392930 0.397900 0.502230 1.046307
Cr2   Cr    Cr6+3 0.398240 0.708600 0.501260 1.060153
Cr3   Cr    Cr6+3 0.708800 0.393470 0.496460 1.036468
Cr4   Cr    Cr6+3 0.937620 0.938540 0.007640 1.039497
Cr5   Cr    Cr6+3 0.625150 0.937450 0.994520 1.051486
Cr6   Cr    Cr6+3 0.937990 0.625080 0.001190 1.044832
H1    H     H_    0.710106 0.437368 0.701718 0.134088
H2    H     H_    0.838299 0.187175 0.311771 0.129650
H3    H     H_    0.095456 0.894168 0.332232 0.157124
H4    H     H_    0.069464 0.910904 0.207125 0.159063
H5    H     H_    0.127086 0.488133 0.195234 0.152117
H6    H     H_    0.590614 0.880785 0.671350 0.061817
H7    H     H_    0.835916 0.705998 0.656907 0.152967
H8    H     H_    0.582285 0.572816 0.831352 0.161844
H9    H     H_    0.603387 0.908761 0.789549 0.152806
H10   H     H_    0.928583 0.420824 0.698389 0.329360
H11   H     H_    0.877613 0.133711 0.676957 0.128981
H12   H     H_    0.932669 0.556816 0.791052 0.215530
H13   H     H_    0.439414 0.245799 0.699071 0.146776
H14   H     H_    0.253844 0.427023 0.879131 0.326658
H15   H     H_    0.242344 0.866834 0.867135 0.369532
H16   H     H_    0.393201 0.959786 0.815549 0.339153
H17   H     H_    0.173065 0.869597 0.693194 0.195833
H18   H     H_    0.808871 0.429790 0.296063 0.166296
H19   H     H_    0.417070 0.888461 0.134137 0.324712
H20   H     H_    0.515029 0.897742 0.367080 0.317100
H21   H     H_    0.368457 0.948615 0.681988 0.321911
H22   H     H_    0.105710 0.473407 0.378841 0.337859
H23   H     H_    0.906246 0.094899 0.806287 0.184626
H24   H     H_    0.939144 0.755143 0.747898 0.330702
H25   H     H_    0.766916 0.455456 0.815249 0.112476
H26   H     H_    0.532241 0.573861 0.714324 0.180441
H27   H     H_    0.463163 0.225723 0.823610 0.172880
H28   H     H_    0.223246 0.451348 0.695504 0.182624
H29   H     H_    0.808027 0.448563 0.170453 0.151970
H30   H     H_    0.444209 0.180347 0.312307 0.204354
H31   H     H_    0.451354 0.163347 0.185888 0.189621
H32   H     H_    0.848239 0.164145 0.183366 0.127672
O1    O     O_R   0.507430 0.255570 0.581420 -0.528561
O2    O     O_R   0.837200 0.593290 0.915250 -0.524639
O3    O     O_R   0.065330 0.635370 0.931590 -0.476741
O4    O     O_R   0.280190 0.527390 0.578910 -0.503312
O5    O     O_R   0.068300 0.828790 0.091860 -0.528363
O6    O     O_R   0.798730 0.057480 0.079370 -0.514951
O7    O     O_R   0.584680 0.080480 0.076790 -0.509599
O8    O     O_R   0.626790 0.809640 0.067050 -0.491789
O9    O     O_R   0.816010 0.596460 0.076500 -0.522830
O10   O     O_R   0.045680 0.638310 0.081070 -0.510919
O11   O     O_3   0.833590 0.833690 0.001120 -0.252315
O12   O     O_R   0.524460 0.695920 0.424060 -0.489017
O13   O     O_R   0.260310 0.739740 0.584580 -0.500706
O14   O     O_R   0.532250 0.695150 0.573830 -0.464826
O15   O     O_R   0.744930 0.503430 0.576380 -0.478287
O16   O     O_R   0.699250 0.276390 0.571950 -0.507656
O17   O     O_R   0.499020 0.256400 0.419850 -0.507798
O18   O     O_R   0.272400 0.528160 0.429140 -0.485511
O19   O     O_R   0.251910 0.740570 0.423020 -0.509114
O20   O     O_3   0.930641 0.492798 0.667108 -0.697314
O21   O     O_3   0.213948 0.432030 0.831370 -0.717068
O22   O     O_3   0.180687 0.899344 0.824893 -0.679235
O23   O     O_R   0.736530 0.504260 0.414810 -0.520685
O24   O     O_3   0.453772 0.855173 0.817095 -0.675564
O25   O     O_3   0.447542 0.912174 0.179170 -0.654983
O26   O     O_3   0.468817 0.901015 0.321418 -0.650798
O27   O     O_3   0.424075 0.843637 0.683843 -0.646203
O28   O     O_3   0.147301 0.446436 0.330600 -0.690029
O29   O     O_3   0.860259 0.769066 0.778976 -0.745125
O30   O     O_R   0.691460 0.277160 0.422180 -0.508012
O31   O     O_3   0.499990 0.499990 0.499980 -0.263149
O32   O     O_R   0.089490 0.825610 0.930610 -0.500898
O33   O     O_R   0.818370 0.054540 0.929880 -0.488316
O34   O     O_R   0.605870 0.077310 0.915530 -0.531611
O35   O     O_R   0.646440 0.806700 0.917570 -0.470490

loop_
_geom_bond_atom_site_label_1
_geom_bond_atom_site_label_2
_ccdc_geom_bond_type
C21   H31   S    
Cr4   O32   S    
C27   C29   A    
C31   H5    S    
C1    C11   S    
Cr6   O10   S    
C18   O26   S    
H16   O24   S    
C17   O25   S    
C7    C8    A    
C45   C46   S    
C27   C33   A    
C12   C23   S    
Cr2   O14   S    
C21   C22   A    
C3    H13   S    
C30   C31   A    
C12   H8    S    
C10   H17   S    
C4    O15   A    
C39   O9    A    
Cr3   O16   S    
C22   C38   S    
H15   O22   S    
C23   C43   S    
C18   C19   A    
C47   H26   S    
Cr4   O5    S    
C2    C50   A    
C16   O16   A    
Cr6   O3    S    
C41   O5    A    
C44   O27   S    
C28   O18   A    
C8    C9    A    
C5    C16   S    
C20   H30   S    
C38   O7    A    
Cr1   O31   S    
C30   C41   S    
H19   O25   S    
C9    C10   A    
C45   O20   S    
Cr1   O17   S    
Cr3   O23   S    
Cr6   O2    S    
Cr5   O34   S    
C16   O1    A    
C23   C46   S    
C13   C14   A    
C2    H27   S    
Cr6   O9    S    
C12   C47   S    
C40   O23   A    
C4    C34   S    
C5    C48   A    
Cr5   O35   S    
Cr2   O13   S    
C6    H28   S    
C37   O3    A    
C35   O33   A    
C36   O35   A    
C34   C44   S    
C24   C25   A    
Cr2   O19   S    
Cr5   O7    S    
C10   C11   A    
C6    C11   A    
C13   C19   A    
Cr3   O30   S    
C42   O30   A    
C44   H6    S    
C25   C26   A    
Cr2   O12   S    
C49   H23   S    
C46   O29   S    
C4    O14   A    
C43   C44   S    
C46   H12   S    
C29   C30   A    
H14   O21   S    
Cr1   O4    S    
C47   H1    S    
H20   O26   S    
C31   C32   A    
C29   H4    S    
C43   H9    S    
C38   O6    A    
C35   C50   S    
C17   C18   A    
C34   C45   S    
C32   O28   S    
C24   H32   S    
C15   C39   S    
C48   C49   A    
Cr4   O33   S    
C28   C33   S    
C23   C36   S    
C1    O4    A    
C22   C24   A    
Cr4   O11   S    
C43   O24   S    
C1    O13   A    
C26   C42   S    
C25   H2    S    
C36   O2    A    
C9    O22   S    
C15   C17   A    
H24   O29   S    
C14   C15   A    
C35   O34   A    
H22   O28   S    
C14   H29   S    
H10   O20   S    
Cr5   O8    S    
C3    C5    A    
C40   O12   A    
Cr3   O31   S    
C6    C7    A    
C32   C33   A    
C2    C3    A    
C27   H3    S    
Cr1   O1    S    
C37   O32   A    
C20   C26   A    
Cr3   O15   S    
Cr1   O18   S    
C45   H7    S    
C12   H25   S    
C48   H11   S    
C42   O17   A    
C39   O8    A    
Cr4   O6    S    
C19   C40   S    
Cr2   O31   S    
C7    O21   S    
C20   C21   A    
C49   C50   A    
C8    C37   S    
Cr5   O11   S    
C41   O10   A    
C34   C47   S    
C28   O19   A    
Cr6   O11   S    
H21   O27   S    
C13   H18   S    
