data_mof_unit_61366.cif
_audit_creation_date              2012-12-10T22:08:21-0500
_audit_creation_method            fapswitch 2.2
_symmetry_space_group_name_H-M    P1
_symmetry_Int_Tables_number       1
_space_group_crystal_system       triclinic
_cell_length_a                    16.055786
_cell_length_b                    16.199882
_cell_length_c                    30.283712
_cell_angle_alpha                 90.262711
_cell_angle_beta                  89.941251
_cell_angle_gamma                 90.455577
_cell_volume                      7876.51352223

loop_
_atom_site_label
_atom_site_type_symbol
_atom_type_description
_atom_site_fract_x
_atom_site_fract_y
_atom_site_fract_z
_atom_type_partial_charge
C1    C     C_R   0.617757 0.998885 0.559216 0.877182
C2    C     C_R   0.058784 0.850829 0.780215 0.120722
C3    C     C_R   0.935464 0.154781 0.154222 0.381327
C4    C     C_R   0.053911 0.785403 0.810576 0.352717
C5    C     C_R   0.141561 0.937864 0.282336 0.425328
C6    C     C_R   0.915868 0.061046 0.685907 0.316250
C7    C     C_R   0.207391 0.943624 0.312770 0.355627
C8    C     C_R   0.852960 0.060115 0.654037 0.364506
C9    C     C_R   0.858747 0.067101 0.282297 0.315517
C10   C     C_R   0.074720 0.941559 0.679966 0.284978
C11   C     C_R   0.792043 0.060934 0.312277 0.342221
C12   C     C_R   0.381983 0.001190 0.440913 0.875825
C13   C     C_R   0.139255 0.941341 0.648883 0.346170
C14   C     C_3   0.000549 0.002524 0.248223 0.139120
C15   C     C_3   0.999200 0.997171 0.751099 0.123267
C16   C     C_R   0.616825 0.001082 0.440696 0.876179
C17   C     C_R   0.383166 0.998885 0.559213 0.875432
C18   C     C_R   0.078008 0.001419 0.280843 -0.134755
C19   C     C_R   0.919389 0.999201 0.720265 -0.113500
C20   C     C_R   0.206789 0.003662 0.345696 -0.204837
C21   C     C_R   0.789157 0.002113 0.656323 -0.203870
C22   C     C_R   0.923206 0.004531 0.281219 -0.156143
C23   C     C_R   0.933110 0.797800 0.184083 0.113463
C24   C     C_R   0.074737 0.998977 0.716854 -0.175095
C25   C     C_R   0.793189 0.002387 0.345668 -0.211684
C26   C     C_R   0.205822 0.995817 0.653305 -0.210073
C27   C     C_R   0.003361 0.079035 0.215318 -0.065713
C28   C     C_R   0.000120 0.918785 0.782771 -0.088820
C29   C     C_R   0.997588 0.214634 0.155652 -0.162726
C30   C     C_R   0.001262 0.790159 0.846906 -0.159526
C31   C     C_R   0.997178 0.924973 0.215981 -0.037089
C32   C     C_R   0.002912 0.072442 0.785161 -0.073737
C33   C     C_R   0.993291 0.797806 0.150741 -0.118718
C34   C     C_R   0.057228 0.125756 0.856662 0.160759
C35   C     C_R   0.007502 0.195370 0.852932 -0.119601
C36   C     C_1   0.729901 0.002401 0.378825 0.200401
C37   C     C_1   0.269380 0.996582 0.620453 0.202371
C38   C     C_1   0.678126 0.001871 0.407152 -0.058296
C39   C     C_1   0.321526 0.997823 0.592418 -0.055296
C40   C     C_R   0.082412 0.063581 0.315329 0.309954
C41   C     C_R   0.853138 0.937346 0.719672 0.420612
C42   C     C_1   0.269092 0.002982 0.379221 0.205555
C43   C     C_1   0.727915 0.999861 0.622271 0.206313
C44   C     C_1   0.320588 0.002185 0.407578 -0.052963
C45   C     C_R   0.058768 0.919570 0.181204 0.292714
C46   C     C_1   0.677728 0.998594 0.593263 -0.052836
C47   C     C_1   0.997758 0.278494 0.123331 0.183851
C48   C     C_1   0.001541 0.726083 0.879065 0.190679
C49   C     C_1   0.998479 0.329667 0.095105 -0.072835
C50   C     C_1   0.001244 0.673284 0.906417 -0.062911
C51   C     C_1   0.990420 0.736744 0.116663 0.086860
C52   C     C_1   0.009391 0.257742 0.886331 0.082504
C53   C     C_1   0.990402 0.685466 0.088284 -0.104462
C54   C     C_1   0.009354 0.311288 0.913511 -0.093725
C55   C     C_R   0.993502 0.623113 0.055643 0.879669
C56   C     C_R   0.942397 0.138658 0.787461 0.418143
C57   C     C_R   0.006451 0.376289 0.944699 0.889118
C58   C     C_R   0.999195 0.389134 0.061117 0.861881
C59   C     C_R   0.000757 0.611542 0.939220 0.883899
C60   C     C_R   0.144480 0.062324 0.347663 0.367989
C61   C     C_R   0.786711 0.943628 0.689727 0.352769
C62   C     C_R   0.919283 0.943777 0.316150 0.293910
C63   C     C_R   0.141255 0.060555 0.716706 0.321696
C64   C     C_R   0.857136 0.945727 0.348527 0.320014
C65   C     C_R   0.208316 0.053671 0.687242 0.326784
C66   C     C_R   0.068857 0.141762 0.214079 0.412725
C67   C     C_R   0.055273 0.857622 0.149105 0.368078
C68   C     C_R   0.943581 0.917482 0.820094 0.311277
C69   C     C_R   0.063246 0.209175 0.185235 0.344337
C70   C     C_R   0.947784 0.856238 0.852368 0.327230
C71   C     C_R   0.930681 0.863138 0.215347 0.235353
C72   C     C_R   0.065168 0.072089 0.820256 0.169858
C73   C     C_3   0.816704 0.808532 0.263878 -0.577917
C74   C     C_3   0.217328 0.052484 0.831595 -0.573787
C75   C     C_3   0.871095 0.979594 0.135573 -0.695001
C76   C     C_3   0.208406 0.851711 0.762063 -0.684077
C77   C     C_3   0.891701 0.656896 0.200078 -0.631583
C78   C     C_R   0.953173 0.203791 0.817581 0.387562
C79   C     C_3   0.069092 0.041530 0.921947 -0.636743
C80   C     C_R   0.940215 0.084619 0.181244 0.111580
Cl1   Cl    Cl    0.145994 0.136955 0.390871 -0.387613
Cl2   Cl    Cl    0.984265 0.147052 0.682735 -0.389051
Cl3   Cl    Cl    0.861308 0.164081 0.255175 -0.444605
Cl4   Cl    Cl    0.998622 0.863036 0.671546 -0.474448
Cl5   Cl    Cl    0.856889 0.873522 0.392587 -0.429852
Cl6   Cl    Cl    0.295630 0.121581 0.691077 -0.432424
Cl7   Cl    Cl    0.140747 0.288316 0.185015 -0.400345
Cl8   Cl    Cl    0.882500 0.860273 0.899729 -0.466400
Cl9   Cl    Cl    0.130159 0.854364 0.105806 -0.444521
Cl10  Cl    Cl    0.891286 0.294065 0.813912 -0.383294
Cl11  Cl    Cl    0.847273 0.171872 0.120280 -0.529463
Cl12  Cl    Cl    0.701145 0.873320 0.691656 -0.396668
Cl13  Cl    Cl    0.116119 0.696190 0.803402 -0.510178
Cl14  Cl    Cl    0.290312 0.871461 0.311694 -0.400697
Cl15  Cl    Cl    0.852909 0.133735 0.610689 -0.385451
Cl16  Cl    Cl    0.707421 0.130952 0.310128 -0.415148
Cl17  Cl    Cl    0.137981 0.870663 0.603802 -0.411102
Cl18  Cl    Cl    0.017536 0.151256 0.317578 -0.404778
Cl19  Cl    Cl    0.853896 0.840323 0.746875 -0.392737
Cl20  Cl    Cl    0.986924 0.858499 0.320307 -0.490316
Cl21  Cl    Cl    0.141393 0.157043 0.745065 -0.459665
Cl22  Cl    Cl    0.167642 0.137098 0.240626 -0.414191
Cl23  Cl    Cl    0.857849 0.984805 0.825832 -0.448462
Cl24  Cl    Cl    0.147910 0.984088 0.177753 -0.443567
Cl25  Cl    Cl    0.842500 0.140461 0.762123 -0.419980
Cl26  Cl    Cl    0.138760 0.840621 0.254757 -0.407349
H1    H     H_    0.810584 0.909628 0.222089 0.232761
H2    H     H_    0.844674 0.917172 0.141139 0.220713
H3    H     H_    0.933546 0.973609 0.120130 0.243308
H4    H     H_    0.828526 0.010363 0.112195 0.301361
H5    H     H_    0.113572 0.795827 0.726353 0.325790
H6    H     H_    0.238907 0.904857 0.745478 0.225092
H7    H     H_    0.243046 0.795030 0.752870 0.292614
H8    H     H_    0.213399 0.860164 0.798430 0.253635
H9    H     H_    0.837218 0.733143 0.153478 0.239254
H10   H     H_    0.834758 0.618727 0.204996 0.249690
H11   H     H_    0.924276 0.663167 0.232266 0.272181
H12   H     H_    0.782583 0.834457 0.292504 0.234759
H13   H     H_    0.933080 0.624440 0.176437 0.235227
H14   H     H_    0.117682 0.160166 0.915599 0.239010
H15   H     H_    0.109798 0.030606 0.950919 0.248235
H16   H     H_    0.067126 0.984108 0.901757 0.249936
H17   H     H_    0.005315 0.056016 0.933824 0.258669
H18   H     H_    0.864534 0.765651 0.276418 0.290553
H19   H     H_    0.770024 0.774615 0.243614 0.245269
H20   H     H_    0.141809 0.983146 0.792033 0.240129
H21   H     H_    0.264975 0.034834 0.806659 0.236594
H22   H     H_    0.236462 0.026774 0.863896 0.249729
H23   H     H_    0.217253 0.121006 0.833454 0.275448
H24   H     H_    0.818167 0.044511 0.187804 0.290507
N1    N     N_2   0.854041 0.875416 0.238752 -0.326444
N2    N     N_2   0.136204 0.018716 0.819413 -0.323393
N3    N     N_2   0.875588 0.024154 0.177313 -0.317901
N4    N     N_2   0.122314 0.845301 0.747454 -0.296346
N5    N     N_2   0.868439 0.736993 0.183179 -0.315948
N6    N     N_2   0.102048 0.109667 0.896435 -0.304582
O1    O     O_R   0.591150 0.068800 0.545430 -0.593195
O2    O     O_R   0.934420 0.403170 0.956590 -0.586543
O3    O     O_R   0.928990 0.412290 0.044840 -0.597074
O4    O     O_R   0.071010 0.587710 0.955160 -0.601134
O5    O     O_R   0.069930 0.417270 0.047240 -0.599523
O6    O     O_R   0.930070 0.582730 0.952760 -0.590648
O7    O     O_R   0.924640 0.591850 0.041010 -0.617640
O8    O     O_R   0.075360 0.408150 0.958990 -0.612031
O9    O     O_R   0.408850 0.931200 0.454570 -0.595804
O10   O     O_R   0.588750 0.931200 0.454570 -0.598627
O11   O     O_R   0.411250 0.068800 0.545430 -0.592312
O12   O     O_R   0.590220 0.070350 0.455860 -0.592651
O13   O     O_R   0.409780 0.929650 0.544140 -0.598314
O14   O     O_R   0.589680 0.929650 0.544140 -0.595839
O15   O     O_R   0.410320 0.070350 0.455860 -0.594018
O16   O     O_R   0.065580 0.596830 0.043410 -0.586698
Zn1   Zn    Zn3+2 0.500990 0.093570 0.500870 1.133843
Zn2   Zn    Zn3+2 0.499010 0.906430 0.499130 1.121952
Zn3   Zn    Zn3+2 0.094790 0.503330 0.001610 1.092527
Zn4   Zn    Zn3+2 0.905210 0.496670 0.998390 1.096229

loop_
_geom_bond_atom_site_label_1
_geom_bond_atom_site_label_2
_ccdc_geom_bond_type
C58   O3    A    
C11   Cl16  S    
C73   N1    S    
C40   C60   A    
C3    Cl11  S    
C74   N2    S    
C66   Cl22  S    
C68   Cl23  S    
C41   C61   A    
C14   C31   S    
C63   Cl21  S    
C70   Cl8   S    
C63   C65   A    
O7    Zn4   S    
C55   O16   A    
C47   C49   T    
C78   Cl10  S    
C15   C19   S    
C6    C19   A    
C79   H15   S    
C1    C46   S    
C2    N4    S    
C29   C47   S    
C6    Cl2   S    
C50   C59   S    
O3    Zn4   S    
C30   C48   S    
C17   O11   A    
C77   H11   S    
C40   Cl18  S    
C9    C22   A    
C66   C69   A    
C11   C25   A    
C67   Cl9   S    
C56   C78   A    
C16   O10   A    
C34   C35   A    
C17   C39   S    
C3    C29   A    
C18   C40   A    
C62   C64   A    
C21   C43   S    
C74   H22   S    
C59   O6    A    
C23   C33   A    
C65   Cl6   S    
C45   C67   A    
C76   H8    S    
C41   Cl19  S    
C34   N6    S    
C14   C27   S    
C20   C60   A    
C77   H10   S    
C21   C61   A    
C69   Cl7   S    
C61   Cl12  S    
C31   C71   A    
C75   H2    S    
C12   O15   A    
C8    Cl15  S    
C42   C44   T    
C3    C80   A    
C30   C70   A    
C52   C54   T    
C72   N2    S    
C29   C69   A    
C5    Cl26  S    
C53   C55   S    
C79   H16   S    
C75   H3    S    
C55   O7    A    
C23   C71   A    
C15   C32   S    
H1    N1    S    
C27   C80   A    
C5    C7    A    
C76   N4    S    
O5    Zn3   S    
C6    C8    A    
C5    C18   A    
O4    Zn3   S    
C10   C24   A    
C79   H17   S    
C80   N3    S    
C51   C53   T    
C25   C64   A    
C12   O9    A    
C2    C4    A    
O13   Zn2   S    
C79   N6    S    
C45   Cl24  S    
C22   C62   A    
C60   Cl1   S    
C74   H21   S    
O10   Zn2   S    
O16   Zn3   S    
H20   N2    S    
C76   H6    S    
C73   H18   S    
C76   H7    S    
O1    Zn1   S    
C1    O14   A    
C26   C37   S    
C48   C50   T    
C9    C11   A    
C9    Cl3   S    
C62   Cl20  S    
O9    Zn2   S    
C15   C24   S    
C24   C63   A    
O14   Zn2   S    
C13   C26   A    
H24   N3    S    
O12   Zn1   S    
C34   C72   A    
C64   Cl5   S    
C1    O1    A    
C33   C67   A    
O2    Zn4   S    
C7    Cl14  S    
C75   H4    S    
C73   H12   S    
C57   O8    A    
C28   C68   A    
C26   C65   A    
C14   C18   S    
C17   O13   A    
C77   H13   S    
C10   C13   A    
C8    C21   A    
C20   C42   S    
C75   N3    S    
H5    N4    S    
C33   C51   S    
C35   C78   A    
C23   N5    S    
C16   O12   A    
O6    Zn4   S    
C14   C22   S    
O8    Zn3   S    
C36   C38   T    
C37   C39   T    
C27   C66   A    
C58   O5    A    
C15   C28   S    
H9    N5    S    
C59   O4    A    
C73   H19   S    
C10   Cl4   S    
C57   O2    A    
O15   Zn1   S    
C13   Cl17  S    
O11   Zn1   S    
C43   C46   T    
C56   Cl25  S    
C49   C58   S    
C25   C36   S    
C71   N1    S    
C4    Cl13  S    
C68   C70   A    
C7    C20   A    
C31   C45   A    
C74   H23   S    
C35   C52   S    
C12   C44   S    
C2    C28   A    
C77   N5    S    
H14   N6    S    
C32   C56   A    
C4    C30   A    
C19   C41   A    
C16   C38   S    
C32   C72   A    
C54   C57   S    
