data_mof_unit_22903.cif
_audit_creation_date              2012-12-10T19:42:31-0500
_audit_creation_method            fapswitch 2.2
_symmetry_space_group_name_H-M    P1
_symmetry_Int_Tables_number       1
_space_group_crystal_system       triclinic
_cell_length_a                    10.994446
_cell_length_b                    11.041792
_cell_length_c                    10.005119
_cell_angle_alpha                 99.19003
_cell_angle_beta                  100.173059
_cell_angle_gamma                 87.759891
_cell_volume                      1180.09074149

loop_
_atom_site_label
_atom_site_type_symbol
_atom_type_description
_atom_site_fract_x
_atom_site_fract_y
_atom_site_fract_z
_atom_type_partial_charge
C1    C     C_R   0.502745 0.262439 0.499446 0.797106
C2    C     C_R   0.498870 0.737708 0.499436 0.802446
C3    C     C_R   0.873220 0.497007 0.505905 -0.063090
C4    C     C_R   0.128390 0.489566 0.497405 -0.069261
C5    C     C_R   0.960158 0.470472 0.620609 0.037937
C6    C     C_R   0.041449 0.521067 0.386452 0.044471
C7    C     C_R   0.516512 0.144644 0.031072 -0.230605
C8    C     C_R   0.522183 0.849658 0.958555 -0.234489
C9    C     C_R   0.473052 0.122284 0.147997 0.241002
C10   C     C_R   0.551606 0.881634 0.838486 0.245464
C11   C     C_R   0.555974 0.078431 0.255028 0.042263
C12   C     C_R   0.457095 0.920897 0.740581 0.039044
C13   C     C_R   0.680489 0.059495 0.243472 -0.276949
C14   C     C_R   0.335041 0.925918 0.760739 -0.249156
C15   C     C_R   0.722672 0.081292 0.126729 0.214582
C16   C     C_R   0.305805 0.893836 0.879234 0.267403
C17   C     C_R   0.640203 0.121717 0.019002 -0.128403
C18   C     C_R   0.399639 0.857574 0.979904 -0.187814
C19   C     C_R   0.515134 0.916365 0.380226 -0.191853
C20   C     C_R   0.484933 0.083686 0.612967 -0.234527
C21   C     C_R   0.498797 0.872173 0.498938 -0.084851
C22   C     C_R   0.502438 0.128120 0.495469 -0.089176
C23   C     C_R   0.262633 0.496156 0.499491 0.794494
C24   C     C_R   0.737964 0.499442 0.501508 0.792027
C25   C     C_R   0.483403 0.958089 0.615636 0.038828
C26   C     C_R   0.516873 0.042729 0.376545 0.058395
C27   C     C_2   0.500520 0.514541 0.079009 -0.092506
C28   C     C_2   0.490198 0.493106 0.920025 -0.020287
C29   C     C_R   0.173606 0.737422 0.201060 0.576062
C30   C     C_R   0.827686 0.446135 0.939038 0.563086
C31   C     C_R   0.107770 0.691594 0.290726 -0.281689
C32   C     C_R   0.870446 0.410582 0.814504 -0.132649
C33   C     C_R   0.080579 0.567525 0.272526 0.045879
C34   C     C_R   0.929722 0.495654 0.758999 0.007932
C35   C     C_R   0.108946 0.487462 0.158825 -0.076862
C36   C     C_R   0.950276 0.614628 0.829498 -0.094473
C37   C     C_R   0.168782 0.532023 0.065639 -0.193188
C38   C     C_R   0.909347 0.651084 0.953070 -0.133004
C39   C     C_R   0.201821 0.655364 0.087288 -0.145855
C40   C     C_R   0.845597 0.569511 0.005985 -0.274764
C41   C     C_R   0.917110 0.531435 0.396021 -0.268374
C42   C     C_R   0.086276 0.463475 0.613404 -0.232215
Cu1   Cu    Cu3+1 0.521120 0.521140 0.639640 0.981485
Cu2   Cu    Cu3+1 0.478880 0.478860 0.360360 0.961833
H1    H     H_    0.248737 0.685537 0.013205 0.143779
H2    H     H_    0.808818 0.606695 0.096865 0.116047
H3    H     H_    0.745202 0.028252 0.326233 0.171550
H4    H     H_    0.262571 0.955953 0.684344 0.149488
H5    H     H_    0.530831 0.852223 0.290764 0.146450
H6    H     H_    0.471077 0.147126 0.703698 0.157303
H7    H     H_    0.426229 0.423237 0.862861 0.147126
H8    H     H_    0.557847 0.590076 0.135363 0.147640
H9    H     H_    0.612156 0.619116 0.905803 0.208714
H10   H     H_    0.392512 0.377446 0.093325 0.212693
H11   H     H_    0.081584 0.749021 0.379513 0.131878
H12   H     H_    0.852659 0.318900 0.758330 0.149436
H13   H     H_    0.088918 0.390657 0.145420 0.168373
H14   H     H_    0.994095 0.680119 0.784656 0.185056
H15   H     H_    0.191179 0.470722 0.977375 0.137919
H16   H     H_    0.924172 0.743925 0.006560 0.211620
H17   H     H_    0.855170 0.574788 0.321437 0.136148
H18   H     H_    0.152257 0.447543 0.703344 0.148994
H19   H     H_    0.672786 0.140002 0.928404 0.218426
H20   H     H_    0.379696 0.838961 0.076043 0.193489
H21   H     H_    0.454024 0.178555 0.948696 0.146841
H22   H     H_    0.594317 0.821995 0.036659 0.142293
N1    N     N_2   0.447120 0.447110 0.150550 -0.279200
N2    N     N_2   0.552880 0.552890 0.849450 -0.274208
O1    O     O_R   0.517830 0.337490 0.617920 -0.583511
O2    O     O_R   0.482170 0.662510 0.382080 -0.588700
O3    O     O_R   0.482150 0.301790 0.382070 -0.562817
O4    O     O_R   0.517850 0.698210 0.617930 -0.555928
O5    O     O_R   0.337480 0.517860 0.617920 -0.592210
O6    O     O_R   0.662520 0.482140 0.382080 -0.607638
O7    O     O_R   0.301810 0.482160 0.382070 -0.550505
O8    O     O_R   0.698190 0.517840 0.617930 -0.554073
I1    I     I_    0.913868 0.072599 0.127652 -0.339811
I2    I     I_    0.118771 0.906984 0.896841 -0.334970
O9    O     O_3   0.212330 0.858810 0.218217 -0.568312
C43   C     C_3   0.200587 0.926904 0.347808 -0.221431
H23   H     H_    0.244397 0.878478 0.433562 0.117400
H24   H     H_    0.102007 0.949388 0.353329 0.184379
H25   H     H_    0.249728 0.014617 0.362678 0.216383
O10   O     O_3   0.760241 0.360938 0.983158 -0.600672
C44   C     C_3   0.775848 0.378410 0.127311 -0.266592
H26   H     H_    0.731762 0.464216 0.165371 0.167096
H27   H     H_    0.874576 0.369246 0.173087 0.182629
H28   H     H_    0.724092 0.311675 0.163756 0.215100
I3    I     I_    0.283331 0.159003 0.155425 -0.355005
I4    I     I_    0.736800 0.870392 0.803282 -0.384368

loop_
_geom_bond_atom_site_label_1
_geom_bond_atom_site_label_2
_ccdc_geom_bond_type
Cu1   O5    S    
C30   C32   A    
C5    C42   A    
C8    H22   S    
Cu1   O4    S    
C41   H17   S    
C18   H20   S    
C28   N2    D    
C44   H26   S    
C40   H2    S    
C1    O3    A    
C19   C21   A    
C36   H14   S    
C28   H7    S    
C20   C25   A    
Cu2   O3    S    
C7    C9    A    
C19   C26   A    
H9    N2    S    
C20   H6    S    
Cu1   N2    S    
C7    C17   A    
C6    C41   A    
C31   C33   A    
Cu2   O2    S    
C42   H18   S    
C34   C36   A    
C39   H1    S    
C1    C22   S    
Cu1   O1    S    
C3    C24   S    
C23   O5    A    
C43   H25   S    
C2    O4    A    
C44   H27   S    
O10   C44   S    
C4    C6    A    
C9    I3    S    
C13   H3    S    
C4    C23   S    
C24   O8    A    
C14   H4    S    
H10   N1    S    
C11   C26   S    
C1    O1    A    
C32   C34   A    
Cu2   O7    S    
Cu1   Cu2   S    
C7    H21   S    
C19   H5    S    
C29   O9    S    
C29   C31   A    
C5    C34   S    
C29   C39   A    
C2    C21   S    
C30   C40   A    
Cu2   O6    S    
C9    C11   A    
C37   H15   S    
C10   C12   A    
C38   H16   S    
C43   H24   S    
C12   C14   A    
C13   C15   A    
C14   C16   A    
C23   O7    A    
C27   H8    S    
C44   H28   S    
Cu1   O8    S    
C15   C17   A    
C21   C25   A    
C3    C41   A    
C35   C37   A    
C8    C10   A    
C20   C22   A    
C43   H23   S    
C3    C5    A    
C6    C33   S    
C12   C25   S    
C35   H13   S    
C36   C38   A    
C37   C39   A    
C17   H19   S    
C38   C40   A    
C11   C13   A    
C24   O6    A    
C15   I1    S    
C4    C42   A    
C33   C35   A    
C16   I2    S    
C30   O10   S    
C8    C18   A    
C27   N1    D    
O9    C43   S    
C10   I4    S    
C16   C18   A    
C22   C26   A    
C27   C28   S    
Cu2   N1    S    
C31   H11   S    
C2    O2    A    
C32   H12   S    
