data_mof_unit_43975.cif
_audit_creation_date              2012-12-11T14:58:35-0500
_audit_creation_method            fapswitch 2.2
_symmetry_space_group_name_H-M    P1
_symmetry_Int_Tables_number       1
_space_group_crystal_system       triclinic
_cell_length_a                    10.946238
_cell_length_b                    11.022321
_cell_length_c                    18.809028
_cell_angle_alpha                 90.518532
_cell_angle_beta                  90.389526
_cell_angle_gamma                 59.530083
_cell_volume                      1955.86874578

loop_
_atom_site_label
_atom_site_type_symbol
_atom_type_description
_atom_site_fract_x
_atom_site_fract_y
_atom_site_fract_z
_atom_type_partial_charge
C1    C     C_R   0.359108 0.772224 0.397762 0.545541
C2    C     C_R   0.246316 0.434835 0.201102 -0.154139
C3    C     C_R   0.243172 0.445210 0.274950 -0.033356
C4    C     C_R   0.384031 0.353308 0.388519 0.533931
C5    C     C_R   0.880492 0.806126 0.366884 -0.111035
C6    C     C_R   0.922676 0.671486 0.391775 -0.104910
C7    C     C_R   0.040583 0.553801 0.362227 -0.049783
C8    C     C_R   0.118750 0.569906 0.307863 0.059439
C9    C     C_R   0.356882 0.336690 0.314065 -0.003351
C10   C     C_R   0.957054 0.300914 0.308408 -0.156804
C11   C     C_R   0.986572 0.293090 0.236324 -0.132229
C12   C     C_R   0.606381 0.093349 0.174168 0.034605
C13   C     C_R   0.876922 0.334984 0.186360 0.025828
C14   C     C_R   0.736691 0.395454 0.207884 -0.165159
C15   C     C_R   0.707201 0.401799 0.279780 -0.136628
C16   C     C_R   0.778225 0.378086 0.403394 0.533629
C17   C     C_R   0.817419 0.354292 0.329776 0.038952
C18   C     C_R   0.473667 0.761776 0.284589 -0.129653
C19   C     C_R   0.462184 0.781789 0.210989 0.187543
C20   C     C_R   0.329614 0.875581 0.182397 0.065207
C21   C     C_R   0.210982 0.948226 0.227163 -0.193822
C22   C     C_R   0.221334 0.922934 0.299072 -0.167153
C23   C     C_R   0.357429 0.319716 0.165643 0.006972
C24   C     C_R   0.351745 0.826775 0.327565 0.002649
C25   C     C_R   0.390113 0.198137 0.693393 -0.134854
C26   C     C_R   0.381022 0.185374 0.765490 -0.121960
C27   C     C_R   0.297373 0.304892 0.807906 0.036400
C28   C     C_R   0.344245 0.768881 0.604785 0.546015
C29   C     C_R   0.213201 0.436180 0.776462 -0.137062
C30   C     C_R   0.224104 0.449567 0.703716 -0.127922
C31   C     C_R   0.318527 0.331181 0.662850 0.029965
C32   C     C_R   0.742849 0.474884 0.732051 -0.122388
C33   C     C_R   0.754180 0.461540 0.804893 -0.128464
C34   C     C_R   0.468834 0.222641 0.278187 -0.152100
C35   C     C_R   0.815452 0.328219 0.835553 0.030802
C36   C     C_R   0.849505 0.210022 0.792598 -0.128221
C37   C     C_R   0.832889 0.224517 0.718926 -0.133569
C38   C     C_R   0.785105 0.356554 0.688232 0.035551
C39   C     C_R   0.202716 0.827663 0.713882 -0.137045
C40   C     C_R   0.367933 0.350623 0.595113 0.546395
C41   C     C_R   0.195743 0.837682 0.787057 -0.140616
C42   C     C_R   0.303525 0.841925 0.825335 0.036340
C43   C     C_R   0.420809 0.831238 0.789586 -0.144494
C44   C     C_R   0.427249 0.822288 0.716184 -0.148126
C45   C     C_R   0.475177 0.215056 0.205099 -0.033795
C46   C     C_R   0.319695 0.817589 0.677994 0.036856
C47   C     C_R   0.912989 0.315938 0.112270 0.547661
C48   C     C_R   0.329180 0.292341 0.093102 0.544924
C49   C     C_R   0.304827 0.903693 0.106754 0.588277
C50   C     C_R   0.879669 0.310142 0.905673 0.549999
C51   C     C_R   0.292101 0.283696 0.883403 0.553917
C52   C     C_R   0.756719 0.380496 0.612274 0.547145
C53   C     C_R   0.276449 0.893116 0.898055 0.550914
C54   C     C_R   0.853762 0.863998 0.116598 -0.125833
C55   C     C_R   0.856791 0.979752 0.144512 -0.114431
C56   C     C_R   0.074754 0.706190 0.283028 -0.075952
C57   C     C_R   0.734395 0.092542 0.173769 -0.113965
C58   C     C_R   0.956632 0.823452 0.312671 -0.096632
C59   C     C_R   0.608735 0.970757 0.152565 -0.027687
C60   C     C_R   0.729412 0.859196 0.120730 -0.097229
Cr1   Cr    Cr6+3 0.601770 0.606860 0.505860 0.995297
Cr2   Cr    Cr6+3 0.291380 0.601660 0.495070 1.020907
Cr3   Cr    Cr6+3 0.606880 0.291510 0.499120 1.010045
Cr4   Cr    Cr6+3 0.062440 0.063090 0.008210 1.004790
Cr5   Cr    Cr6+3 0.062880 0.375170 0.998920 1.013447
Cr6   Cr    Cr6+3 0.374700 0.061720 0.992470 1.023397
H1    H     H_    0.557789 0.139799 0.307088 0.145820
H2    H     H_    0.107925 0.021753 0.205941 0.134551
H3    H     H_    0.727681 0.768940 0.099219 0.169038
H4    H     H_    0.127048 0.973728 0.331808 0.132003
H5    H     H_    0.461321 0.105465 0.662570 0.124933
H6    H     H_    0.442334 0.081393 0.788146 0.135451
H7    H     H_    0.144433 0.528224 0.808229 0.119958
H8    H     H_    0.167030 0.553695 0.680703 0.131443
H9    H     H_    0.700977 0.578850 0.710086 0.133704
H10   H     H_    0.725648 0.554486 0.836836 0.127557
H11   H     H_    0.897548 0.105741 0.815245 0.129878
H12   H     H_    0.789254 0.897105 0.389855 0.110511
H13   H     H_    0.861299 0.132807 0.686054 0.119295
H14   H     H_    0.118460 0.823005 0.685783 0.124429
H15   H     H_    0.924482 0.927972 0.293927 0.110082
H16   H     H_    0.103168 0.847718 0.813217 0.122984
H17   H     H_    0.504903 0.835478 0.818089 0.117430
H18   H     H_    0.518238 0.814849 0.689567 0.114312
H19   H     H_    0.948190 0.777070 0.093339 0.113163
H20   H     H_    0.954256 0.981027 0.144422 0.154935
H21   H     H_    0.740710 0.175885 0.198616 0.123438
H22   H     H_    0.132663 0.721762 0.241109 0.113224
H23   H     H_    0.864486 0.658529 0.434374 0.131237
H24   H     H_    0.514691 0.966089 0.159348 0.168676
H25   H     H_    0.156369 0.513987 0.171218 0.135182
H26   H     H_    0.663619 0.662762 0.195694 0.327314
H27   H     H_    0.072571 0.450588 0.382701 0.097897
H28   H     H_    0.041969 0.265206 0.347018 0.096586
H29   H     H_    0.095088 0.251760 0.219264 0.119824
H30   H     H_    0.651701 0.430560 0.169238 0.153057
H31   H     H_    0.598188 0.445489 0.296640 0.128332
H32   H     H_    0.575415 0.687196 0.307376 0.137000
O1    O     O_R   0.748800 0.497470 0.428000 -0.531357
O2    O     O_R   0.417600 0.174890 0.067840 -0.516107
O3    O     O_R   0.375320 0.946260 0.070860 -0.495162
O4    O     O_R   0.476420 0.724060 0.429470 -0.512107
O5    O     O_R   0.160600 0.919630 0.926660 -0.523340
O6    O     O_R   0.933060 0.190520 0.936020 -0.501641
O7    O     O_R   0.908880 0.403460 0.925020 -0.520104
O8    O     O_R   0.179600 0.361450 0.918490 -0.501405
O9    O     O_R   0.391510 0.170860 0.907530 -0.526118
O10   O     O_R   0.351130 0.942530 0.922260 -0.509171
O11   O     O_3   0.166667 0.166667 0.999870 -0.257218
O12   O     O_R   0.300070 0.471040 0.567100 -0.510007
O13   O     O_R   0.264580 0.744340 0.416750 -0.504108
O14   O     O_R   0.309380 0.472470 0.418200 -0.494437
O15   O     O_R   0.501710 0.260430 0.414300 -0.532956
O16   O     O_R   0.728090 0.305600 0.428960 -0.502092
O17   O     O_R   0.738760 0.495930 0.588610 -0.530030
O18   O     O_R   0.467110 0.722640 0.578360 -0.509494
O19   O     O_R   0.254530 0.742800 0.577360 -0.529065
O20   O     O_3   0.576024 0.707221 0.166475 -0.739487
O21   O     O_R   0.491670 0.258900 0.574910 -0.520013
O22   O     O_R   0.718780 0.304180 0.577850 -0.500601
O23   O     O_3   0.500010 0.500010 0.500020 -0.248036
O24   O     O_R   0.186690 0.923650 0.086970 -0.550972
O25   O     O_R   0.957250 0.194250 0.084630 -0.520905
O26   O     O_R   0.934970 0.407490 0.085330 -0.508947
O27   O     O_R   0.203780 0.365190 0.067090 -0.511337

loop_
_geom_bond_atom_site_label_1
_geom_bond_atom_site_label_2
_ccdc_geom_bond_type
C25   C31   A    
Cr4   O5    S    
C50   O6    A    
C23   C45   A    
C27   C29   A    
C43   H17   S    
C41   C42   A    
C19   C20   A    
Cr6   O9    S    
C8    C56   A    
C32   H9    S    
C47   O26   A    
C7    C8    A    
C39   C41   A    
C54   C60   A    
C37   H13   S    
C28   C46   S    
C26   C27   A    
C29   C30   A    
C5    C58   A    
C18   C24   A    
C36   C37   A    
C37   C38   A    
C36   H11   S    
C42   C53   S    
C49   O3    A    
C30   C31   A    
C30   H8    S    
C56   H22   S    
C29   H7    S    
C10   H28   S    
C10   C17   A    
Cr6   O2    S    
C26   H6    S    
C31   C40   S    
Cr1   O23   S    
C18   C19   A    
Cr5   O26   S    
C14   H30   S    
H26   O20   S    
Cr2   O19   S    
C28   O18   A    
C48   O27   A    
C12   C59   A    
Cr2   O13   S    
C35   C36   A    
C19   O20   S    
C27   C51   S    
C16   C17   S    
Cr1   O17   S    
C50   O7    A    
C25   H5    S    
C32   C38   A    
C4    O14   A    
C59   C60   A    
C21   C22   A    
Cr3   O16   S    
Cr6   O3    S    
Cr1   O1    S    
C15   H31   S    
C48   O2    A    
Cr5   O7    S    
Cr3   O23   S    
C44   C46   A    
C7    H27   S    
C4    O15   A    
C3    C8    S    
C58   H15   S    
C13   C47   S    
C40   O12   A    
C25   C26   A    
C57   H21   S    
C59   H24   S    
Cr5   O27   S    
C43   C44   A    
C20   C49   S    
C3    C9    A    
Cr3   O21   S    
C33   H10   S    
C47   O25   A    
Cr2   O12   S    
C35   C50   S    
Cr2   O14   S    
C34   C45   A    
Cr5   O11   S    
C39   C46   A    
C12   C57   A    
C52   O22   A    
C55   C57   A    
C21   H2    S    
C9    C34   A    
C22   C24   A    
C42   C43   A    
Cr4   O25   S    
Cr5   O8    S    
C52   O17   A    
C11   H29   S    
C15   C17   A    
C54   C55   A    
C23   C48   S    
Cr1   O18   S    
Cr4   O6    S    
Cr6   O10   S    
C12   C45   S    
C44   H18   S    
C16   O16   A    
C34   H1    S    
C54   H19   S    
C16   O1    A    
C6    C7    A    
C6    H23   S    
C28   O19   A    
C32   C33   A    
C55   H20   S    
Cr1   O4    S    
C4    C9    S    
C41   H16   S    
C39   H14   S    
Cr3   O22   S    
C11   C13   A    
C53   O10   A    
Cr4   O11   S    
C5    C6    A    
C60   H3    S    
C53   O5    A    
C51   O8    A    
Cr4   O24   S    
C49   O24   A    
C33   C35   A    
C56   C58   A    
C2    C3    A    
Cr6   O11   S    
C2    H25   S    
C10   C11   A    
Cr3   O15   S    
C40   O21   A    
C38   C52   S    
C20   C21   A    
C1    C24   S    
C51   O9    A    
C2    C23   A    
C14   C15   A    
C18   H32   S    
C5    H12   S    
C13   C14   A    
C1    O4    A    
C22   H4    S    
Cr2   O23   S    
C1    O13   A    
