data_mof_unit_12985.cif
_audit_creation_date              2012-12-10T16:36:50-0500
_audit_creation_method            fapswitch 2.2
_symmetry_space_group_name_H-M    P1
_symmetry_Int_Tables_number       1
_space_group_crystal_system       triclinic
_cell_length_a                    14.162804
_cell_length_b                    16.461584
_cell_length_c                    15.172722
_cell_angle_alpha                 90.166453
_cell_angle_beta                  91.827625
_cell_angle_gamma                 89.940108
_cell_volume                      3535.58559699

loop_
_atom_site_label
_atom_site_type_symbol
_atom_type_description
_atom_site_fract_x
_atom_site_fract_y
_atom_site_fract_z
_atom_type_partial_charge
C1    C     C_R   0.679781 0.844971 0.519291 0.540164
C2    C     C_R   0.960168 0.473521 0.108463 0.227264
C3    C     C_R   0.613200 0.958797 0.129675 0.234757
C4    C     C_R   0.103860 0.553999 0.130396 0.239609
C5    C     C_R   0.625566 0.958927 0.038001 -0.008350
C6    C     C_R   0.103092 0.572215 0.039577 -0.016793
C7    C     C_2   0.247646 0.219457 0.475284 0.264224
C8    C     C_2   0.247770 0.780487 0.474710 0.257939
C9    C     C_2   0.743255 0.715631 0.481092 0.262611
C10   C     C_2   0.748526 0.279863 0.474274 0.266052
C11   C     C_2   0.754504 0.785549 0.526958 0.276346
C12   C     C_R   0.679453 0.155311 0.519725 0.529886
C13   C     C_2   0.752143 0.216285 0.530649 0.287216
C14   C     C_2   0.254452 0.285594 0.528121 0.283498
C15   C     C_2   0.252517 0.715944 0.529574 0.279819
C16   C     C_R   0.320453 0.156532 0.480442 0.529201
C17   C     C_R   0.319711 0.844098 0.481161 0.523915
C18   C     C_R   0.819542 0.655751 0.481521 0.527306
C19   C     C_R   0.819845 0.343983 0.481073 0.528603
C20   C     C_R   0.520678 0.998060 0.260681 0.541204
C21   C     C_R   0.020922 0.500780 0.260758 0.550211
C22   C     C_R   0.479913 0.000291 0.738400 0.583339
C23   C     C_R   0.179841 0.345104 0.519632 0.530170
C24   C     C_R   0.979795 0.499991 0.738566 0.595171
C25   C     C_R   0.529324 0.990015 0.164691 0.015120
C26   C     C_R   0.029959 0.507657 0.164931 0.013630
C27   C     C_R   0.476229 0.002318 0.833718 0.056919
C28   C     C_R   0.974410 0.499368 0.834060 0.064317
C29   C     C_R   0.394744 0.047319 0.961585 -0.090441
C30   C     C_R   0.891353 0.455009 0.961682 -0.090802
C31   C     C_R   0.400067 0.042705 0.870866 0.233141
C32   C     C_R   0.895899 0.461884 0.870556 0.226578
C33   C     C_R   0.549164 0.967699 0.887224 -0.046087
C34   C     C_R   0.179617 0.655195 0.519736 0.550621
C35   C     C_R   0.049877 0.528918 0.888523 -0.048518
C36   C     C_3   0.303732 0.981340 0.141961 -0.079165
C37   C     C_3   0.916642 0.347031 0.150441 -0.107693
C38   C     C_3   0.672441 0.851003 0.206169 -0.028126
C39   C     C_3   0.252701 0.540888 0.187992 -0.040048
C40   C     C_2   0.723361 0.950775 0.005563 0.257369
C41   C     C_2   0.155851 0.644793 0.008406 0.254465
C42   C     C_3   0.253655 0.026318 0.808444 -0.122520
C43   C     C_3   0.818921 0.349302 0.817300 -0.093890
C44   C     C_2   0.620892 0.914340 0.846617 0.208111
C45   C     C_R   0.547790 0.979077 0.980182 -0.118137
C46   C     C_2   0.144955 0.543598 0.851399 0.180038
C47   C     C_3   0.605290 0.644738 0.474597 -0.122947
C48   C     C_3   0.608246 0.333912 0.426612 -0.116433
C49   C     C_3   0.186789 0.229069 0.335184 -0.125228
C50   C     C_3   0.107224 0.835825 0.429874 -0.099761
C51   C     C_3   0.323790 0.356117 0.647282 -0.102113
C52   C     C_3   0.348340 0.634763 0.619554 -0.100808
C53   C     C_3   0.832733 0.856180 0.640102 -0.090619
C54   C     C_3   0.828710 0.138463 0.640355 -0.117110
C55   C     C_R   0.039690 0.529679 0.981353 -0.123715
C56   C     C_R   0.465305 0.013109 0.016652 -0.026101
C57   C     C_R   0.963650 0.485936 0.017248 -0.022715
C58   C     C_R   0.454267 0.014533 0.108049 0.221829
H1    H     H_    0.334897 0.078850 0.988416 0.169081
H2    H     H_    0.671378 0.812263 0.145880 0.140498
H3    H     H_    0.606265 0.842092 0.242540 0.098181
H4    H     H_    0.305259 0.567705 0.235374 0.154309
H5    H     H_    0.285028 0.539245 0.122141 0.131572
H6    H     H_    0.238217 0.477793 0.210023 0.094689
H7    H     H_    0.744836 0.986480 0.949667 0.117915
H8    H     H_    0.134208 0.674078 0.947076 0.130093
H9    H     H_    0.220269 0.015408 0.872760 0.112389
H10   H     H_    0.274611 0.967623 0.778008 0.120771
H11   H     H_    0.199733 0.054790 0.763761 0.147086
H12   H     H_    0.830107 0.426056 0.988716 0.172408
H13   H     H_    0.792424 0.326595 0.880816 0.102294
H14   H     H_    0.889083 0.321961 0.804074 0.139506
H15   H     H_    0.768936 0.328420 0.764199 0.176374
H16   H     H_    0.640420 0.857333 0.878027 0.126246
H17   H     H_    0.208010 0.530761 0.891504 0.109188
H18   H     H_    0.589478 0.665429 0.542519 0.121579
H19   H     H_    0.639279 0.583823 0.476653 0.123863
H20   H     H_    0.536853 0.638437 0.437584 0.147758
H21   H     H_    0.632781 0.397888 0.432698 0.129933
H22   H     H_    0.574383 0.314651 0.488385 0.135206
H23   H     H_    0.330563 0.926351 0.177294 0.151645
H24   H     H_    0.553329 0.331704 0.372874 0.150516
H25   H     H_    0.240931 0.188720 0.306545 0.154220
H26   H     H_    0.209528 0.293655 0.331424 0.108705
H27   H     H_    0.121079 0.222752 0.293967 0.140229
H28   H     H_    0.132475 0.899578 0.436148 0.139366
H29   H     H_    0.074392 0.816279 0.492051 0.137706
H30   H     H_    0.051309 0.834399 0.377008 0.168489
H31   H     H_    0.265758 0.334531 0.689105 0.131041
H32   H     H_    0.309813 0.418981 0.623604 0.106753
H33   H     H_    0.389322 0.357866 0.689274 0.150005
H34   H     H_    0.280419 0.964511 0.073706 0.103840
H35   H     H_    0.375301 0.605360 0.559109 0.094099
H36   H     H_    0.292347 0.597075 0.648765 0.154466
H37   H     H_    0.408071 0.638259 0.668506 0.146739
H38   H     H_    0.782136 0.829517 0.686664 0.155738
H39   H     H_    0.811261 0.918910 0.621249 0.125797
H40   H     H_    0.902440 0.860319 0.675271 0.145073
H41   H     H_    0.850926 0.094570 0.589041 0.127586
H42   H     H_    0.764705 0.116511 0.673512 0.130013
H43   H     H_    0.886676 0.142083 0.691127 0.139562
H44   H     H_    0.240720 0.003156 0.176642 0.155106
H45   H     H_    0.933198 0.320687 0.085060 0.096223
H46   H     H_    0.858024 0.311064 0.177341 0.170630
H47   H     H_    0.978589 0.340759 0.196935 0.098870
H48   H     H_    0.732029 0.830246 0.249721 0.172065
O1    O     O_3   0.500000 0.000000 0.500000 -0.474594
O2    O     O_R   0.885830 0.337110 0.539910 -0.497786
O3    O     O_R   0.692160 0.095230 0.468550 -0.538599
O4    O     O_R   0.692160 0.904770 0.468550 -0.539535
O5    O     O_R   0.192160 0.595230 0.468550 -0.548469
O6    O     O_R   0.192160 0.404770 0.468550 -0.570942
O7    O     O_R   0.316720 0.904790 0.427870 -0.540905
O8    O     O_R   0.316720 0.095210 0.427870 -0.537762
O9    O     O_R   0.816720 0.404790 0.427870 -0.536551
O10   O     O_R   0.816720 0.595210 0.427870 -0.533908
O11   O     O_R   0.594900 0.000000 0.310900 -0.494810
O12   O     O_3   0.000000 0.500000 0.500000 -0.473005
O13   O     O_R   0.094900 0.500000 0.310900 -0.530920
O14   O     O_R   0.483090 0.932320 0.697550 -0.520113
O15   O     O_R   0.483090 0.067680 0.697550 -0.504535
O16   O     O_R   0.983090 0.432320 0.697550 -0.542716
O17   O     O_R   0.983090 0.567680 0.697550 -0.495840
O18   O     O_R   0.438930 0.000000 0.294000 -0.517969
O19   O     O_R   0.938930 0.500000 0.294000 -0.485965
O20   O     O_3   0.371498 0.044397 0.142447 -0.562987
O21   O     O_3   0.887181 0.428697 0.142759 -0.541717
O22   O     O_3   0.686667 0.933597 0.185557 -0.497087
O23   O     O_R   0.605310 0.837110 0.563680 -0.542495
O24   O     O_3   0.170308 0.589376 0.187273 -0.482663
O25   O     O_2   0.780935 0.904943 0.040616 -0.468781
O26   O     O_2   0.221850 0.674344 0.051061 -0.470096
O27   O     O_3   0.331219 0.079607 0.817988 -0.553812
O28   O     O_3   0.821807 0.435016 0.816124 -0.569036
O29   O     O_2   0.661142 0.934850 0.780271 -0.548786
O30   O     O_2   0.154586 0.570980 0.777607 -0.513499
O31   O     O_3   0.661260 0.701686 0.430672 -0.599376
O32   O     O_3   0.682592 0.281263 0.404575 -0.585182
O33   O     O_3   0.167256 0.206490 0.422346 -0.586258
O34   O     O_R   0.605310 0.162890 0.563680 -0.552768
O35   O     O_3   0.180597 0.782883 0.406093 -0.577040
O36   O     O_3   0.338273 0.302894 0.575803 -0.582148
O37   O     O_3   0.315429 0.714304 0.602284 -0.566169
O38   O     O_3   0.842356 0.806751 0.564720 -0.586940
O39   O     O_3   0.813675 0.216742 0.604742 -0.585501
O40   O     O_R   0.105310 0.337110 0.563680 -0.536716
O41   O     O_R   0.105310 0.662890 0.563680 -0.522065
O42   O     O_R   0.385830 0.162890 0.539910 -0.499514
O43   O     O_R   0.385830 0.837110 0.539910 -0.507122
O44   O     O_R   0.885830 0.662890 0.539910 -0.514076
Zn1   Zn    Zn3+2 0.493670 0.096680 0.574000 0.983497
Zn2   Zn    Zn3+2 0.493670 0.903320 0.574000 0.977015
Zn3   Zn    Zn3+2 0.993670 0.596680 0.574000 0.998440
Zn4   Zn    Zn3+2 0.993670 0.403320 0.574000 0.971419
Zn5   Zn    Zn3+2 0.617760 0.000000 0.438070 0.979875
Zn6   Zn    Zn3+2 0.117760 0.500000 0.438070 0.944390
Zn7   Zn    Zn3+2 0.394920 0.000000 0.413930 0.948620
Zn8   Zn    Zn3+2 0.894920 0.500000 0.413930 0.975563

loop_
_geom_bond_atom_site_label_1
_geom_bond_atom_site_label_2
_ccdc_geom_bond_type
C43   H15   S    
C7    O33   S    
C21   C26   S    
C14   O36   S    
C43   H14   S    
C33   C45   A    
C54   H43   S    
C1    C11   S    
O42   Zn1   S    
C13   O39   S    
C6    C55   A    
C31   O27   S    
C2    C57   A    
C17   O7    A    
C27   C33   A    
C22   O14   A    
C39   H6    S    
C32   O28   S    
O10   Zn8   S    
O13   Zn6   S    
O12   Zn3   S    
C42   O27   S    
C48   H21   S    
C47   H18   S    
C1    O23   A    
C51   H32   S    
C20   C25   S    
C30   C57   A    
C52   H37   S    
C36   H44   S    
C12   O3    A    
O4    Zn5   S    
C30   H12   S    
C9    O31   S    
C7    C14   D    
C29   H1    S    
C28   C35   A    
C48   H24   S    
C6    C41   S    
O11   Zn5   S    
C12   O34   A    
O12   Zn6   S    
C8    O35   S    
C11   O38   S    
C36   H23   S    
C15   C34   S    
C50   O35   S    
C50   H30   S    
C38   H3    S    
O1    Zn1   S    
C2    O21   S    
C36   H34   S    
C44   O29   D    
C46   H17   S    
C53   H38   S    
C42   H10   S    
C34   O5    A    
O16   Zn4   S    
C54   H42   S    
O41   Zn3   S    
C20   O11   A    
O1    Zn7   S    
C52   H36   S    
C23   O40   A    
C17   O43   A    
O14   Zn2   S    
C52   O37   S    
O9    Zn8   S    
C35   C55   A    
C49   H27   S    
C28   C32   A    
C45   C56   A    
O23   Zn2   S    
C4    C6    A    
O43   Zn2   S    
C18   O10   A    
C37   H45   S    
O19   Zn8   S    
C4    O24   S    
C53   H39   S    
C27   C31   A    
O44   Zn3   S    
C42   H11   S    
O15   Zn1   S    
C14   C23   S    
C38   H48   S    
C43   O28   S    
O8    Zn7   S    
C37   H47   S    
C23   O6    A    
C1    O4    A    
C41   O26   D    
C34   O41   A    
C38   O22   S    
O40   Zn4   S    
C19   O9    A    
C10   C19   S    
O18   Zn7   S    
C47   O31   S    
C24   O16   A    
C52   H35   S    
C2    C26   A    
C44   H16   S    
C9    C11   D    
O34   Zn1   S    
C50   H29   S    
C54   O39   S    
C15   O37   S    
O1    Zn2   S    
C7    C16   S    
C29   C56   A    
C40   O25   D    
C58   O20   S    
C8    C15   D    
C40   H7    S    
C49   O33   S    
C42   H9    S    
C38   H2    S    
C54   H41   S    
O12   Zn8   S    
C25   C58   A    
C47   H19   S    
C21   O19   A    
C49   H26   S    
C22   O15   A    
O17   Zn3   S    
C51   O36   S    
C39   H4    S    
C43   H13   S    
C3    O22   S    
C33   C44   S    
C36   O20   S    
C24   C28   S    
O5    Zn6   S    
C3    C5    A    
C10   C13   D    
C16   O8    A    
C37   H46   S    
C4    C26   A    
C41   H8    S    
C39   O24   S    
C53   H40   S    
C39   H5    S    
C8    C17   S    
C48   O32   S    
C22   C27   S    
C53   O38   S    
C49   H25   S    
C55   C57   A    
C21   O13   A    
C19   O2    A    
C30   C32   A    
C48   H22   S    
C16   O42   A    
C5    C45   A    
C56   C58   A    
O12   Zn4   S    
C24   O17   A    
O3    Zn5   S    
O1    Zn5   S    
C20   O18   A    
C50   H28   S    
C46   O30   D    
C9    C18   S    
C3    C25   A    
O2    Zn4   S    
C12   C13   S    
C29   C31   A    
O6    Zn6   S    
C5    C40   S    
C51   H33   S    
C10   O32   S    
C47   H20   S    
O7    Zn7   S    
C18   O44   A    
C35   C46   S    
C51   H31   S    
C37   O21   S    
