data_mof_unit_23416.cif
_audit_creation_date              2012-10-26T19:04:18-0400
_audit_creation_method            fapswitch 2.2
_symmetry_space_group_name_H-M    P1
_symmetry_Int_Tables_number       1
_space_group_crystal_system       triclinic
_cell_length_a                    14.927964
_cell_length_b                    15.617501
_cell_length_c                    9.624096
_cell_angle_alpha                 90.493877
_cell_angle_beta                  89.171213
_cell_angle_gamma                 90.37405
_cell_volume                      2243.37351955

loop_
_atom_site_label
_atom_site_type_symbol
_atom_type_description
_atom_site_fract_x
_atom_site_fract_y
_atom_site_fract_z
_atom_type_partial_charge
C1    C     C_R   0.381553 0.881354 0.500014 0.523106
C2    C     C_R   0.774323 0.166608 0.513573 0.065720
C3    C     C_R   0.254992 0.311666 0.411292 0.074752
C4    C     C_R   0.274323 0.666608 0.513565 0.065717
C5    C     C_R   0.678791 0.807648 0.498376 0.041764
C6    C     C_R   0.683639 0.187264 0.500103 0.049053
C7    C     C_R   0.178791 0.307647 0.498376 0.041764
C8    C     C_R   0.183640 0.687263 0.500103 0.049055
C9    C     C_R   0.664150 0.007090 0.139696 -0.070154
C10   C     C_R   0.164151 0.507091 0.139696 -0.070152
C11   C     C_R   0.744672 0.012975 0.066270 -0.167801
C12   C     C_R   0.377974 0.115172 0.501273 0.516691
C13   C     C_R   0.244672 0.512975 0.066270 -0.167800
C14   C     C_R   0.745034 0.011256 0.923169 -0.167265
C15   C     C_R   0.245034 0.511256 0.923169 -0.167265
C16   C     C_R   0.664796 0.005054 0.852718 -0.072650
C17   C     C_R   0.164796 0.505054 0.852718 -0.072651
C18   C     C_R   0.580885 0.002804 0.923413 0.156590
C19   C     C_R   0.080885 0.502804 0.923413 0.156590
C20   C     C_R   0.580722 0.003257 0.072700 0.150600
C21   C     C_R   0.080722 0.503257 0.072700 0.150599
C22   C     C_R   0.423013 0.997143 0.075543 0.003662
C23   C     C_R   0.881553 0.381354 0.500014 0.523106
C24   C     C_R   0.923013 0.497144 0.075543 0.003662
C25   C     C_R   0.618663 0.118437 0.499885 0.576145
C26   C     C_R   0.616598 0.879355 0.499235 0.569890
C27   C     C_R   0.118663 0.618437 0.499885 0.576145
C28   C     C_R   0.116598 0.379355 0.499235 0.569890
C29   C     C_R   0.423051 0.997247 0.927819 0.001834
C30   C     C_R   0.923051 0.497247 0.927819 0.001834
C31   C     C_R   0.214529 0.098918 0.675732 -0.109111
C32   C     C_R   0.194723 0.924248 0.463654 -0.106241
C33   C     C_R   0.714527 0.598916 0.675726 -0.109111
C34   C     C_R   0.877974 0.615172 0.501273 0.516691
C35   C     C_R   0.694724 0.424248 0.463642 -0.106241
C36   C     C_R   0.136030 0.091203 0.754728 -0.123109
C37   C     C_R   0.104241 0.944810 0.455052 -0.120829
C38   C     C_R   0.636026 0.591200 0.754719 -0.123108
C39   C     C_R   0.604241 0.444810 0.455035 -0.120828
C40   C     C_R   0.570866 0.654060 0.748921 -0.125330
C41   C     C_R   0.539387 0.380623 0.464058 -0.123325
C42   C     C_R   0.070869 0.154063 0.748930 -0.125331
C43   C     C_R   0.039387 0.880622 0.464075 -0.123326
C44   C     C_R   0.584193 0.725428 0.665111 -0.112021
C45   C     C_R   0.317495 0.246858 0.413525 -0.149085
C46   C     C_R   0.564727 0.295396 0.478571 -0.100894
C47   C     C_R   0.084195 0.225430 0.665117 -0.112021
C48   C     C_R   0.064727 0.795395 0.478583 -0.100895
C49   C     C_R   0.664050 0.735747 0.585538 -0.005031
C50   C     C_R   0.656041 0.273165 0.486812 -0.001776
C51   C     C_R   0.164051 0.235747 0.585542 -0.005031
C52   C     C_R   0.156041 0.773165 0.486818 -0.001775
C53   C     C_R   0.229797 0.170763 0.589716 0.015029
C54   C     C_R   0.221601 0.838672 0.482871 0.014504
C55   C     C_R   0.729797 0.670762 0.589713 0.015029
C56   C     C_R   0.338093 0.731721 0.514076 -0.141609
C57   C     C_R   0.721601 0.338672 0.482865 0.014503
C58   C     C_R   0.307099 0.178226 0.503533 -0.023990
C59   C     C_R   0.312261 0.816720 0.499266 -0.009300
C60   C     C_R   0.807100 0.678226 0.503533 -0.023989
C61   C     C_R   0.812261 0.316720 0.499266 -0.009300
C62   C     C_R   0.817496 0.746859 0.413528 -0.149084
C63   C     C_R   0.838093 0.231721 0.514084 -0.141609
C64   C     C_R   0.754994 0.811668 0.411295 0.074752
Cu1   Cu    Cu3+1 0.499990 0.000000 0.640660 0.920118
Cu2   Cu    Cu3+1 0.999990 0.500000 0.640660 0.920117
Cu3   Cu    Cu3+1 0.500010 0.000000 0.359340 0.935080
Cu4   Cu    Cu3+1 0.000010 0.500000 0.359340 0.935081
H1    H     H_    0.376052 0.251460 0.345896 0.127362
H2    H     H_    0.859879 0.494934 0.874306 0.109214
H3    H     H_    0.261309 0.046726 0.680620 0.130106
H4    H     H_    0.243242 0.975686 0.455322 0.113806
H5    H     H_    0.761307 0.546724 0.680614 0.130105
H6    H     H_    0.743242 0.475686 0.455311 0.113807
H7    H     H_    0.125098 0.035424 0.818948 0.114258
H8    H     H_    0.084392 0.010804 0.442266 0.119399
H9    H     H_    0.625094 0.535420 0.818937 0.114258
H10   H     H_    0.584393 0.510804 0.442246 0.119398
H11   H     H_    0.509227 0.647119 0.808551 0.111370
H12   H     H_    0.408170 0.715682 0.524047 0.103048
H13   H     H_    0.469259 0.396911 0.459635 0.104574
H14   H     H_    0.009231 0.147123 0.808563 0.111370
H15   H     H_    0.969259 0.896910 0.459657 0.104576
H16   H     H_    0.530183 0.770865 0.661641 0.143126
H17   H     H_    0.512510 0.247356 0.484788 0.120958
H18   H     H_    0.030185 0.270866 0.661647 0.143127
H19   H     H_    0.012510 0.747356 0.484801 0.120958
H20   H     H_    0.359806 0.994822 0.131852 0.119220
H21   H     H_    0.859806 0.494822 0.131852 0.119220
H22   H     H_    0.671072 0.004254 0.248774 0.222182
H23   H     H_    0.876055 0.751462 0.345901 0.127362
H24   H     H_    0.171072 0.504254 0.248774 0.222183
H25   H     H_    0.807425 0.016955 0.121106 0.125137
H26   H     H_    0.307425 0.516955 0.121106 0.125136
H27   H     H_    0.830856 0.912117 0.348759 0.214310
H28   H     H_    0.777637 0.859076 0.220093 0.235867
H29   H     H_    0.836514 0.073257 0.618674 0.219581
H30   H     H_    0.846131 0.065445 0.443992 0.222536
H31   H     H_    0.330853 0.412114 0.348748 0.214310
H32   H     H_    0.277631 0.359071 0.220087 0.235868
H33   H     H_    0.336516 0.573255 0.618656 0.219583
H34   H     H_    0.908170 0.215682 0.524060 0.103047
H35   H     H_    0.346129 0.565447 0.443974 0.222537
H36   H     H_    0.808048 0.013775 0.866126 0.116698
H37   H     H_    0.308048 0.513775 0.866126 0.116698
H38   H     H_    0.672954 0.001815 0.743163 0.202635
H39   H     H_    0.172954 0.501815 0.743163 0.202633
H40   H     H_    0.359879 0.994933 0.874307 0.109213
N1    N     N_R   0.501200 0.000000 0.147910 -0.247702
N2    N     N_R   0.001200 0.500000 0.147910 -0.247702
N3    N     N_R   0.501270 0.000000 0.852040 -0.245860
N4    N     N_R   0.001270 0.500000 0.852040 -0.245860
N5    N     N_3   0.770466 0.882801 0.321562 -0.637970
N6    N     N_3   0.801595 0.079177 0.525901 -0.643870
N7    N     N_3   0.270462 0.382798 0.321555 -0.637969
N8    N     N_3   0.301596 0.579177 0.525886 -0.643873
O1    O     O_R   0.409820 0.909830 0.618810 -0.515954
O2    O     O_R   0.590170 0.909830 0.618760 -0.536494
O3    O     O_R   0.090170 0.590170 0.618760 -0.509531
O4    O     O_R   0.090170 0.409830 0.618760 -0.536495
O5    O     O_R   0.590190 0.090180 0.381190 -0.521727
O6    O     O_R   0.590190 0.909820 0.381190 -0.486594
O7    O     O_R   0.090190 0.590180 0.381190 -0.521725
O8    O     O_R   0.090190 0.409820 0.381190 -0.486592
O9    O     O_R   0.409820 0.090170 0.618810 -0.504809
O10   O     O_R   0.909820 0.409830 0.618810 -0.515954
O11   O     O_R   0.909820 0.590170 0.618810 -0.504809
O12   O     O_R   0.409840 0.909830 0.381240 -0.501572
O13   O     O_R   0.409840 0.090170 0.381240 -0.508324
O14   O     O_R   0.909840 0.409830 0.381240 -0.501572
O15   O     O_R   0.909840 0.590170 0.381240 -0.508324
O16   O     O_R   0.590170 0.090170 0.618760 -0.509529

loop_
_geom_bond_atom_site_label_1
_geom_bond_atom_site_label_2
_ccdc_geom_bond_type
C44   C49   A    
C33   C55   A    
Cu2   Cu4   S    
C35   H6    S    
C22   C29   A    
C5    C26   S    
C43   H15   S    
C36   C42   A    
C42   H14   S    
C1    O12   A    
C4    C8    A    
C24   H21   S    
Cu4   O8    S    
C21   N2    A    
C32   H4    S    
C2    C6    A    
C19   N4    A    
C19   C21   A    
C3    C7    A    
C1    C59   S    
H31   N7    S    
C11   C14   A    
H30   N6    S    
C6    C25   S    
Cu2   O11   S    
C60   C62   A    
C61   C63   A    
Cu1   N3    S    
C62   C64   A    
Cu3   N1    S    
C34   O11   A    
Cu1   Cu3   S    
Cu1   O2    S    
C29   H40   S    
C22   H20   S    
C43   C48   A    
C8    C52   A    
C40   C44   A    
C16   H38   S    
C46   H17   S    
C12   C58   S    
C11   H25   S    
C31   H3    S    
C10   H24   S    
Cu2   O4    S    
C55   C60   A    
C4    C56   A    
C34   C60   S    
C5    C49   A    
Cu3   O13   S    
H32   N7    S    
C63   H34   S    
Cu3   O5    S    
Cu4   O7    S    
C32   C54   A    
C30   H2    S    
C52   C54   A    
C54   C59   A    
C10   C21   A    
C45   C58   A    
C48   H19   S    
C12   O13   A    
C45   H1    S    
C39   H10   S    
C24   N2    A    
C18   N3    A    
C39   C41   A    
C28   O4    A    
C27   O7    A    
C47   C51   A    
C12   O9    A    
C49   C55   A    
C3    C45   A    
C31   C53   A    
C7    C28   S    
Cu2   O10   S    
C23   O14   A    
C30   N4    A    
C51   C53   A    
Cu1   O9    S    
C37   C43   A    
Cu4   O15   S    
C35   C39   A    
C47   H18   S    
C36   H7    S    
C9    C20   A    
C14   H36   S    
C23   C61   S    
C41   C46   A    
C22   N1    A    
C41   H13   S    
C62   H23   S    
C40   H11   S    
Cu4   N2    S    
C32   C37   A    
C6    C50   A    
Cu4   O14   S    
C9    C11   A    
C23   O10   A    
C33   H5    S    
C37   H8    S    
C34   O15   A    
Cu2   O3    S    
C13   C15   A    
C14   C16   A    
H28   N5    S    
Cu3   O6    S    
Cu1   O16   S    
C2    C63   A    
C15   C17   A    
H33   N8    S    
C64   N5    S    
C50   C57   A    
C4    N8    S    
C26   O2    A    
C44   H16   S    
C10   C13   A    
C9    H22   S    
C53   C58   A    
C28   O8    A    
C57   C61   A    
C38   H9    S    
C27   O3    A    
C46   C50   A    
C33   C38   A    
C56   H12   S    
C56   C59   A    
C13   H26   S    
C35   C57   A    
C15   H37   S    
C17   H39   S    
H35   N8    S    
C7    C51   A    
C3    N7    S    
Cu3   O12   S    
C38   C40   A    
C2    N6    S    
H27   N5    S    
C17   C19   A    
C18   C20   A    
C42   C47   A    
C29   N3    A    
C24   C30   A    
C20   N1    A    
C48   C52   A    
C5    C64   A    
C16   C18   A    
C8    C27   S    
Cu1   O1    S    
C31   C36   A    
C26   O6    A    
Cu2   N4    S    
H29   N6    S    
C1    O1    A    
C25   O16   A    
C25   O5    A    
