data_mof_unit_23378.cif
_audit_creation_date              2012-12-11T16:10:54-0500
_audit_creation_method            fapswitch 2.2
_symmetry_space_group_name_H-M    P1
_symmetry_Int_Tables_number       1
_space_group_crystal_system       triclinic
_cell_length_a                    12.793438
_cell_length_b                    13.285167
_cell_length_c                    26.91525
_cell_angle_alpha                 97.582711
_cell_angle_beta                  90.05453
_cell_angle_gamma                 118.62815
_cell_volume                      3969.38640949

loop_
_atom_site_label
_atom_site_type_symbol
_atom_type_description
_atom_site_fract_x
_atom_site_fract_y
_atom_site_fract_z
_atom_type_partial_charge
C1    C     C_R   0.628170 0.894504 0.424432 0.556056
C2    C     C_1   0.140081 0.824559 0.179540 -0.037496
C3    C     C_1   0.159952 0.837350 0.231919 0.003218
C4    C     C_R   0.602087 0.223804 0.443275 0.545671
C5    C     C_1   0.174085 0.844082 0.276619 0.003097
C6    C     C_1   0.193890 0.850686 0.328611 -0.037108
C7    C     C_1   0.220024 0.858928 0.372408 -0.002679
C8    C     C_1   0.688960 0.799543 0.136086 -0.005076
C9    C     C_1   0.672390 0.809190 0.179944 -0.042537
C10   C     C_1   0.661416 0.818118 0.232034 -0.004746
C11   C     C_1   0.655960 0.826939 0.276811 -0.004682
C12   C     C_R   0.690374 0.437481 0.242005 -0.100093
C13   C     C_1   0.650639 0.841782 0.329206 -0.043306
C14   C     C_1   0.643422 0.861180 0.373551 -0.006676
C15   C     C_1   0.692747 0.380847 0.875291 -0.022404
C16   C     C_R   0.267978 0.875437 0.422542 0.545732
C17   C     C_1   0.682869 0.352265 0.830585 -0.066338
C18   C     C_1   0.673658 0.330214 0.777847 -0.020565
C19   C     C_1   0.665268 0.315675 0.732725 -0.020283
C20   C     C_1   0.651797 0.297075 0.679985 -0.060585
C21   C     C_1   0.633980 0.272751 0.635103 -0.019232
C22   C     C_1   0.200378 0.857049 0.605368 -0.027868
C23   C     C_R   0.683125 0.422972 0.292495 -0.102362
C24   C     C_R   0.060544 0.696595 0.703382 0.017361
C25   C     C_R   0.029103 0.675324 0.753111 0.021259
C26   C     C_R   0.081418 0.878340 0.776848 -0.112272
C27   C     C_R   0.105928 0.899501 0.727606 0.003160
C28   C     C_R   0.604521 0.931491 0.571569 0.564561
C29   C     C_R   0.101507 0.810029 0.691354 0.039003
C30   C     C_R   0.047078 0.769380 0.789970 0.017767
C31   C     C_1   0.032568 0.756848 0.842157 -0.070096
C32   C     C_1   0.151149 0.836628 0.643678 -0.073209
C33   C     C_1   0.020099 0.745759 0.885685 -0.020744
C34   C     C_R   0.677805 0.323288 0.306717 0.037436
C35   C     C_1   0.611150 0.913413 0.622189 -0.014142
C36   C     C_R   0.703998 0.970715 0.751263 -0.099253
C37   C     C_R   0.711097 0.953898 0.801228 0.017021
C38   C     C_R   0.537310 0.761316 0.781072 -0.119571
C39   C     C_R   0.531234 0.779464 0.731584 -0.111454
C40   C     C_R   0.602928 0.227216 0.583029 0.530076
C41   C     C_R   0.615835 0.883159 0.716557 0.025662
C42   C     C_R   0.627633 0.846981 0.815758 0.045686
C43   C     C_1   0.643665 0.818363 0.863711 -0.065285
C44   C     C_1   0.613645 0.899290 0.665186 -0.064033
C45   C     C_R   0.691750 0.352150 0.205741 0.037641
C46   C     C_1   0.668046 0.796632 0.902563 -0.019450
C47   C     C_R   0.065663 0.772056 0.084142 0.556904
C48   C     C_R   0.715954 0.438447 0.066594 0.546307
C49   C     C_R   0.719979 0.782581 0.085991 0.545187
C50   C     C_R   0.000363 0.730477 0.936963 0.566263
C51   C     C_R   0.709228 0.431061 0.926816 0.532824
C52   C     C_R   0.267926 0.879673 0.562114 0.539069
C53   C     C_R   0.712079 0.775635 0.946469 0.538219
C54   C     C_1   0.636682 0.273427 0.398321 -0.008296
C55   C     C_R   0.681013 0.238725 0.270558 -0.100409
C56   C     C_1   0.697020 0.368335 0.154147 -0.052798
C57   C     C_R   0.688148 0.253189 0.220016 -0.102604
C58   C     C_3   0.809675 0.049153 0.837653 -0.260054
C59   C     C_3   0.760093 0.111845 0.874129 -0.292385
C60   C     C_3   0.857714 0.204705 0.912381 -0.441064
C61   C     C_3   0.052519 0.600434 0.663049 -0.257505
C62   C     C_3   0.939507 0.552160 0.627762 -0.300885
C63   C     C_3   0.929564 0.454832 0.587650 -0.434002
C64   C     C_3   0.972996 0.553678 0.767040 -0.249477
C65   C     C_3   0.067428 0.526432 0.787107 -0.295639
C66   C     C_3   0.009883 0.402205 0.798540 -0.454709
C67   C     C_1   0.658966 0.301822 0.357480 -0.053345
C68   C     C_3   0.138753 0.019343 0.715857 -0.253374
C69   C     C_3   0.028819 0.037452 0.716344 -0.297619
C70   C     C_3   0.060547 0.158555 0.705805 -0.454269
C71   C     C_1   0.703513 0.392683 0.112486 -0.007241
C72   C     C_1   0.113826 0.806033 0.135149 -0.003696
Cr1   Cr    Cr6+3 0.416010 0.828400 0.490230 1.030980
Cr2   Cr    Cr6+3 0.676380 0.087280 0.505260 1.015694
Cr3   Cr    Cr6+3 0.407590 0.084280 0.504540 1.028185
Cr4   Cr    Cr6+3 0.914090 0.832340 0.018020 1.029755
Cr5   Cr    Cr6+3 0.923310 0.576840 0.003860 1.017185
Cr6   Cr    Cr6+3 0.654200 0.573160 0.004700 1.030363
H1    H     H_    0.675706 0.160717 0.281340 0.118800
H2    H     H_    0.721259 0.153458 0.852592 0.170258
H3    H     H_    0.688391 0.048945 0.894695 0.175008
H4    H     H_    0.854433 0.011920 0.858630 0.154799
H5    H     H_    0.879407 0.113811 0.816912 0.127762
H6    H     H_    0.474020 0.678866 0.791876 0.111284
H7    H     H_    0.679493 0.488104 0.320166 0.115989
H8    H     H_    0.009031 0.486701 0.565206 0.158438
H9    H     H_    0.922066 0.380964 0.605406 0.158243
H10   H     H_    0.848707 0.423859 0.561978 0.156427
H11   H     H_    0.859368 0.518055 0.649795 0.165424
H12   H     H_    0.462403 0.711671 0.704782 0.112755
H13   H     H_    0.941025 0.622311 0.608882 0.174114
H14   H     H_    0.132865 0.633758 0.641142 0.153335
H15   H     H_    0.053841 0.528746 0.679342 0.136369
H16   H     H_    0.943822 0.389478 0.827121 0.164949
H17   H     H_    0.964150 0.339582 0.763842 0.148152
H18   H     H_    0.079547 0.384596 0.813398 0.140022
H19   H     H_    0.134542 0.537748 0.759141 0.154141
H20   H     H_    0.114783 0.587033 0.822130 0.179771
H21   H     H_    0.908437 0.544442 0.796007 0.154664
H22   H     H_    0.918059 0.487836 0.734597 0.146398
H23   H     H_    0.689487 0.187062 0.192187 0.116197
H24   H     H_    0.127246 0.225588 0.735265 0.150634
H25   H     H_    0.097422 0.172188 0.668441 0.162964
H26   H     H_    0.979069 0.168311 0.705894 0.136736
H27   H     H_    0.959439 0.971979 0.687249 0.178450
H28   H     H_    0.990556 0.026045 0.753559 0.157655
H29   H     H_    0.209168 0.085703 0.744381 0.143063
H30   H     H_    0.176512 0.033621 0.678735 0.158675
H31   H     H_    0.693499 0.514536 0.231134 0.118549
H32   H     H_    0.090556 0.948252 0.805493 0.113632
H33   H     H_    0.768076 0.051295 0.739160 0.102153
H34   H     H_    0.894796 0.164394 0.935612 0.162501
H35   H     H_    0.930784 0.269411 0.893053 0.149910
H36   H     H_    0.819654 0.250110 0.937519 0.157244
O1    O     O_R   0.294740 0.800910 0.434410 -0.503303
O2    O     O_R   0.635480 0.460400 0.052590 -0.501526
O3    O     O_R   0.662650 0.681410 0.060750 -0.490409
O4    O     O_R   0.526010 0.837250 0.440870 -0.486974
O5    O     O_R   0.814500 0.852290 0.965490 -0.519756
O6    O     O_R   0.013160 0.821640 0.966980 -0.489902
O7    O     O_R   0.038850 0.666600 0.954370 -0.505224
O8    O     O_R   0.813260 0.476410 0.948680 -0.521204
O9    O     O_R   0.630060 0.454430 0.944230 -0.500176
O10   O     O_R   0.657630 0.675880 0.960300 -0.494179
O11   O     O_3   0.830530 0.660780 0.008860 -0.273197
O12   O     O_R   0.664100 0.185180 0.560770 -0.520125
O13   O     O_R   0.704290 0.994500 0.446090 -0.499092
O14   O     O_R   0.662870 0.181760 0.460430 -0.495268
O15   O     O_R   0.498970 0.199080 0.457120 -0.501051
O16   O     O_R   0.309350 0.975930 0.448180 -0.490269
O17   O     O_R   0.296060 0.804610 0.542650 -0.517420
O18   O     O_R   0.527240 0.840670 0.541200 -0.490852
O19   O     O_R   0.705610 0.998200 0.554330 -0.505681
O20   O     O_R   0.500290 0.202770 0.565360 -0.502660
O21   O     O_R   0.310570 0.979360 0.548520 -0.496116
O22   O     O_3   0.499990 0.999990 0.500010 -0.271581
O23   O     O_R   0.819910 0.858260 0.073860 -0.504238
O24   O     O_R   0.018180 0.827180 0.067430 -0.486721
O25   O     O_R   0.044260 0.672570 0.062730 -0.498484
O26   O     O_R   0.818270 0.481940 0.049130 -0.494482

loop_
_geom_bond_atom_site_label_1
_geom_bond_atom_site_label_2
_ccdc_geom_bond_type
Cr1   O17   S    
C24   C61   S    
C49   O23   A    
C63   H10   S    
C27   C29   A    
C51   O9    A    
C60   H36   S    
C19   C20   S    
Cr5   O26   S    
C36   C41   A    
Cr3   O20   S    
Cr5   O11   S    
C39   C41   A    
Cr2   O12   S    
Cr4   O23   S    
C12   C23   A    
C45   C57   A    
C26   C27   A    
Cr4   O6    S    
C22   C32   T    
C50   O6    A    
C5    C6    S    
C66   H18   S    
C36   C37   A    
C65   H20   S    
C38   C42   A    
C29   C32   S    
C58   H4    S    
C30   C31   S    
C70   H26   S    
C62   H11   S    
C46   C53   S    
C18   C19   T    
C37   C42   A    
C24   C29   A    
Cr5   O8    S    
C64   H21   S    
C49   O3    A    
C45   C56   S    
C68   C69   S    
Cr2   O22   S    
C31   C33   T    
C27   C68   S    
C68   H29   S    
C15   C51   S    
Cr6   O10   S    
C9    C10   S    
C26   H32   S    
C39   H12   S    
C37   C58   S    
C61   H14   S    
C48   O2    A    
C63   H9    S    
C56   C71   T    
Cr1   O18   S    
C59   C60   S    
C35   C44   T    
C13   C14   T    
Cr4   O11   S    
C1    O13   A    
C60   H35   S    
C69   C70   S    
C50   O7    A    
C2    C72   T    
C12   H31   S    
Cr2   O14   S    
Cr4   O5    S    
C4    O14   A    
C28   O19   A    
C59   H3    S    
Cr6   O3    S    
C24   C25   A    
C28   C35   S    
C61   H15   S    
C48   O26   A    
C70   H25   S    
C8    C9    T    
C54   C67   T    
C58   C59   S    
C40   O20   A    
C28   O18   A    
C25   C64   S    
C59   H2    S    
C62   C63   S    
C60   H34   S    
C55   H1    S    
Cr2   O13   S    
Cr1   O22   S    
C64   H22   S    
C23   C34   A    
C40   O12   A    
C62   H13   S    
C36   H33   S    
C53   O5    A    
C17   C18   S    
Cr6   O9    S    
Cr3   O16   S    
C4    O15   A    
C7    C16   S    
C26   C30   A    
C55   C57   A    
C63   H8    S    
C41   C44   S    
C42   C43   S    
C48   C71   S    
C16   O1    A    
C16   O16   A    
C22   C52   S    
C25   C30   A    
C15   C17   T    
C69   H27   S    
Cr1   O4    S    
C4    C54   S    
Cr3   O22   S    
C52   O17   A    
Cr6   O2    S    
Cr5   O25   S    
C12   C45   A    
C3    C5    T    
C53   O10   A    
C34   C67   S    
C69   H28   S    
C70   H24   S    
C6    C7    T    
Cr4   O24   S    
C57   H23   S    
Cr1   O1    S    
C66   H16   S    
C64   C65   S    
C2    C3    S    
C33   C50   S    
C38   H6    S    
C58   H5    S    
C51   O8    A    
C11   C13   S    
C38   C39   A    
C21   C40   S    
C47   O24   A    
Cr2   O19   S    
Cr3   O21   S    
C1    O4    A    
C61   C62   S    
C43   C46   T    
C47   C72   S    
Cr5   O7    S    
C10   C11   T    
C65   H19   S    
C34   C55   A    
C20   C21   T    
C65   C66   S    
C23   H7    S    
C47   O25   A    
C52   O21   A    
C1    C14   S    
C68   H30   S    
Cr6   O11   S    
C8    C49   S    
Cr3   O15   S    
C66   H17   S    
