data_mof_unit_28128.cif
_audit_creation_date              2012-12-10T17:31:56-0500
_audit_creation_method            fapswitch 2.2
_symmetry_space_group_name_H-M    P1
_symmetry_Int_Tables_number       1
_space_group_crystal_system       triclinic
_cell_length_a                    12.140912
_cell_length_b                    11.52739
_cell_length_c                    12.77777
_cell_angle_alpha                 92.151551
_cell_angle_beta                  93.317775
_cell_angle_gamma                 86.229587
_cell_volume                      1780.40418869

loop_
_atom_site_label
_atom_site_type_symbol
_atom_type_description
_atom_site_fract_x
_atom_site_fract_y
_atom_site_fract_z
_atom_type_partial_charge
C1    C     C_R   0.478079 0.504707 0.300245 0.865177
C2    C     C_R   0.521921 0.495293 0.699755 0.865176
C3    C     C_R   0.043748 0.613360 0.594454 -0.276018
C4    C     C_R   0.956252 0.386640 0.405546 -0.276018
C5    C     C_R   0.158782 0.604541 0.585504 0.173953
C6    C     C_R   0.841218 0.395459 0.414496 0.173953
C7    C     C_R   0.142070 0.449809 0.458469 0.458304
C8    C     C_R   0.857930 0.550191 0.541530 0.458303
C9    C     C_R   0.024868 0.458739 0.465393 -0.059652
C10   C     C_R   0.975132 0.541261 0.534607 -0.059652
C11   C     C_R   0.499984 0.282206 0.499837 0.895788
C12   C     C_R   0.500015 0.717794 0.500163 0.895788
C13   C     C_1   0.499974 0.161661 0.500216 -0.173532
C14   C     C_1   0.500026 0.838338 0.499784 -0.173532
C15   C     C_1   0.499971 0.059382 0.500175 -0.001786
C16   C     C_1   0.500029 0.940618 0.499825 -0.001786
C17   C     C_R   0.535455 0.482717 0.810585 -0.057444
C18   C     C_R   0.464545 0.517283 0.189415 -0.057443
C19   C     C_R   0.403585 0.625310 0.036861 -0.201912
C20   C     C_R   0.596415 0.374690 0.963139 -0.201913
C21   C     C_R   0.401304 0.612745 0.145165 0.081991
C22   C     C_R   0.598696 0.387255 0.854835 0.081991
C23   C     C_R   0.527404 0.438289 0.129074 -0.279129
C24   C     C_R   0.472596 0.561711 0.870926 -0.279128
C25   C     C_R   0.531061 0.452927 0.023091 0.145446
C26   C     C_R   0.468939 0.547073 0.976909 0.145446
H1    H     H_    0.424443 0.633554 0.834304 0.136724
H2    H     H_    0.575557 0.366446 0.165696 0.136724
H3    H     H_    0.356608 0.696133 0.998371 0.131808
H4    H     H_    0.643391 0.303866 0.001629 0.131808
H5    H     H_    0.008825 0.678619 0.648262 0.206794
H6    H     H_    0.991175 0.321381 0.351738 0.206794
N1    N     N_R   0.792200 0.479100 0.480660 -0.136884
N2    N     N_R   0.207800 0.520900 0.519340 -0.136884
O1    O     O_R   0.578300 0.494420 0.341180 -0.646336
O2    O     O_R   0.421700 0.505580 0.658820 -0.646336
O3    O     O_R   0.390690 0.507830 0.353590 -0.575074
O4    O     O_R   0.609310 0.492170 0.646410 -0.575074
O5    O     O_R   0.593810 0.327740 0.493800 -0.648427
O6    O     O_R   0.406190 0.672260 0.506200 -0.648427
O7    O     O_R   0.406190 0.341150 0.506220 -0.547062
O8    O     O_R   0.593810 0.658850 0.493780 -0.547062
Zn1   Zn    Zn3+2 0.625270 0.491050 0.491710 0.977756
Zn2   Zn    Zn3+2 0.374730 0.508950 0.508290 0.977756
C27   C     C_3   0.662318 0.299379 0.784777 -0.378383
C28   C     C_3   0.713566 0.189529 0.837766 -0.392844
C29   C     C_3   0.767298 0.105196 0.757809 -0.826117
H7    H     H_    0.704605 0.077115 0.696888 0.265994
H8    H     H_    0.833508 0.147151 0.719480 0.256589
H9    H     H_    0.804443 0.027071 0.798021 0.260885
H10   H     H_    0.777971 0.213629 0.898649 0.228035
H11   H     H_    0.648401 0.144645 0.875026 0.230694
H12   H     H_    0.604537 0.270769 0.719627 0.191355
H13   H     H_    0.729651 0.343848 0.750566 0.232971
C30   C     C_3   0.337682 0.700621 0.215223 -0.378385
C31   C     C_3   0.286433 0.810471 0.162234 -0.392844
C32   C     C_3   0.232703 0.894804 0.242191 -0.826116
H14   H     H_    0.166492 0.852850 0.280520 0.256589
H15   H     H_    0.295396 0.922885 0.303112 0.265994
H16   H     H_    0.195558 0.972929 0.201979 0.260885
H17   H     H_    0.351598 0.855354 0.124973 0.230694
H18   H     H_    0.222028 0.786370 0.101352 0.228035
H19   H     H_    0.270349 0.656152 0.249434 0.232971
H20   H     H_    0.395463 0.729232 0.280373 0.191355
Cl1   Cl    Cl    0.795321 0.650736 0.630754 -0.627388
Cl2   Cl    Cl    0.204679 0.349264 0.369245 -0.627388
C33   C     C_3   0.777780 0.307257 0.349144 -0.377940
C34   C     C_3   0.797366 0.185096 0.393568 -0.354792
C35   C     C_3   0.733924 0.096149 0.327009 -0.862851
H21   H     H_    0.644087 0.121959 0.322418 0.261954
H22   H     H_    0.764105 0.089135 0.246452 0.257037
H23   H     H_    0.746583 0.009645 0.362807 0.263629
H24   H     H_    0.886793 0.157128 0.395300 0.224434
H25   H     H_    0.770390 0.186049 0.475264 0.245514
H26   H     H_    0.689212 0.329614 0.342009 0.256286
H27   H     H_    0.805248 0.305474 0.267479 0.174453
C36   C     C_3   0.222220 0.692743 0.650855 -0.377941
C37   C     C_3   0.202635 0.814904 0.606432 -0.354791
C38   C     C_3   0.266076 0.903851 0.672991 -0.862850
H28   H     H_    0.235894 0.910866 0.753548 0.257037
H29   H     H_    0.355913 0.878040 0.677583 0.261954
H30   H     H_    0.253418 0.990355 0.637192 0.263629
H31   H     H_    0.229611 0.813951 0.524735 0.245514
H32   H     H_    0.113207 0.842872 0.604699 0.224433
H33   H     H_    0.194751 0.694526 0.732521 0.174453
H34   H     H_    0.310787 0.670385 0.657991 0.256286

loop_
_geom_bond_atom_site_label_1
_geom_bond_atom_site_label_2
_ccdc_geom_bond_type
C30   C31   S    
C18   C21   A    
C24   H1    S    
C29   H8    S    
C20   H4    S    
C36   C37   S    
C1    C18   S    
C19   C21   A    
C24   C26   A    
C32   H15   S    
C20   C25   A    
C34   H25   S    
C15   C16   S    
C28   H11   S    
C31   C32   S    
C35   H22   S    
C19   C26   A    
C12   O8    A    
C37   H31   S    
C34   C35   S    
C30   H19   S    
O1    Zn1   S    
C9    C10   A    
C1    O3    A    
C36   H33   S    
C8    Cl1   S    
C30   H20   S    
C2    C17   S    
C29   H9    S    
C17   C24   A    
C18   C23   A    
N1    Zn1   S    
N2    Zn2   S    
C4    C6    A    
C38   H29   S    
C37   C38   S    
C32   H16   S    
O5    Zn1   S    
C34   H24   S    
C27   C28   S    
C28   H10   S    
C33   C34   S    
C12   O6    A    
C35   H23   S    
C11   O5    A    
C2    O4    A    
C29   H7    S    
C5    N2    A    
C23   H2    S    
C3    H5    S    
C4    H6    S    
C6    C33   S    
C12   C14   S    
C27   H13   S    
C13   C15   T    
O7    Zn2   S    
C14   C16   T    
O2    Zn2   S    
C33   H26   S    
O8    Zn1   S    
C5    C36   S    
C19   H3    S    
C1    O1    A    
C21   C30   S    
C2    O2    A    
C7    C9    A    
C28   C29   S    
C20   C22   A    
C3    C5    A    
C36   H34   S    
C38   H30   S    
C17   C22   A    
C6    N1    A    
O3    Zn2   S    
C25   C26   A    
O4    Zn1   S    
C3    C10   A    
C7    Cl2   S    
C11   C13   S    
C32   H14   S    
C7    N2    A    
C11   O7    A    
C31   H18   S    
C8    N1    A    
C23   C25   A    
C35   H21   S    
C27   H12   S    
C38   H28   S    
C37   H32   S    
O6    Zn2   S    
C22   C27   S    
C8    C10   A    
C31   H17   S    
C33   H27   S    
C4    C9    A    
