data_mof_unit_13213.cif
_audit_creation_date              2012-10-26T20:32:58-0400
_audit_creation_method            fapswitch 2.2
_symmetry_space_group_name_H-M    P1
_symmetry_Int_Tables_number       1
_space_group_crystal_system       triclinic
_cell_length_a                    27.812586
_cell_length_b                    10.854591
_cell_length_c                    9.539294
_cell_angle_alpha                 90.054624
_cell_angle_beta                  89.982054
_cell_angle_gamma                 90.193927
_cell_volume                      2879.8400236

loop_
_atom_site_label
_atom_site_type_symbol
_atom_type_description
_atom_site_fract_x
_atom_site_fract_y
_atom_site_fract_z
_atom_type_partial_charge
C1    C     C_R   0.500114 0.262696 0.499808 0.568090
C2    C     C_R   0.974579 0.383039 0.479885 -0.012018
C3    C     C_R   0.974572 0.608251 0.514789 0.029921
C4    C     C_R   0.407461 0.499847 0.499994 0.553976
C5    C     C_R   0.949247 0.495176 0.497154 0.023793
C6    C     C_R   0.947903 0.274480 0.453558 -0.130102
C7    C     C_R   0.897497 0.273360 0.451563 0.262949
C8    C     C_R   0.872165 0.383807 0.474797 0.060651
C9    C     C_R   0.898073 0.494534 0.496819 -0.072891
C10   C     C_R   0.872684 0.605172 0.518764 0.026126
C11   C     C_R   0.822308 0.603893 0.519317 0.454718
C12   C     C_R   0.278851 0.484952 0.373858 -0.055409
C13   C     C_R   0.821341 0.387658 0.475486 0.447840
C14   C     C_R   0.721121 0.444144 0.610254 -0.070593
C15   C     C_R   0.670972 0.444365 0.611673 0.346248
C16   C     C_R   0.500241 0.737305 0.499878 0.543076
C17   C     C_R   0.670779 0.551840 0.388605 -0.161486
C18   C     C_R   0.720909 0.551374 0.387429 0.444123
C19   C     C_R   0.746248 0.497537 0.498427 0.176138
C20   C     C_R   0.025687 0.382808 0.487686 0.024140
C21   C     C_R   0.050928 0.496420 0.498398 0.037991
C22   C     C_R   0.025647 0.609514 0.508629 0.021396
C23   C     C_R   0.253690 0.498481 0.499921 0.244404
C24   C     C_R   0.052704 0.272382 0.486636 -0.136968
C25   C     C_R   0.102507 0.719898 0.510386 -0.109185
C26   C     C_R   0.947739 0.716582 0.539289 -0.132295
C27   C     C_R   0.897908 0.714831 0.540936 -0.093066
C28   C     C_R   0.592487 0.499393 0.500125 0.579346
C29   C     C_R   0.052577 0.720471 0.511513 -0.138644
C30   C     C_R   0.498845 0.062122 0.620977 0.022646
C31   C     C_R   0.500758 0.130097 0.498094 0.021134
C32   C     C_R   0.503396 0.064499 0.370444 -0.131660
C33   C     C_R   0.503506 0.935300 0.370519 -0.150579
C34   C     C_R   0.102067 0.496941 0.499036 -0.027532
C35   C     C_R   0.500952 0.869914 0.498251 0.016115
C36   C     C_R   0.498997 0.938125 0.621085 0.022773
C37   C     C_3   0.494863 0.929408 0.776495 -0.260285
C38   C     C_3   0.494659 0.071298 0.776330 -0.255544
C39   C     C_R   0.523481 0.590596 0.073709 0.092939
C40   C     C_R   0.178210 0.388014 0.493743 0.400851
C41   C     C_R   0.472735 0.418384 0.074128 0.471139
C42   C     C_R   0.472857 0.418309 0.925246 0.025285
C43   C     C_R   0.523397 0.590778 0.926286 0.120049
C44   C     C_3   0.575737 0.620252 0.920160 -0.245611
C45   C     C_R   0.127735 0.385430 0.493299 0.024141
C46   C     C_3   0.575882 0.619223 0.079096 -0.268041
C47   C     C_R   0.178151 0.607415 0.505794 0.400062
C48   C     C_R   0.278800 0.512452 0.626029 -0.053340
C49   C     C_R   0.328941 0.512608 0.626290 -0.139663
C50   C     C_R   0.328988 0.485718 0.373662 -0.127840
C51   C     C_R   0.102629 0.273993 0.488645 -0.109350
C52   C     C_R   0.127674 0.608977 0.505490 0.024421
C53   C     C_R   0.354509 0.499434 0.499987 0.005297
C54   C     C_R   0.645362 0.498465 0.500452 -0.047439
Cu1   Cu    Cu3+1 0.500000 0.499980 0.640670 0.982364
Cu2   Cu    Cu3+1 0.500000 0.500020 0.359330 1.030851
F1    F     F_    0.744878 0.602772 0.278117 -0.571825
F2    F     F_    0.445615 0.334130 0.143189 -0.633308
F3    F     F_    0.647679 0.388733 0.719589 -0.615962
H1    H     H_    0.347703 0.475064 0.274836 0.161527
H2    H     H_    0.460136 0.887905 0.810079 0.150704
H3    H     H_    0.259493 0.474124 0.276125 0.130541
H4    H     H_    0.527494 0.889282 0.825364 0.141290
H5    H     H_    0.459774 0.111500 0.809683 0.148560
H6    H     H_    0.527154 0.113081 0.825057 0.168054
H7    H     H_    0.451602 0.350820 0.869073 0.130767
H8    H     H_    0.597461 0.544632 0.874360 0.226054
H9    H     H_    0.582793 0.712863 0.874982 0.131123
H10   H     H_    0.597304 0.542030 0.122592 0.170257
H11   H     H_    0.583229 0.711115 0.126113 0.137199
H12   H     H_    0.259403 0.522868 0.723740 0.129765
H13   H     H_    0.121512 0.186848 0.487013 0.168350
H14   H     H_    0.740602 0.402027 0.695905 0.176677
H15   H     H_    0.965342 0.188572 0.430339 0.092680
H16   H     H_    0.036494 0.182198 0.487520 0.108368
H17   H     H_    0.347622 0.523492 0.725148 0.135658
H18   H     H_    0.895664 0.096044 0.414033 0.320195
H19   H     H_    0.121344 0.807413 0.513136 0.168471
H20   H     H_    0.964066 0.804653 0.560680 0.108146
H21   H     H_    0.651900 0.595504 0.303069 0.148979
H22   H     H_    0.879171 0.800607 0.559966 0.179147
H23   H     H_    0.036262 0.810248 0.511879 0.107748
H24   H     H_    0.505214 0.112206 0.270898 0.172605
H25   H     H_    0.505405 0.887418 0.270999 0.139250
N1    N     N_R   0.202212 0.497961 0.499856 -0.400478
N2    N     N_R   0.797834 0.496384 0.497581 -0.391508
N3    N     N_R   0.500300 0.500930 0.147930 -0.223958
N4    N     N_R   0.500310 0.500890 0.852020 -0.268377
O1    O     O_R   0.500000 0.319640 0.618810 -0.506876
O2    O     O_R   0.569730 0.499960 0.618810 -0.446519
O3    O     O_R   0.569740 0.500000 0.381220 -0.526734
O4    O     O_2   0.203144 0.281649 0.488527 -0.480984
O5    O     O_3   0.872684 0.164838 0.426480 -0.609760
O6    O     O_2   0.795369 0.284210 0.453634 -0.382830
O7    O     O_2   0.203028 0.714277 0.511488 -0.483489
O8    O     O_2   0.797851 0.709240 0.542229 -0.435305
O9    O     O_R   0.500010 0.319680 0.381230 -0.448779
O10   O     O_R   0.430260 0.500000 0.618780 -0.518698
O11   O     O_R   0.430270 0.500040 0.381190 -0.457891
O12   O     O_R   0.499990 0.680320 0.618770 -0.506231
O13   O     O_R   0.500000 0.680360 0.381190 -0.518060

loop_
_geom_bond_atom_site_label_1
_geom_bond_atom_site_label_2
_ccdc_geom_bond_type
C10   C27   A    
C11   O8    S    
Cu1   Cu2   S    
C8    C13   A    
C22   C29   A    
C4    O10   A    
C4    C53   S    
C41   C42   A    
C35   C36   A    
C39   N3    A    
C19   N2    S    
C7    C8    A    
C12   C23   A    
C26   C27   A    
C43   N4    A    
C47   N1    A    
C36   C37   S    
Cu2   O13   S    
Cu1   O2    S    
C16   C35   S    
C30   C31   A    
C45   C51   A    
C11   N2    A    
C1    C31   S    
C30   C38   S    
C18   C19   A    
Cu1   N4    S    
C46   H10   S    
Cu2   O3    S    
C20   C24   A    
C8    C9    A    
Cu1   O12   S    
C9    C10   A    
C3    C22   A    
C24   C51   A    
C21   C22   A    
C2    C6    A    
Cu2   O9    S    
C7    O5    S    
C37   H4    S    
C44   C46   S    
C6    H15   S    
C38   H5    S    
C25   C29   A    
C40   C45   A    
C41   N3    A    
C50   C53   A    
C2    C20   A    
C25   H19   S    
C14   H14   S    
C27   H22   S    
C1    O9    A    
C28   C54   S    
C16   O12   A    
Cu2   N3    S    
C39   C43   A    
C21   C34   A    
C17   H21   S    
C40   N1    A    
C13   N2    A    
C43   C44   S    
C15   C54   A    
C5    C9    A    
C37   C38   S    
C12   H3    S    
C18   F1    S    
C12   C50   A    
C31   C32   A    
C38   H6    S    
C17   C18   A    
C49   H17   S    
C34   C45   A    
C40   O4    S    
C47   C52   A    
C39   C46   S    
C48   C49   A    
C44   H9    S    
C2    C5    A    
C42   N4    A    
C51   H13   S    
C48   H12   S    
C32   H24   S    
C1    O1    A    
C23   C48   A    
C15   F3    S    
C14   C19   A    
C3    C26   A    
C3    C5    A    
C41   F2    S    
C37   H2    S    
C24   H16   S    
C6    C7    A    
C34   C52   A    
C26   H20   S    
C30   C36   A    
C13   O6    S    
C50   H1    S    
C32   C33   A    
C25   C52   A    
C29   H23   S    
Cu1   O1    S    
C49   C53   A    
Cu1   O10   S    
H18   O5    S    
C33   C35   A    
C28   O3    A    
C33   H25   S    
C46   H11   S    
C10   C11   A    
C16   O13   A    
C20   C21   A    
C23   N1    S    
C4    O11   A    
C42   H7    S    
C47   O7    S    
C14   C15   A    
C44   H8    S    
C28   O2    A    
Cu2   O11   S    
C17   C54   A    
