data_mof_unit_43733.cif
_audit_creation_date              2013-03-05T15:48:39-0500
_audit_creation_method            fapswitch 2.2
_symmetry_space_group_name_H-M    P1
_symmetry_Int_Tables_number       1
_space_group_crystal_system       triclinic
_cell_length_a                    10.269432
_cell_length_b                    10.542661
_cell_length_c                    23.342768
_cell_angle_alpha                 91.75795
_cell_angle_beta                  81.234158
_cell_angle_gamma                 94.359662
_cell_volume                      2490.04030167

loop_
_atom_site_label
_atom_site_type_symbol
_atom_site_description
_atom_site_fract_x
_atom_site_fract_y
_atom_site_fract_z
_atom_type_partial_charge
O1    O     O_R   0.431060 0.692470 0.504730 -0.605326
O2    O     O_R   0.568940 0.307530 0.495270 -0.626214
O3    O     O_R   0.651120 0.659650 0.489640 -0.576920
O4    O     O_R   0.348880 0.340350 0.510360 -0.543392
C1    C     C_R   0.553591 0.733259 0.492913 0.994653
C2    C     C_R   0.446653 0.266232 0.499263 0.941152
O5    O     O_R   0.389950 0.516450 0.591390 -0.588147
O6    O     O_R   0.610050 0.483550 0.408610 -0.637473
O7    O     O_R   0.610020 0.483630 0.576300 -0.546395
O8    O     O_R   0.389980 0.516370 0.423700 -0.576684
C3    C     C_R   0.499980 0.500882 0.610356 0.941537
C4    C     C_R   0.500755 0.502086 0.389584 0.923251
Zn1   Zn    Zn3+2 0.353060 0.521920 0.510080 1.056858
Zn2   Zn    Zn3+2 0.646940 0.478080 0.489920 1.018542
C5    C     C_R   0.379721 0.569426 0.129391 0.559699
C6    C     C_R   0.614058 0.579242 0.872643 0.564165
N1    N     N_R   0.498443 0.573846 0.149456 -0.350338
N2    N     N_R   0.496263 0.555182 0.852599 -0.357344
C7    C     C_R   0.615554 0.587582 0.112699 0.560961
C8    C     C_R   0.378668 0.545068 0.888833 0.567210
C9    C     C_R   0.616093 0.596215 0.053128 -0.063986
C10   C     C_R   0.376381 0.554809 0.948707 -0.067634
C11   C     C_R   0.495660 0.579566 0.031156 -0.043093
C12   C     C_R   0.496408 0.577384 0.970751 -0.043910
C13   C     C_R   0.375066 0.562598 0.069463 -0.135742
C14   C     C_R   0.617190 0.595255 0.932495 -0.138009
C15   C     C_R   0.734609 0.619679 0.015386 -0.173328
C16   C     C_R   0.257229 0.537845 0.986641 -0.168078
C17   C     C_R   0.736272 0.623261 0.955612 0.310136
C18   C     C_R   0.255139 0.539788 0.046519 0.311411
O9    O     O_2   0.267474 0.573510 0.167648 -0.471222
O10   O     O_2   0.727022 0.584223 0.834529 -0.450748
O11   O     O_2   0.731248 0.590265 0.133641 -0.489836
O12   O     O_2   0.264707 0.522956 0.866794 -0.478526
H1    H     H_    0.826587 0.639343 0.032318 0.247456
H2    H     H_    0.165062 0.517229 0.969913 0.245929
C19   C     C_R   0.541864 0.430060 0.763047 -0.068066
C20   C     C_R   0.569453 0.644631 0.241612 -0.058347
H3    H     H_    0.574390 0.356017 0.787610 0.166266
H4    H     H_    0.620123 0.728537 0.220470 0.180803
C21   C     C_R   0.543605 0.414546 0.703378 0.105172
C22   C     C_R   0.575708 0.625359 0.299858 0.096914
C23   C     C_R   0.501412 0.513390 0.672420 -0.133952
C24   C     C_R   0.505048 0.517296 0.327534 -0.161259
C25   C     C_R   0.456399 0.625065 0.701834 0.262481
C26   C     C_R   0.432530 0.428557 0.295656 0.232265
C27   C     C_R   0.452772 0.635989 0.761564 -0.126419
C28   C     C_R   0.432267 0.448865 0.236964 -0.150252
H5    H     H_    0.419795 0.721246 0.784653 0.194290
H6    H     H_    0.380715 0.379647 0.211598 0.205086
C29   C     C_R   0.496271 0.539822 0.791790 0.183592
C30   C     C_R   0.499401 0.556494 0.210008 0.172386
C31   C     C_2   0.578772 0.866775 0.479592 -0.326799
C32   C     C_2   0.422874 0.131238 0.487076 -0.235907
C33   C     C_2   0.495269 0.928236 0.452551 0.117603
C34   C     C_2   0.513026 0.065646 0.451880 0.204577
H7    H     H_    0.332186 0.082671 0.508594 0.157548
H8    H     H_    0.664283 0.917772 0.494096 0.168972
N3    N     N_2   0.842710 0.448880 0.476480 -0.120628
N4    N     N_2   0.157290 0.551120 0.523520 -0.121744
C35   C     C_2   0.920589 0.488891 0.514235 0.306332
C36   C     C_2   0.067362 0.468465 0.506719 0.302090
C37   C     C_3   0.122533 0.675463 0.546509 -0.571606
H9    H     H_    0.212976 0.736693 0.550375 0.246171
H10   H     H_    0.066049 0.722903 0.517354 0.192437
H11   H     H_    0.068155 0.667836 0.591194 0.270860
C38   C     C_3   0.898240 0.403158 0.419361 -0.596245
H12   H     H_    0.824198 0.402821 0.389687 0.242028
H13   H     H_    0.984847 0.466103 0.400382 0.214440
H14   H     H_    0.923944 0.303325 0.421334 0.250118
N5    N     N_R   0.858637 0.660744 0.919836 0.257158
O13   O     O_R   0.966494 0.610813 0.927543 -0.333431
O14   O     O_R   0.867202 0.762175 0.888696 -0.288046
N6    N     N_R   0.131715 0.508010 0.082562 0.255910
O15   O     O_R   0.028000 0.566313 0.076032 -0.331182
O16   O     O_R   0.116687 0.404533 0.112588 -0.301536
C39   C     C_3   0.587076 0.290462 0.675592 -0.738558
H15   H     H_    0.571488 0.278934 0.629765 0.225434
H16   H     H_    0.693551 0.283535 0.677739 0.280509
H17   H     H_    0.529710 0.209810 0.699477 0.241285
C40   C     C_3   0.657418 0.724034 0.329868 -0.856494
H18   H     H_    0.656888 0.705564 0.376112 0.236583
H19   H     H_    0.761608 0.727231 0.308167 0.272818
H20   H     H_    0.619517 0.819113 0.326820 0.242542
N7    N     N_R   0.418505 0.729763 0.671541 0.214016
O17   O     O_R   0.493508 0.772317 0.625129 -0.389917
O18   O     O_R   0.321596 0.795635 0.695301 -0.342273
N8    N     N_R   0.360900 0.316646 0.321435 0.238505
O19   O     O_R   0.407591 0.254812 0.360170 -0.406850
O20   O     O_R   0.256854 0.267058 0.301113 -0.324798
C41   C     C_3   0.639289 0.123035 0.416944 -0.745076
H21   H     H_    0.681350 0.053506 0.383771 0.227127
H22   H     H_    0.620988 0.208415 0.393675 0.270484
H23   H     H_    0.714344 0.147825 0.445774 0.241922
C42   C     C_3   0.380782 0.865072 0.425902 -0.766735
H24   H     H_    0.346939 0.930765 0.395817 0.264314
H25   H     H_    0.410509 0.778601 0.400545 0.231920
H26   H     H_    0.296150 0.840398 0.460084 0.242608
N9    N     N_R   0.106441 0.347101 0.484321 0.204085
O21   O     O_R   0.178165 0.338789 0.433644 -0.325752
O22   O     O_R   0.049261 0.244002 0.508844 -0.391296
N10   N     N_R   0.863250 0.543652 0.568176 0.208751
O23   O     O_R   0.876710 0.491602 0.616562 -0.368112
O24   O     O_R   0.818532 0.656066 0.569515 -0.357738

loop_
_geom_bond_atom_site_label_1
_geom_bond_atom_site_label_2
_geom_bond_distance
_ccdc_geom_bond_type
C33   C34   1.446544 S    
C37   H10   1.111356 S    
C15   C17   1.394409 A    
C31   C33   1.352105 D    
C42   H24   1.111075 S    
C40   H18   1.101879 S    
C42   H26   1.107558 S    
C27   H5    1.083513 S    
Zn1   N4    2.032491 S    
C39   H15   1.107225 S    
O5    C3    1.298018 A    
Zn2   N3    2.032489 S    
N6    O16   1.301351 A    
N4    C37   1.450329 S    
O1    C1    1.289807 A    
C1    C31   1.446353 S    
C7    C9    1.395465 A    
C12   C14   1.417266 A    
C20   C22   1.392668 A    
C21   C39   1.509894 S    
C18   N6    1.433294 S    
C5    C13   1.406422 A    
C20   C30   1.394004 A    
N4    C36   1.316465 D    
O4    Zn1   1.911638 S    
N3    C38   1.451180 S    
C34   C41   1.516947 S    
C11   C12   1.408339 A    
C3    C23   1.452911 S    
C35   C36   1.521662 S    
C8    O12   1.350290 S    
C28   H6    1.083363 S    
C9    C15   1.399808 A    
C37   H11   1.107735 S    
C10   C16   1.399819 A    
C21   C23   1.416391 A    
O2    C2    1.288030 A    
C22   C40   1.509567 S    
C22   C24   1.420718 A    
C2    C32   1.452432 S    
N1    C30   1.432411 S    
C40   H19   1.110382 S    
C24   C26   1.415574 A    
N2    C29   1.423697 S    
C26   N8    1.439415 S    
C25   C27   1.390547 A    
C6    C14   1.407082 A    
C32   C34   1.356814 D    
N3    C35   1.317206 D    
N6    O15   1.300099 A    
N7    O18   1.301355 A    
C38   H12   1.103587 S    
O4    C2    1.308981 A    
C7    O11   1.349977 S    
C41   H21   1.111260 S    
N5    O14   1.301356 A    
C27   C29   1.390711 A    
C15   H1    1.081847 S    
N7    O17   1.300462 A    
C37   H9    1.103781 S    
C38   H13   1.111704 S    
C25   N7    1.437662 S    
O7    Zn2   1.993978 S    
C41   H22   1.107887 S    
C23   C25   1.416918 A    
N9    O21   1.299018 A    
C28   C30   1.396927 A    
O6    C4    1.298386 A    
C39   H16   1.110185 S    
N10   O24   1.300975 A    
O7    C3    1.300234 A    
O3    Zn2   1.911637 S    
O8    C4    1.301366 A    
C33   C42   1.513668 S    
N9    O22   1.301005 A    
N8    O20   1.301675 A    
C9    C11   1.406524 A    
C10   C12   1.407822 A    
O1    Zn1   1.911682 S    
C40   H20   1.110617 S    
C39   H17   1.110734 S    
C13   C18   1.417589 A    
C5    N1    1.368250 A    
O6    Zn2   1.994604 S    
C8    C10   1.395011 A    
O3    C1    1.304770 A    
O8    Zn1   1.993981 S    
C31   H8    1.087415 S    
C42   H25   1.108494 S    
C5    O9    1.348900 S    
C6    O10   1.348742 S    
C38   H14   1.108373 S    
C16   C18   1.394174 A    
C35   N10   1.430560 S    
N5    O13   1.300584 A    
C19   H3    1.084045 S    
C41   H23   1.109937 S    
C20   H4    1.084143 S    
C19   C29   1.395505 A    
N1    C7    1.367547 A    
N2    C8    1.363732 A    
C11   C13   1.415597 A    
C19   C21   1.394987 A    
N10   O23   1.301184 A    
O2    Zn2   1.911682 S    
C36   N9    1.429903 S    
C26   C28   1.393577 A    
O5    Zn1   1.994604 S    
N8    O19   1.299329 A    
C16   H2    1.082474 S    
C14   C17   1.417860 A    
C6    N2    1.365714 A    
C4    C24   1.455773 S    
C17   N5    1.434426 S    
C32   H7    1.087425 S    
