data_mof_unit_15183.cif
_audit_creation_date              2013-03-05T16:42:43-0500
_audit_creation_method            fapswitch 2.2
_symmetry_space_group_name_H-M    P1
_symmetry_Int_Tables_number       1
_space_group_crystal_system       triclinic
_cell_length_a                    14.136291
_cell_length_b                    10.853663
_cell_length_c                    9.900119
_cell_angle_alpha                 89.546891
_cell_angle_beta                  90.891096
_cell_angle_gamma                 89.501087
_cell_volume                      1518.69015984

loop_
_atom_site_label
_atom_site_type_symbol
_atom_site_description
_atom_site_fract_x
_atom_site_fract_y
_atom_site_fract_z
_atom_type_partial_charge
O1    O     O_R   0.500010 0.316790 0.614690 -0.566922
O2    O     O_R   0.500000 0.316760 0.385350 -0.577501
C1    C     C_R   0.497754 0.260214 0.500152 0.979047
O3    O     O_R   0.373720 0.500020 0.614700 -0.628073
O4    O     O_R   0.373710 0.499980 0.385350 -0.581665
C2    C     C_R   0.329242 0.500133 0.499137 0.897605
Zn1   Zn    Zn3+2 0.500010 0.500020 0.653130 1.079285
Zn2   Zn    Zn3+2 0.499990 0.499980 0.346870 1.047163
O5    O     O_R   0.500000 0.683240 0.614650 -0.592040
O6    O     O_R   0.499990 0.683210 0.385310 -0.582244
O7    O     O_R   0.626290 0.500020 0.614650 -0.496656
O8    O     O_R   0.626280 0.499980 0.385300 -0.645223
C3    C     C_R   0.495807 0.739460 0.499513 0.989490
C4    C     C_R   0.670723 0.501638 0.500738 0.980246
C5    C     C_1   0.227767 0.500575 0.497595 -0.124806
C6    C     C_1   0.142491 0.501055 0.497890 0.034221
C7    C     C_1   0.042612 0.501636 0.499353 0.062875
C8    C     C_1   0.957349 0.502045 0.500818 0.067478
C9    C     C_1   0.857481 0.502316 0.502083 0.071301
C10   C     C_1   0.772217 0.502241 0.502176 -0.020878
C11   C     C_R   0.518129 0.059916 0.611319 -0.087715
C12   C     C_R   0.487839 0.128761 0.499998 -0.201873
C13   C     C_R   0.443115 0.066623 0.390893 0.228325
C14   C     C_R   0.442243 0.936514 0.390208 0.215760
C15   C     C_R   0.484741 0.870661 0.499900 -0.184036
C16   C     C_R   0.514512 0.935836 0.612417 -0.098424
C17   C     C_3   0.580286 0.922929 0.731745 0.127395
C18   C     C_3   0.590798 0.064345 0.723818 0.524915
H1    H     H_    0.539597 0.892658 0.821292 0.120176
C19   C     C_R   0.426874 0.550856 0.068856 0.254569
N1    N     N_R   0.499420 0.499140 0.142800 -0.130753
C20   C     C_R   0.575879 0.457538 0.076069 -0.125950
H2    H     H_    0.635999 0.422036 0.133579 0.193193
C21   C     C_R   0.577147 0.457141 0.933196 0.356103
N2    N     N_R   0.499420 0.499180 0.857150 -0.146648
C22   C     C_R   0.426823 0.550901 0.926570 0.139336
C23   C     C_3   0.325854 0.512567 0.919442 -0.456394
C24   C     C_3   0.325916 0.512836 0.072749 -0.413970
H3    H     H_    0.279533 0.585332 0.873486 0.219308
H4    H     H_    0.316937 0.419184 0.875817 0.244823
H5    H     H_    0.279806 0.585917 0.115203 0.237456
H6    H     H_    0.316941 0.419664 0.118079 0.252853
N3    N     N_R   0.394609 0.134179 0.285371 0.237627
O9    O     O_R   0.430784 0.141317 0.165585 -0.258330
O10   O     O_R   0.320577 0.200747 0.313341 -0.397157
N4    N     N_R   0.394430 0.872942 0.282776 0.232375
O11   O     O_R   0.421146 0.886747 0.158468 -0.315757
O12   O     O_R   0.326055 0.797563 0.309737 -0.403832
S1    S     S_3+6 0.681857 0.824804 0.711151 0.112193
O13   O     O_2   0.701640 0.801386 0.564841 -0.258373
O14   O     O_2   0.769098 0.873415 0.779767 -0.182908
O15   O     O_3   0.654451 0.692724 0.787720 -0.499524
H7    H     H_    0.647934 0.713906 0.884328 0.345400
N5    N     N_R   0.556634 0.121789 0.847674 0.208634
O16   O     O_R   0.594704 0.089174 0.963214 -0.285381
O17   O     O_R   0.478709 0.186542 0.847238 -0.360317
S2    S     S_3+6 0.702423 0.124807 0.666799 0.115604
O18   O     O_2   0.691032 0.258211 0.630725 -0.333569
O19   O     O_2   0.776808 0.112974 0.776296 -0.161428
O20   O     O_3   0.738125 0.050035 0.528270 -0.499022
H8    H     H_    0.799063 0.088373 0.504625 0.390605
N6    N     N_R   0.660414 0.406516 0.873597 0.246841
O21   O     O_R   0.725943 0.481154 0.834257 -0.311137
O22   O     O_R   0.689066 0.299503 0.917866 -0.283697

loop_
_geom_bond_atom_site_label_1
_geom_bond_atom_site_label_2
_geom_bond_distance
_ccdc_geom_bond_type
O4    Zn2   1.831111 S    
N6    O22   1.297462 A    
C11   C16   1.348105 A    
C24   H6    1.112187 S    
N6    O21   1.298209 A    
C17   H1    1.113217 S    
N5    O16   1.301725 A    
C9    C10   1.205333 T    
C19   C22   1.408633 A    
C19   N1    1.364852 A    
Zn2   O8    1.819568 S    
S1    O15   1.667761 S    
C14   N4    1.435794 S    
C20   H2    1.081994 S    
S1    O14   1.500564 D    
C7    C8    1.205583 T    
C16   C17   1.496903 S    
C23   H3    1.111550 S    
O1    Zn1   2.027755 S    
C18   S2    1.810841 S    
C14   C15   1.418120 A    
Zn1   O7    1.831112 S    
N3    O10   1.301141 A    
C3    C15   1.431270 S    
S2    O18   1.495308 D    
C23   C24   1.517773 S    
O3    Zn1   1.819566 S    
Zn2   O6    2.027755 S    
C22   C23   1.490975 S    
C15   C16   1.386148 A    
C11   C18   1.504709 S    
O8    C4    1.295893 A    
O2    C1    1.288356 A    
C23   H4    1.112272 S    
N4    O12   1.301224 A    
N3    O9    1.300752 A    
O4    C2    1.298540 A    
O7    C4    1.299441 A    
N5    O17   1.301430 A    
S2    O19   1.502435 D    
C6    C7    1.412168 S    
C13   C14   1.412387 A    
C5    C6    1.205507 T    
C4    C10   1.434672 S    
C21   N6    1.432151 S    
C13   N3    1.433871 S    
O15   H7    0.990929 S    
C19   C24   1.490060 S    
C24   H5    1.111521 S    
O3    C2    1.296862 A    
C21   N2    1.393706 A    
N4    O11   1.300829 A    
C17   C18   1.544842 S    
S1    O13   1.502701 D    
C18   N5    1.466558 S    
C12   C13   1.420927 A    
C8    C9    1.412001 S    
C1    C12   1.434840 S    
O5    C3    1.288955 A    
N2    C22   1.363323 A    
O1    C1    1.293877 A    
C2    C5    1.434294 S    
C11   C12   1.386729 A    
Zn2   N1    2.020301 S    
Zn1   N2    2.019918 S    
O6    C3    1.291088 A    
N1    C20   1.351654 A    
O2    Zn2   2.021805 S    
C17   S1    1.795375 S    
O20   H8    0.990449 S    
S2    O20   1.681139 S    
Zn1   O5    2.021807 S    
C20   C21   1.414892 A    
