data_mof_unit_45084.cif
_audit_creation_date              2012-12-11T15:07:34-0500
_audit_creation_method            fapswitch 2.2
_symmetry_space_group_name_H-M    P1
_symmetry_Int_Tables_number       1
_space_group_crystal_system       triclinic
_cell_length_a                    21.723568
_cell_length_b                    7.208766
_cell_length_c                    18.528249
_cell_angle_alpha                 89.839919
_cell_angle_beta                  95.966219
_cell_angle_gamma                 90.365748
_cell_volume                      2885.74402289

loop_
_atom_site_label
_atom_site_type_symbol
_atom_type_description
_atom_site_fract_x
_atom_site_fract_y
_atom_site_fract_z
_atom_type_partial_charge
O1    O     O_R   0.449650 0.506500 0.414480 -0.530289
O2    O     O_R   0.550350 0.006500 0.585520 -0.531621
O3    O     O_R   0.432010 0.173150 0.560250 -0.539642
O4    O     O_R   0.567990 0.673150 0.439750 -0.532320
C1    C     C_R   0.415764 0.344088 0.580530 0.684394
C2    C     C_R   0.583554 0.845129 0.418673 0.687469
O5    O     O_R   0.442320 0.176650 0.413480 -0.535333
O6    O     O_R   0.557680 0.676650 0.586520 -0.534202
O7    O     O_R   0.560730 0.008380 0.437700 -0.541567
O8    O     O_R   0.439270 0.508380 0.562300 -0.534779
C3    C     C_R   0.428675 0.344637 0.387296 0.683738
C4    C     C_R   0.571512 0.845076 0.612498 0.680017
O9    O     O_3   0.538840 0.339860 0.508120 -0.372729
O10   O     O_3   0.461160 0.839860 0.491880 -0.374269
V1    V     V_3+5 0.492800 0.064220 0.498490 1.438392
V2    V     V_3+5 0.507200 0.564220 0.501510 1.450696
C5    C     C_R   0.869196 0.005029 0.689763 -0.167956
C6    C     C_R   0.133289 0.522136 0.309264 -0.163333
H1    H     H_    0.786911 0.008766 0.573962 0.132621
H2    H     H_    0.216102 0.532054 0.424224 0.130984
H3    H     H_    0.887720 0.046392 0.639994 0.157108
H4    H     H_    0.115861 0.571978 0.358373 0.157798
C7    C     C_R   0.886450 0.944286 0.819022 -0.099537
C8    C     C_R   0.113854 0.446624 0.181294 -0.097734
C9    C     C_R   0.587043 0.804213 0.745033 -0.145458
C10   C     C_R   0.412130 0.292811 0.255385 -0.137090
C11   C     C_R   0.623662 0.795485 0.811099 -0.099896
C12   C     C_R   0.375015 0.279363 0.189754 -0.096991
C13   C     C_R   0.687131 0.830004 0.815049 -0.160971
C14   C     C_R   0.311926 0.317725 0.185678 -0.160440
C15   C     C_R   0.715987 0.875577 0.752284 0.089660
C16   C     C_R   0.284020 0.372277 0.247830 0.089416
C17   C     C_R   0.677727 0.887082 0.684449 0.067559
C18   C     C_R   0.322878 0.389166 0.315118 0.067243
C19   C     C_R   0.781353 0.910973 0.754638 0.083445
C20   C     C_R   0.219059 0.411743 0.245392 0.082777
C21   C     C_R   0.806141 0.961668 0.689351 0.082543
C22   C     C_R   0.195532 0.472595 0.309924 0.081703
C23   C     C_R   0.767901 0.971178 0.623864 -0.172888
C24   C     C_R   0.234269 0.486875 0.374892 -0.171754
C25   C     C_R   0.704911 0.933513 0.621259 -0.190216
C26   C     C_R   0.296715 0.444670 0.377682 -0.189208
C27   C     C_R   0.823158 0.899828 0.819230 -0.266098
C28   C     C_R   0.176508 0.395554 0.181452 -0.264670
C29   C     C_R   0.908812 0.999781 0.753931 0.258164
C30   C     C_R   0.093184 0.513629 0.245637 0.268327
C31   C     C_R   0.612989 0.850126 0.681325 -0.091956
C32   C     C_R   0.387147 0.347955 0.318455 -0.093542
H5    H     H_    0.807923 0.860885 0.870719 0.107855
H6    H     H_    0.190832 0.348515 0.130656 0.108888
H7    H     H_    0.537977 0.774072 0.743504 0.139321
H8    H     H_    0.460802 0.258835 0.257115 0.143171
H9    H     H_    0.712268 0.820431 0.868160 0.114857
H10   H     H_    0.286299 0.304016 0.132973 0.115470
H11   H     H_    0.602663 0.760334 0.859884 0.144442
H12   H     H_    0.395297 0.237189 0.141462 0.145610
H13   H     H_    0.677487 0.942718 0.569135 0.109716
H14   H     H_    0.324541 0.457941 0.429407 0.108916
C33   C     C_R   0.634714 0.014853 0.322282 -0.160148
C34   C     C_R   0.357472 0.214303 0.680366 -0.163746
C35   C     C_R   0.631949 0.858385 0.367654 -0.092975
C36   C     C_R   0.365508 0.354695 0.629192 -0.095185
C37   C     C_R   0.675308 0.716319 0.363769 -0.149092
C38   C     C_R   0.326733 0.510394 0.626315 -0.172608
C39   C     C_R   0.721365 0.730406 0.316144 0.132931
C40   C     C_R   0.280703 0.527344 0.673651 0.131839
C41   C     C_R   0.724206 0.888101 0.271156 0.021515
C42   C     C_R   0.273331 0.388069 0.725688 0.030712
C43   C     C_R   0.680219 0.031263 0.273638 0.034067
C44   C     C_R   0.312157 0.230142 0.729540 0.038171
C45   C     C_R   0.764472 0.588041 0.312804 -0.185621
C46   C     C_R   0.242546 0.683579 0.670153 -0.178609
C47   C     C_R   0.810413 0.599379 0.265285 -0.061851
C48   C     C_R   0.197334 0.704931 0.718117 -0.048594
C49   C     C_R   0.814129 0.757031 0.220020 0.057372
C50   C     C_R   0.189115 0.566948 0.770922 0.072734
C51   C     C_R   0.770912 0.901938 0.223447 0.055165
C52   C     C_R   0.227424 0.407804 0.774222 0.069740
C53   C     C_R   0.774223 0.060722 0.179076 0.056461
C54   C     C_R   0.219964 0.268082 0.826079 0.064197
C55   C     C_R   0.729928 0.200601 0.181140 -0.211155
C56   C     C_R   0.259019 0.113376 0.830270 -0.208729
C57   C     C_R   0.682883 0.186361 0.227146 0.255697
C58   C     C_R   0.305019 0.094095 0.783179 0.258252
C59   C     C_R   0.859827 0.774145 0.171614 -0.160387
C60   C     C_R   0.143624 0.582516 0.820072 -0.182451
C61   C     C_R   0.865035 0.935119 0.129267 -0.070654
C62   C     C_R   0.134938 0.440788 0.870542 -0.065719
C63   C     C_R   0.821671 0.077516 0.133173 -0.166997
C64   C     C_R   0.173515 0.284359 0.873029 -0.150881
H15   H     H_    0.600755 0.122989 0.324883 0.172569
H16   H     H_    0.387794 0.095555 0.682523 0.172673
H17   H     H_    0.673625 0.595181 0.398343 0.131274
H18   H     H_    0.332302 0.618993 0.586850 0.124062
H19   H     H_    0.762130 0.466602 0.347201 0.130146
H20   H     H_    0.248526 0.791064 0.630290 0.125975
H21   H     H_    0.892061 0.662282 0.167173 0.172316
H22   H     H_    0.113659 0.702327 0.818078 0.152073
H23   H     H_    0.824386 0.200672 0.099910 0.121295
H24   H     H_    0.167658 0.175096 0.912118 0.119567
H25   H     H_    0.731681 0.321690 0.146584 0.159168
H26   H     H_    0.253853 0.006471 0.870487 0.157156
O11   O     O_R   0.060820 0.290050 0.937800 -0.527459
O12   O     O_R   0.939180 0.790050 0.062200 -0.536827
O13   O     O_R   0.057690 0.616620 0.086540 -0.526252
O14   O     O_R   0.942310 0.116620 0.913460 -0.527336
C65   C     C_R   0.071808 0.449245 0.112661 0.739795
C66   C     C_R   0.928087 0.948762 0.887645 0.739342
O15   O     O_R   0.068010 0.619890 0.939770 -0.543477
O16   O     O_R   0.931990 0.119890 0.060230 -0.538131
O17   O     O_R   0.949640 0.787940 0.914460 -0.532546
O18   O     O_R   0.050360 0.287940 0.085540 -0.531216
C67   C     C_R   0.084543 0.451566 0.919232 0.704798
C68   C     C_R   0.915330 0.950229 0.080525 0.709094
O19   O     O_3   0.961210 0.453080 0.991940 -0.378494
O20   O     O_3   0.038790 0.953080 0.008060 -0.376005
V3    V     V_3+5 0.007200 0.728820 0.001500 1.483241
V4    V     V_3+5 0.992800 0.228820 0.998500 1.492067
Br1   Br    Br    0.993409 0.073140 0.750603 -0.523961
Br2   Br    Br    0.010610 0.600451 0.249455 -0.553962
C69   C     C_1   0.853336 0.447120 0.265253 0.341442
N1    N     N_1   0.887517 0.324563 0.265634 -0.287052
C70   C     C_1   0.160724 0.871582 0.711581 0.319354
N2    N     N_1   0.131930 0.006173 0.705818 -0.272693
Br3   Br    Br    0.622732 0.381661 0.222228 -0.594529
Br4   Br    Br    0.357633 0.880711 0.796580 -0.586725

loop_
_geom_bond_atom_site_label_1
_geom_bond_atom_site_label_2
_ccdc_geom_bond_type
C40   C42   A    
C37   C39   A    
C7    C29   A    
C11   C13   A    
C65   O18   A    
O1    C3    A    
C54   C64   A    
O2    C4    A    
C26   H14   S    
C2    O7    A    
C12   H12   S    
O15   V3    S    
C70   N2    T    
C23   C25   A    
C55   H25   S    
O5    C3    A    
O13   C65   A    
C48   C50   A    
C63   H23   S    
C16   C20   A    
C2    C35   S    
C19   C21   A    
C5    C29   A    
H2    C24   S    
C60   C62   A    
C45   H19   S    
C7    C27   A    
O20   V3    S    
C34   C36   A    
C62   C67   S    
C35   C37   A    
C61   C68   S    
C36   C38   A    
C49   C59   A    
C40   C46   A    
C39   C41   A    
C18   C26   A    
O13   V3    S    
C15   C17   A    
C19   C27   A    
O16   C68   A    
O15   C67   A    
C29   Br1   S    
C24   C26   A    
C48   C70   S    
O6    V2    S    
C22   C24   A    
O14   V4    S    
C58   Br4   S    
C47   C49   A    
O16   V4    S    
C3    C32   S    
C57   Br3   S    
C4    C31   S    
C6    C30   A    
C64   H24   S    
C55   C57   A    
C51   C53   A    
C42   C52   A    
C33   C35   A    
C59   C61   A    
C46   C48   A    
C53   C55   A    
C27   H5    S    
C33   H15   S    
O5    V1    S    
C39   C45   A    
C5    H3    S    
C41   C43   A    
C16   C18   A    
O4    V2    S    
C9    H7    S    
C43   C57   A    
C10   H8    S    
C41   C51   A    
O18   V4    S    
C14   H10   S    
C34   C44   A    
O6    C4    A    
O19   V4    S    
C56   H26   S    
C52   C54   A    
C30   Br2   S    
O1    V2    S    
C5    C21   A    
O2    V1    S    
C49   C51   A    
C69   N1    T    
H1    C23   S    
C33   C43   A    
O12   C68   A    
O4    C2    A    
C62   C64   A    
C47   C69   S    
C61   C63   A    
C17   C31   A    
C15   C19   A    
C20   C28   A    
O11   V4    S    
C18   C32   A    
C50   C60   A    
C44   C58   A    
O14   C66   A    
C45   C47   A    
O12   V3    S    
C28   H6    S    
C9    C31   A    
O11   C67   A    
C6    H4    S    
C10   C12   A    
C50   C52   A    
O3    C1    A    
C10   C32   A    
C9    C11   A    
C38   H18   S    
C37   H17   S    
C56   C58   A    
C66   O17   A    
O17   V3    S    
C17   C25   A    
C12   C14   A    
C8    C65   S    
O7    V1    S    
C8    C30   A    
C1    O8    A    
C21   C23   A    
O8    V2    S    
C14   C16   A    
C13   H9    S    
C8    C28   A    
C7    C66   S    
C20   C22   A    
C54   C56   A    
C1    C36   S    
C11   H11   S    
C6    C22   A    
C60   H22   S    
C53   C63   A    
C59   H21   S    
C25   H13   S    
C46   H20   S    
C13   C15   A    
O9    V2    S    
C42   C44   A    
O10   V1    S    
O3    V1    S    
C34   H16   S    
C38   C40   A    
