data_mof_unit_62125.cif
_audit_creation_date              2012-10-26T19:34:53-0400
_audit_creation_method            fapswitch 2.2
_symmetry_space_group_name_H-M    P1
_symmetry_Int_Tables_number       1
_space_group_crystal_system       triclinic
_cell_length_a                    13.89621
_cell_length_b                    18.154135
_cell_length_c                    19.459559
_cell_angle_alpha                 89.165959
_cell_angle_beta                  89.723271
_cell_angle_gamma                 84.775929
_cell_volume                      4888.19479132

loop_
_atom_site_label
_atom_site_type_symbol
_atom_type_description
_atom_site_fract_x
_atom_site_fract_y
_atom_site_fract_z
_atom_type_partial_charge
C1    C     C_R   0.496587 0.499536 0.632353 0.542878
C2    C     C_R   0.585956 0.491830 0.035010 -0.127075
C3    C     C_R   0.497608 0.495286 0.927812 -0.031399
C4    C     C_R   0.498885 0.493173 0.071947 -0.031438
C5    C     C_R   0.524126 0.276834 0.558548 0.034255
C6    C     C_R   0.441116 0.723507 0.544782 0.047225
C7    C     C_R   0.522172 0.199175 0.561880 -0.018864
C8    C     C_R   0.440151 0.801303 0.548115 -0.019627
C9    C     C_R   0.500012 0.160971 0.501620 0.080044
C10   C     C_R   0.498703 0.838666 0.501451 0.078161
C11   C     C_R   0.475534 0.203204 0.442013 0.365011
C12   C     C_R   0.502033 0.500443 0.367457 0.546031
C13   C     C_R   0.559689 0.795542 0.456643 0.363602
C14   C     C_R   0.474937 0.280536 0.442528 0.090815
C15   C     C_R   0.560121 0.718237 0.457513 0.082019
C16   C     C_R   0.683170 0.488065 0.500245 0.544523
C17   C     C_R   0.316834 0.511941 0.499600 0.543702
C18   C     C_R   0.416054 0.045165 0.483944 -0.085346
C19   C     C_R   0.584751 0.954440 0.512645 -0.085701
C20   C     C_R   0.415354 0.967802 0.482822 0.377521
C21   C     C_R   0.586093 0.031775 0.511878 0.377392
C22   C     C_R   0.499089 0.921401 0.499514 0.007563
C23   C     C_R   0.454675 0.447427 0.258136 -0.123526
C24   C     C_R   0.500785 0.078214 0.499825 0.007873
C25   C     C_1   0.213788 0.519243 0.499635 -0.008790
C26   C     C_1   0.786215 0.480786 0.500199 -0.004994
C27   C     C_2   0.023423 0.530610 0.499701 0.383752
C28   C     C_2   0.976585 0.469446 0.500230 0.384323
C29   C     C_1   0.872983 0.475076 0.500186 0.070526
C30   C     C_1   0.127024 0.524973 0.499691 0.067342
C31   C     C_R   0.553734 0.551780 0.251807 0.010202
C32   C     C_R   0.436479 0.449058 0.745303 0.007649
C33   C     C_R   0.550786 0.548121 0.179967 -0.092939
C34   C     C_R   0.545934 0.547036 0.743416 -0.139551
C35   C     C_R   0.440230 0.448610 0.817266 -0.099816
C36   C     C_R   0.500456 0.495295 0.147393 0.050407
C37   C     C_R   0.495816 0.496521 0.852172 0.050922
C38   C     C_R   0.452624 0.444854 0.186759 -0.044469
C39   C     C_R   0.547782 0.546258 0.814871 -0.056546
C40   C     C_3   0.612110 0.609447 0.282764 -0.263905
C41   C     C_3   0.704490 0.574377 0.316573 -0.404352
C42   C     C_3   0.368980 0.399335 0.711497 -0.272772
C43   C     C_3   0.280419 0.444176 0.681396 -0.401309
C44   C     C_3   0.538220 0.160377 0.630926 -0.277589
C45   C     C_R   0.503916 0.500795 0.291662 0.030194
C46   C     C_3   0.443474 0.137697 0.661053 -0.448684
C47   C     C_3   0.380812 0.841184 0.604117 -0.273899
C48   C     C_3   0.445164 0.866299 0.661008 -0.447544
C49   C     C_R   0.492131 0.498179 0.707839 0.026207
C50   C     C_R   0.410985 0.495002 0.036445 0.389390
C51   C     C_R   0.585594 0.492643 0.963430 0.385562
C52   C     C_R   0.410553 0.496120 0.964846 -0.129487
Cu1   Cu    Cu3+1 0.500030 0.426640 0.500000 0.967950
Cu2   Cu    Cu3+1 0.499970 0.573360 0.500000 0.962263
F1    F     F_    0.025866 0.401136 0.500867 -0.628142
F2    F     F_    0.974147 0.598922 0.499068 -0.627061
F3    F     F_    0.452759 0.169707 0.383107 -0.603790
F4    F     F_    0.618529 0.828109 0.411893 -0.604987
F5    F     F_    0.333183 0.938315 0.464236 -0.598206
F6    F     F_    0.671214 0.061195 0.521842 -0.600072
F7    F     F_    0.325569 0.498289 0.070919 -0.606285
F8    F     F_    0.671146 0.489178 0.929119 -0.612274
H1    H     H_    0.454313 0.311519 0.396321 0.155911
H2    H     H_    0.587948 0.585329 0.715734 0.135544
H3    H     H_    0.342011 0.498884 0.938214 0.152789
H4    H     H_    0.654359 0.489696 0.061782 0.156757
H5    H     H_    0.543632 0.305685 0.603793 0.139420
H6    H     H_    0.396310 0.694247 0.579465 0.140506
H7    H     H_    0.688221 0.534955 0.358051 0.159751
H8    H     H_    0.751273 0.544477 0.277650 0.169059
H9    H     H_    0.744721 0.618246 0.339114 0.176292
H10   H     H_    0.633981 0.648810 0.242540 0.160737
H11   H     H_    0.567249 0.643911 0.319231 0.181122
H12   H     H_    0.609185 0.685774 0.424265 0.141682
H13   H     H_    0.238071 0.473369 0.723008 0.162028
H14   H     H_    0.301747 0.485619 0.643256 0.153575
H15   H     H_    0.233796 0.406570 0.655525 0.168491
H16   H     H_    0.406842 0.364655 0.671673 0.167521
H17   H     H_    0.342706 0.359442 0.749569 0.139937
H18   H     H_    0.456932 0.112304 0.712769 0.158171
H19   H     H_    0.390460 0.186966 0.666206 0.163085
H20   H     H_    0.412408 0.096590 0.628061 0.152080
H21   H     H_    0.591179 0.111271 0.626922 0.215249
H22   H     H_    0.569218 0.197572 0.668151 0.147048
H23   H     H_    0.350092 0.079517 0.472448 0.187357
H24   H     H_    0.490648 0.818171 0.682828 0.165907
H25   H     H_    0.492534 0.907862 0.641230 0.148418
H26   H     H_    0.399340 0.891975 0.702698 0.159100
H27   H     H_    0.335172 0.889279 0.583011 0.217975
H28   H     H_    0.330194 0.804040 0.627819 0.148627
H29   H     H_    0.650889 0.920101 0.523670 0.186306
H30   H     H_    0.587816 0.586815 0.148845 0.119268
H31   H     H_    0.399208 0.410898 0.846548 0.114978
H32   H     H_    0.414301 0.403080 0.162218 0.173199
H33   H     H_    0.589470 0.584831 0.841073 0.169042
H34   H     H_    0.416509 0.407896 0.287351 0.138788
N1    N     N_R   0.500010 0.316380 0.499980 -0.273547
N2    N     N_R   0.499990 0.683620 0.500020 -0.274013
O1    O     O_R   0.500040 0.438020 0.599820 -0.517012
O2    O     O_R   0.499960 0.561980 0.400180 -0.501508
O3    O     O_R   0.500000 0.561930 0.599810 -0.509241
O4    O     O_R   0.500000 0.438070 0.400190 -0.514352
O5    O     O_R   0.637870 0.429290 0.499990 -0.472620
O6    O     O_R   0.362130 0.570710 0.500010 -0.486967
O7    O     O_R   0.637830 0.553200 0.499980 -0.496139
O8    O     O_R   0.362170 0.446800 0.500020 -0.485184

loop_
_geom_bond_atom_site_label_1
_geom_bond_atom_site_label_2
_ccdc_geom_bond_type
C4    C36   S    
C23   C45   A    
Cu2   O3    S    
C5    H5    S    
C44   H21   S    
C1    O1    A    
Cu1   Cu2   S    
Cu1   O1    S    
C18   C24   A    
C6    N2    A    
Cu2   O6    S    
C28   C29   S    
C19   C21   A    
C17   O6    A    
C11   C14   A    
C25   C30   T    
C33   C36   A    
C23   H34   S    
C31   C40   S    
C46   H20   S    
Cu1   O8    S    
C50   C52   A    
C48   H26   S    
C41   H9    S    
C6    H6    S    
C42   H17   S    
C27   C30   S    
C43   H13   S    
C47   H27   S    
Cu2   O2    S    
C51   F8    S    
C34   H2    S    
C28   F1    S    
C44   C46   S    
C35   H31   S    
C16   C26   S    
C18   H23   S    
C34   C39   A    
C32   C35   A    
C19   C22   A    
C21   F6    S    
C33   H30   S    
C5    C7    A    
C3    C51   A    
C27   F2    S    
C6    C8    A    
C13   F4    S    
C2    H4    S    
C10   C22   S    
C4    C50   A    
C2    C4    A    
C12   O4    A    
C46   H19   S    
C16   O5    A    
C47   C48   S    
Cu1   O4    S    
C38   H32   S    
C31   C33   A    
C48   H25   S    
C7    C44   S    
C20   F5    S    
C9    C11   A    
C39   H33   S    
C16   O7    A    
C40   C41   S    
C20   C22   A    
C42   H16   S    
C13   C15   A    
C47   H28   S    
C48   H24   S    
C42   C43   S    
C15   N2    A    
C1    O3    A    
C14   N1    A    
C41   H7    S    
C43   H14   S    
C7    C9    A    
C34   C49   A    
C40   H10   S    
Cu2   O7    S    
C35   C37   A    
C5    N1    A    
C12   C45   S    
C44   H22   S    
C10   C13   A    
C3    C52   A    
C9    C24   S    
C43   H15   S    
C23   C38   A    
C17   C25   S    
C36   C38   A    
C8    C47   S    
C37   C39   A    
C17   O8    A    
C46   H18   S    
Cu1   O5    S    
C14   H1    S    
Cu1   N1    S    
C18   C20   A    
C32   C49   A    
C12   O2    A    
C19   H29   S    
C2    C51   A    
C15   H12   S    
C3    C37   S    
C26   C29   T    
C8    C10   A    
C31   C45   A    
C21   C24   A    
C27   C28   D    
C50   F7    S    
C32   C42   S    
Cu2   N2    S    
C40   H11   S    
C11   F3    S    
C1    C49   S    
C52   H3    S    
C41   H8    S    
