data_mof_unit_53118.cif
_audit_creation_date              2012-12-10T19:19:27-0500
_audit_creation_method            fapswitch 2.2
_symmetry_space_group_name_H-M    P1
_symmetry_Int_Tables_number       1
_space_group_crystal_system       triclinic
_cell_length_a                    15.721659
_cell_length_b                    15.716418
_cell_length_c                    14.981796
_cell_angle_alpha                 89.186185
_cell_angle_beta                  89.115817
_cell_angle_gamma                 90.398792
_cell_volume                      3700.91491183

loop_
_atom_site_label
_atom_site_type_symbol
_atom_type_description
_atom_site_fract_x
_atom_site_fract_y
_atom_site_fract_z
_atom_type_partial_charge
C1    C     C_R   0.498886 0.337964 0.500626 0.904402
C2    C     C_3   0.545453 0.051685 0.422737 0.337771
C3    C     C_3   0.536697 0.954576 0.417185 -0.400055
C4    C     C_R   0.337638 0.500011 0.500650 0.896519
C5    C     C_1   0.500153 0.750754 0.498893 -0.158412
C6    C     C_3   0.495697 0.082350 0.508836 0.004834
C7    C     C_3   0.553584 0.949130 0.590347 -0.164171
C8    C     C_3   0.500467 0.917490 0.506787 0.066263
C9    C     C_3   0.406258 0.947114 0.514179 -0.644883
C10   C     C_3   0.400542 0.046901 0.504421 0.816758
C11   C     C_1   0.500399 0.825913 0.501312 0.045441
C12   C     C_3   0.083471 0.500487 0.503090 0.058638
C13   C     C_1   0.494611 0.174190 0.504342 0.032828
C14   C     C_1   0.496053 0.249383 0.502140 -0.200178
C15   C     C_3   0.470196 0.400184 0.054989 0.340316
C16   C     C_R   0.499964 0.662076 0.499426 0.910898
C17   C     C_3   0.583285 0.523998 0.049455 -0.214076
C18   C     C_3   0.586829 0.511688 0.946172 -0.282443
C19   C     C_3   0.494227 0.493515 0.090395 -0.098847
C20   C     C_3   0.465223 0.406202 0.948199 -0.263282
C21   C     C_3   0.496873 0.494539 0.909898 -0.047212
C22   C     C_3   0.435299 0.564105 0.946709 0.316503
C23   C     C_3   0.972124 0.578026 0.498586 0.516162
C24   C     C_3   0.426743 0.557546 0.051821 0.318954
C25   C     C_1   0.497633 0.497177 0.809158 0.168168
C26   C     C_1   0.498717 0.498174 0.191059 -0.013864
C27   C     C_R   0.662479 0.499822 0.499342 0.908535
C28   C     C_3   0.970661 0.459308 0.576341 -0.171789
C29   C     C_3   0.028715 0.419693 0.504990 0.490556
C30   C     C_1   0.249095 0.500211 0.502082 -0.167850
C31   C     C_1   0.751238 0.498698 0.498061 -0.145998
C32   C     C_3   0.025723 0.540631 0.574378 -0.149422
C33   C     C_3   0.008198 0.275030 0.488893 0.078953
C34   C     C_3   0.917117 0.497059 0.500537 0.047890
C35   C     C_3   0.046775 0.188262 0.510465 -0.327394
C36   C     C_3   0.988475 0.115537 0.482840 -0.966319
C37   C     C_3   0.655568 0.140710 0.365004 0.122067
C38   C     C_3   0.679262 0.106093 0.272959 -0.426643
C39   C     C_3   0.710002 0.177300 0.209850 -0.856439
C40   C     C_3   0.306836 0.048650 0.638970 0.042695
C41   C     C_3   0.222554 0.006377 0.613235 -0.395099
C42   C     C_3   0.172941 0.974717 0.695646 -0.912724
C43   C     C_3   0.283833 0.062728 0.405291 0.133458
C44   C     C_3   0.264378 0.066554 0.305787 -0.372088
C45   C     C_3   0.030570 0.538463 0.426327 -0.347754
C46   C     C_3   0.168703 0.068417 0.290125 -0.963376
C47   C     C_2   0.495362 0.085342 0.678575 0.246790
C48   C     C_2   0.519362 0.902679 0.674620 0.393789
C49   C     C_2   0.498217 0.328159 0.900096 0.503167
C50   C     C_2   0.939325 0.413810 0.659211 0.398277
C51   C     C_2   0.536902 0.336653 0.087153 0.398225
C52   C     C_2   0.660985 0.488915 0.096499 0.448657
C53   C     C_3   0.377797 0.656390 0.158218 0.109203
C54   C     C_3   0.298553 0.699113 0.120617 -0.381346
C55   C     C_3   0.236104 0.722625 0.195190 -0.953004
C56   C     C_3   0.974701 0.456247 0.428314 -0.335307
C57   C     C_3   0.350608 0.379961 0.164844 0.074149
C58   C     C_3   0.380015 0.315906 0.236112 -0.380667
C59   C     C_3   0.316351 0.308648 0.313995 -0.884604
C60   C     C_3   0.400870 0.700242 0.890206 0.146992
C61   C     C_3   0.389938 0.693401 0.789050 -0.347609
C62   C     C_3   0.323875 0.756112 0.754797 -0.922003
C63   C     C_3   0.980450 0.719989 0.449223 0.094727
C64   C     C_3   0.064074 0.747294 0.492660 -0.352592
C65   C     C_3   0.107082 0.820198 0.440367 -0.980305
C66   C     C_2   0.052560 0.588570 0.655132 0.389125
C67   C     C_1   0.174024 0.500376 0.502831 0.076765
C68   C     C_2   0.647925 0.923644 0.581602 0.662955
C69   C     C_3   0.672988 0.100531 0.670463 0.053649
C70   C     C_3   0.671754 0.193025 0.701354 -0.312028
C71   C     C_3   0.725355 0.204732 0.784373 -0.778282
C72   C     C_1   0.826419 0.497721 0.498383 0.084895
C73   C     C_3   0.544763 0.051663 0.596282 0.304013
H1    H     H_    0.597986 0.925808 0.396485 0.245801
H2    H     H_    0.396523 0.404642 0.930743 0.124070
H3    H     H_    0.951368 0.421659 0.369328 0.159441
H4    H     H_    0.058951 0.569027 0.365514 0.156979
H5    H     H_    0.514956 0.078229 0.361517 0.105963
H6    H     H_    0.995188 0.278642 0.416128 0.143462
H7    H     H_    0.947418 0.281224 0.527486 0.148667
H8    H     H_    0.108917 0.182458 0.474818 0.221483
H9    H     H_    0.058162 0.183076 0.583388 0.229554
H10   H     H_    0.926337 0.119154 0.518867 0.274873
H11   H     H_    0.018586 0.053722 0.499553 0.265383
H12   H     H_    0.492557 0.938629 0.362241 0.146490
H13   H     H_    0.977744 0.118438 0.409748 0.268236
H14   H     H_    0.711997 0.173677 0.392361 0.173217
H15   H     H_    0.604886 0.189585 0.359387 0.114053
H16   H     H_    0.730525 0.058222 0.280023 0.246686
H17   H     H_    0.623062 0.074380 0.243616 0.217086
H18   H     H_    0.659837 0.226105 0.202236 0.270861
H19   H     H_    0.725046 0.150718 0.143223 0.280394
H20   H     H_    0.768296 0.207789 0.236061 0.255297
H21   H     H_    0.291366 0.097755 0.689179 0.190228
H22   H     H_    0.348917 0.004560 0.674945 0.134900
H23   H     H_    0.376305 0.918437 0.574184 0.152264
H24   H     H_    0.182877 0.052925 0.576413 0.226912
H25   H     H_    0.234433 0.950870 0.570248 0.207398
H26   H     H_    0.211123 0.927738 0.733628 0.266522
H27   H     H_    0.113071 0.943397 0.674724 0.268163
H28   H     H_    0.156544 0.028774 0.739513 0.263363
H29   H     H_    0.253518 0.118085 0.438117 0.185348
H30   H     H_    0.256527 0.002397 0.432355 0.126596
H31   H     H_    0.294240 0.124346 0.275027 0.239518
H32   H     H_    0.291863 0.009864 0.272793 0.225789
H33   H     H_    0.137380 0.011269 0.320739 0.269793
H34   H     H_    0.370129 0.917383 0.459269 0.198029
H35   H     H_    0.156669 0.068984 0.217294 0.273860
H36   H     H_    0.140570 0.126571 0.319324 0.266125
H37   H     H_    0.459540 0.143825 0.673033 0.129184
H38   H     H_    0.453452 0.908387 0.694676 0.090672
H39   H     H_    0.466535 0.267361 0.911835 0.081401
H40   H     H_    0.984766 0.389902 0.706987 0.085356
H41   H     H_    0.529774 0.305808 0.151597 0.037009
H42   H     H_    0.665032 0.492411 0.168554 0.065008
H43   H     H_    0.408400 0.700683 0.205340 0.174862
H44   H     H_    0.359519 0.598648 0.198095 0.118621
H45   H     H_    0.588248 0.593750 0.060437 0.200873
H46   H     H_    0.317646 0.757751 0.082859 0.230662
H47   H     H_    0.266313 0.655256 0.074248 0.205496
H48   H     H_    0.215193 0.664722 0.233127 0.261731
H49   H     H_    0.179308 0.753281 0.165996 0.268572
H50   H     H_    0.266226 0.767950 0.241592 0.262892
H51   H     H_    0.281313 0.369277 0.156222 0.183348
H52   H     H_    0.353472 0.446133 0.187490 0.117839
H53   H     H_    0.387599 0.252090 0.206080 0.226331
H54   H     H_    0.441869 0.336603 0.263085 0.224559
H55   H     H_    0.304981 0.372001 0.343386 0.276579
H56   H     H_    0.628698 0.458047 0.927386 0.270205
H57   H     H_    0.341797 0.265534 0.366386 0.274148
H58   H     H_    0.254891 0.282146 0.291064 0.253338
H59   H     H_    0.420071 0.766525 0.905591 0.186826
H60   H     H_    0.339227 0.688476 0.926124 0.107838
H61   H     H_    0.451884 0.706710 0.754698 0.265822
H62   H     H_    0.369296 0.627895 0.772293 0.219929
H63   H     H_    0.260431 0.741158 0.784937 0.278481
H64   H     H_    0.319617 0.751544 0.681082 0.272414
H65   H     H_    0.342098 0.822279 0.771648 0.249241
H66   H     H_    0.939575 0.777059 0.442812 0.188815
H67   H     H_    0.615030 0.569664 0.913677 0.199424
H68   H     H_    0.991327 0.697470 0.379997 0.128541
H69   H     H_    0.050869 0.768064 0.562084 0.241408
H70   H     H_    0.108686 0.692911 0.495065 0.230817
H71   H     H_    0.120817 0.800862 0.370603 0.270029
H72   H     H_    0.168046 0.837148 0.472307 0.261831
H73   H     H_    0.065682 0.877196 0.439779 0.266331
H74   H     H_    0.004575 0.614633 0.699519 0.095040
H75   H     H_    0.691577 0.939906 0.633931 0.046162
H76   H     H_    0.740146 0.084003 0.654899 0.150940
H77   H     H_    0.651943 0.055747 0.724484 0.182395
H78   H     H_    0.361561 0.531735 0.065467 0.033687
H79   H     H_    0.697349 0.235087 0.646857 0.233441
H80   H     H_    0.605536 0.212844 0.716444 0.252965
H81   H     H_    0.699151 0.165380 0.840652 0.269251
H82   H     H_    0.724560 0.272592 0.803980 0.309782
H83   H     H_    0.792299 0.186196 0.770661 0.237597
H84   H     H_    0.371393 0.550258 0.918172 0.004378
N1    N     N_1   0.498320 0.498630 0.731150 -0.088886
N2    N     N_1   0.501700 0.501360 0.268850 -0.103881
O1    O     O_R   0.500080 0.377210 0.574260 -0.599784
O2    O     O_3   0.633547 0.073125 0.424641 -0.571083
O3    O     O_3   0.347163 0.092721 0.566363 -0.687855
O4    O     O_3   0.372959 0.066465 0.415862 -0.685390
O5    O     O_2   0.500898 0.053531 0.753080 -0.600458
O6    O     O_2   0.564476 0.857813 0.721237 -0.565814
O7    O     O_2   0.559716 0.331617 0.849395 -0.573399
O8    O     O_2   0.863323 0.403232 0.673290 -0.563255
O9    O     O_2   0.600983 0.320967 0.043530 -0.546421
O10   O     O_2   0.721228 0.459455 0.055110 -0.522649
O11   O     O_3   0.437681 0.639828 0.089012 -0.608136
O12   O     O_R   0.499910 0.377070 0.425800 -0.625781
O13   O     O_3   0.387816 0.365682 0.079544 -0.693740
O14   O     O_3   0.466638 0.645847 0.919420 -0.591301
O15   O     O_3   0.934846 0.659690 0.502453 -0.640737
O16   O     O_2   0.127748 0.598658 0.671298 -0.581379
O17   O     O_2   0.675445 0.880043 0.521064 -0.595436
O18   O     O_3   0.626746 0.092878 0.590322 -0.605975
O19   O     O_R   0.376870 0.500060 0.574220 -0.602169
O20   O     O_R   0.376690 0.499920 0.425760 -0.631394
O21   O     O_R   0.500090 0.622930 0.574200 -0.608506
O22   O     O_R   0.499920 0.622790 0.425740 -0.613490
O23   O     O_R   0.623310 0.500080 0.574240 -0.581522
O24   O     O_R   0.623130 0.499940 0.425780 -0.619568
O25   O     O_3   0.067032 0.338938 0.511530 -0.644436
Zn1   Zn    Zn3+2 0.500120 0.500090 0.599130 1.012851
Zn2   Zn    Zn3+2 0.499880 0.499910 0.400870 0.948794

loop_
_geom_bond_atom_site_label_1
_geom_bond_atom_site_label_2
_ccdc_geom_bond_type
C55   H48   S    
C59   H57   S    
C34   C56   S    
C10   O4    S    
C23   C45   S    
C29   O25   S    
C54   H47   S    
C12   C29   S    
C3    H12   S    
C18   C21   S    
C41   C42   S    
C37   H15   S    
C35   C36   S    
C7    C48   S    
C60   H59   S    
C44   H31   S    
C7    C8    S    
C7    C73   S    
C23   O15   S    
C53   C54   S    
C15   C19   S    
C38   H16   S    
C59   H58   S    
C20   C49   S    
C6    C73   S    
C56   H3    S    
C69   H77   S    
N2    Zn2   S    
C37   O2    S    
C28   C29   S    
C5    C11   T    
C57   H52   S    
C38   C39   S    
C53   H44   S    
C36   H10   S    
C70   H80   S    
C17   C52   S    
C62   H63   S    
C19   C26   S    
C3    H1    S    
C39   H20   S    
C5    C16   S    
C69   O18   S    
C7    C68   S    
O19   Zn1   S    
C28   C50   S    
C48   O6    D    
C45   C56   S    
C8    C9    S    
C46   H35   S    
C70   C71   S    
C15   C51   S    
C24   O11   S    
C9    C10   S    
C30   C67   T    
C68   H75   S    
C53   H43   S    
C57   O13   S    
C73   O18   S    
C61   C62   S    
C55   H49   S    
C28   C34   S    
C58   H54   S    
C10   O3    S    
C13   C14   T    
C12   C32   S    
C60   O14   S    
C51   O9    D    
C2    C6    S    
O1    Zn1   S    
C2    O2    S    
C39   H18   S    
C35   H9    S    
C44   C46   S    
C61   H61   S    
C43   H30   S    
C68   O17   D    
C15   C20   S    
C12   C67   S    
C55   H50   S    
C51   H41   S    
C27   C31   S    
C28   C32   S    
C70   H79   S    
C47   C73   S    
C3    C8    S    
O24   Zn2   S    
C4    O19   A    
N1    Zn1   S    
O20   Zn2   S    
C65   H71   S    
C16   O22   A    
C33   H6    S    
C36   H13   S    
C58   C59   S    
C44   H32   S    
C71   H81   S    
C1    O12   A    
C20   H2    S    
C60   C61   S    
O23   Zn1   S    
C43   C44   S    
C40   O3    S    
C37   C38   S    
C2    H5    S    
C24   H78   S    
C42   H27   S    
C23   C34   S    
C71   H82   S    
C33   O25   S    
C17   C18   S    
C63   H68   S    
C26   N2    T    
C62   H65   S    
C18   H67   S    
C9    H23   S    
C66   H74   S    
C53   O11   S    
C49   H39   S    
C47   O5    D    
C17   H45   S    
C31   C72   T    
C29   C56   S    
C58   H53   S    
C41   H24   S    
C66   O16   D    
C40   H22   S    
C65   H72   S    
C42   H28   S    
C34   C72   S    
C39   H19   S    
C50   O8    D    
C22   O14   S    
C61   H62   S    
C63   O15   S    
C32   C66   S    
C52   H42   S    
C21   C25   S    
C54   C55   S    
C40   C41   S    
O12   Zn2   S    
C63   H66   S    
C37   H14   S    
C1    O1    A    
C40   H21   S    
C12   C45   S    
C52   O10   D    
C6    C10   S    
O22   Zn2   S    
C33   H7    S    
C64   H70   S    
C9    H34   S    
C47   H37   S    
C38   H17   S    
C21   C22   S    
C35   H8    S    
C50   H40   S    
C69   H76   S    
C23   C32   S    
C2    C3    S    
C59   H55   S    
C27   O23   A    
C49   O7    D    
C42   H26   S    
C64   C65   S    
C57   H51   S    
C57   C58   S    
C64   H69   S    
C22   H84   S    
C36   H11   S    
C8    C11   S    
C71   H83   S    
C46   H33   S    
C33   C35   S    
C15   O13   S    
C19   C24   S    
C22   C24   S    
C62   H64   S    
C69   C70   S    
C27   O24   A    
C43   H29   S    
O21   Zn1   S    
C63   C64   S    
C17   C19   S    
C48   H38   S    
C20   C21   S    
C46   H36   S    
C25   N1    T    
C41   H25   S    
C18   H56   S    
C45   H4    S    
C1    C14   S    
C4    O20   A    
C65   H73   S    
C54   H46   S    
C60   H60   S    
C4    C30   S    
C16   O21   A    
C6    C13   S    
C43   O4    S    
