data_mof_unit_38917.cif
_audit_creation_date              2013-03-05T16:42:22-0500
_audit_creation_method            fapswitch 2.2
_symmetry_space_group_name_H-M    P1
_symmetry_Int_Tables_number       1
_space_group_crystal_system       triclinic
_cell_length_a                    9.892971
_cell_length_b                    10.696845
_cell_length_c                    15.311439
_cell_angle_alpha                 90.876725
_cell_angle_beta                  68.203966
_cell_angle_gamma                 89.789519
_cell_volume                      1504.22517999

loop_
_atom_site_label
_atom_site_type_symbol
_atom_site_description
_atom_site_fract_x
_atom_site_fract_y
_atom_site_fract_z
_atom_type_partial_charge
O1    O     O_R   0.385310 0.683210 0.499990 -0.616393
O2    O     O_R   0.614650 0.683240 0.500000 -0.624980
C1    C     C_R   0.500900 0.739872 0.497903 0.869738
O3    O     O_R   0.319830 0.499970 0.632240 -0.627190
O4    O     O_R   0.549170 0.500000 0.632250 -0.559695
C2    C     C_R   0.409023 0.493392 0.676150 0.906872
Zn1   Zn    Zn3+2 0.346870 0.499980 0.499990 0.993613
Zn2   Zn    Zn3+2 0.653130 0.500020 0.500010 0.985422
O5    O     O_R   0.385350 0.316760 0.500000 -0.586676
O6    O     O_R   0.614690 0.316790 0.500010 -0.596641
O7    O     O_R   0.450830 0.500000 0.367750 -0.567284
O8    O     O_R   0.680170 0.500030 0.367760 -0.633966
C3    C     C_R   0.501247 0.260178 0.498439 0.923038
C4    C     C_R   0.590875 0.497361 0.323528 0.868686
C5    C     C_R   0.349275 0.473307 0.777949 -0.167612
C6    C     C_R   0.643181 0.466181 0.223182 -0.060855
C7    C     C_R   0.159087 0.518092 0.928501 -0.191723
C8    C     C_R   0.210569 0.520594 0.831237 -0.243809
C9    C     C_R   0.431149 0.409034 0.821946 0.246348
C10   C     C_R   0.382658 0.410815 0.921921 -0.032160
C11   C     C_R   0.247763 0.472219 0.973824 0.136929
C12   C     C_R   0.469790 0.368535 0.972109 0.057859
C13   C     C_R   0.442829 0.420665 0.062473 0.069867
C14   C     C_R   0.304956 0.474653 0.113217 -0.188170
C15   C     C_R   0.206134 0.494442 0.070191 -0.222230
C16   C     C_R   0.582940 0.278615 0.936707 -0.112309
C17   C     C_R   0.685953 0.263414 0.977933 -0.230696
C18   C     C_R   0.676164 0.335217 0.056933 0.154588
C19   C     C_R   0.553686 0.414493 0.099769 0.109384
C20   C     C_R   0.783589 0.325607 0.096185 -0.188166
C21   C     C_R   0.765574 0.388962 0.180378 -0.209205
C22   C     C_R   0.546194 0.486574 0.178227 -0.185801
H1    H     H_    0.101682 0.537434 0.110763 0.147447
H2    H     H_    0.459652 0.554302 0.209452 0.140516
H3    H     H_    0.841568 0.371368 0.214747 0.159211
H4    H     H_    0.774062 0.196419 0.947350 0.155347
H5    H     H_    0.054323 0.561085 0.968289 0.153546
H6    H     H_    0.144735 0.565670 0.797726 0.170066
H7    H     H_    0.269945 0.499861 0.186932 0.166100
H8    H     H_    0.591423 0.216732 0.878604 0.197545
H9    H     H_    0.877169 0.264325 0.064513 0.147875
C23   C     C_R   0.376282 0.937451 0.504610 0.146950
C24   C     C_R   0.505559 0.871390 0.486634 -0.116818
C25   C     C_R   0.639133 0.933852 0.455456 -0.215150
H10   H     H_    0.741729 0.883482 0.435239 0.175968
C26   C     C_R   0.639452 0.063347 0.456202 -0.186955
H11   H     H_    0.742242 0.111843 0.435935 0.180603
C27   C     C_R   0.506169 0.128315 0.488794 -0.110563
C28   C     C_R   0.376647 0.064967 0.507289 0.221960
C29   C     C_3   0.239754 0.072995 0.592722 -0.444092
C30   C     C_3   0.236510 0.931803 0.587733 -0.511927
H12   H     H_    0.258356 0.109588 0.655707 0.200513
H13   H     H_    0.148313 0.118364 0.579503 0.254554
H14   H     H_    0.247891 0.885615 0.649277 0.199637
H15   H     H_    0.146858 0.897546 0.566875 0.218758
C31   C     C_R   0.908200 0.600334 0.535670 0.193758
N1    N     N_R   0.856900 0.500860 0.500610 -0.115020
C32   C     C_R   0.951980 0.406961 0.456860 -0.161918
H16   H     H_    0.916173 0.331518 0.422999 0.171234
C33   C     C_R   0.096233 0.406651 0.455587 0.326852
N2    N     N_R   0.142540 0.500820 0.500610 -0.163019
C34   C     C_R   0.049065 0.598418 0.538151 0.146735
C35   C     C_3   0.992928 0.641253 0.638661 -0.488053
C36   C     C_3   0.843225 0.652090 0.633402 -0.443371
H17   H     H_    0.000130 0.566577 0.686547 0.226341
H18   H     H_    0.036757 0.732269 0.650114 0.193163
H19   H     H_    0.761247 0.590736 0.682396 0.269027
H20   H     H_    0.806101 0.750544 0.634516 0.192790
N3    N     N_R   0.190417 0.304992 0.407957 0.218887
O9    O     O_R   0.141898 0.191408 0.423985 -0.442042
O10   O     O_R   0.298936 0.325794 0.329911 -0.394712
N4    N     N_R   0.565264 0.349211 0.763932 0.187803
O11   O     O_R   0.689432 0.393761 0.760151 -0.430068
O12   O     O_R   0.563558 0.256146 0.708620 -0.416260

loop_
_geom_bond_atom_site_label_1
_geom_bond_atom_site_label_2
_geom_bond_distance
_ccdc_geom_bond_type
C5    C8    1.398350 A    
C35   H17   1.112225 S    
C9    C10   1.423875 A    
C6    C21   1.401675 A    
Zn1   O7    1.900287 S    
C1    C24   1.418821 S    
C16   C17   1.393950 A    
C36   H20   1.111870 S    
C18   C19   1.415177 A    
C19   C22   1.395793 A    
O4    C2    1.299699 A    
O7    C4    1.296637 A    
C32   C33   1.419969 A    
C14   H7    1.079960 S    
C31   N1    1.366291 A    
N3    O10   1.298959 A    
O5    C3    1.286710 A    
Zn1   N2    2.017911 S    
C2    C5    1.466993 S    
C29   H12   1.112610 S    
C13   C14   1.411067 A    
C31   C36   1.488856 S    
C20   H9    1.083687 S    
C23   C30   1.493855 S    
C31   C34   1.408210 A    
C35   H18   1.104969 S    
C9    N4    1.435303 S    
N3    O9    1.301061 A    
O3    Zn1   1.941568 S    
C25   C26   1.385081 A    
C7    C8    1.384209 A    
C26   C27   1.401648 A    
C29   H13   1.109309 S    
C36   H19   1.103802 S    
C14   C15   1.384059 A    
O3    C2    1.295033 A    
C32   H16   1.082223 S    
C7    C11   1.396906 A    
C33   N2    1.384353 A    
O1    C1    1.286313 A    
C22   H2    1.080422 S    
C5    C9    1.413448 A    
C24   C25   1.402964 A    
C34   C35   1.492856 S    
Zn2   N1    2.019373 S    
C3    C27   1.414756 S    
Zn2   O8    1.941565 S    
C29   C30   1.512131 S    
C7    H5    1.084373 S    
N4    O12   1.301339 A    
C27   C28   1.387092 A    
O8    C4    1.297593 A    
C4    C6    1.460239 S    
C23   C24   1.391676 A    
C13   C19   1.413836 A    
C25   H10   1.083458 S    
Zn1   O5    1.995145 S    
C11   C15   1.393029 A    
C26   H11   1.083495 S    
O1    Zn1   1.997905 S    
O2    Zn2   1.995145 S    
C10   C12   1.427507 A    
N4    O11   1.300659 A    
O6    C3    1.285073 A    
O4    Zn2   1.900287 S    
C17   H4    1.083819 S    
C6    C22   1.391222 A    
C30   H14   1.112377 S    
C18   C20   1.405922 A    
O2    C1    1.287161 A    
C8    H6    1.083226 S    
C16   H8    1.078337 S    
N1    C32   1.359016 A    
C20   C21   1.398080 A    
C33   N3    1.430451 S    
C21   H3    1.083205 S    
C30   H15   1.109980 S    
N2    C34   1.362084 A    
C23   C28   1.364064 A    
C35   C36   1.516867 S    
C10   C11   1.426155 A    
Zn2   O6    1.997905 S    
C28   C29   1.494242 S    
C12   C16   1.413363 A    
C17   C18   1.395160 A    
C12   C13   1.413391 A    
C15   H1    1.084559 S    
