data_mof_unit_45157.cif
_audit_creation_date              2012-12-11T16:08:44-0500
_audit_creation_method            fapswitch 2.2
_symmetry_space_group_name_H-M    P1
_symmetry_Int_Tables_number       1
_space_group_crystal_system       triclinic
_cell_length_a                    12.96763
_cell_length_b                    13.259609
_cell_length_c                    27.717045
_cell_angle_alpha                 94.628906
_cell_angle_beta                  90.277943
_cell_angle_gamma                 119.279979
_cell_volume                      4137.99966233

loop_
_atom_site_label
_atom_site_type_symbol
_atom_type_description
_atom_site_fract_x
_atom_site_fract_y
_atom_site_fract_z
_atom_type_partial_charge
C1    C     C_R   0.627633 0.896204 0.427099 0.541742
C2    C     C_R   0.661872 0.427495 0.237245 -0.020187
C3    C     C_R   0.653818 0.414640 0.286958 0.283816
C4    C     C_R   0.672011 0.327254 0.305114 0.031270
C5    C     C_R   0.687516 0.355603 0.205657 -0.011203
C6    C     C_1   0.696092 0.372600 0.154908 -0.038197
C7    C     C_1   0.654609 0.301626 0.354965 -0.037023
C8    C     C_1   0.704317 0.396631 0.113580 0.008464
C9    C     C_R   0.175857 0.750542 0.350898 -0.116369
C10   C     C_R   0.161553 0.743080 0.301008 0.014394
C11   C     C_R   0.149366 0.733335 0.200405 0.002237
C12   C     C_R   0.601064 0.222231 0.440621 0.551373
C13   C     C_R   0.142325 0.639616 0.222994 -0.102588
C14   C     C_R   0.146755 0.643830 0.273103 -0.099374
C15   C     C_R   0.136806 0.725018 0.150579 -0.158769
C16   C     C_R   0.126428 0.810032 0.127407 0.016206
C17   C     C_R   0.208354 0.947817 0.357201 -0.098166
C18   C     C_R   0.189970 0.940889 0.306939 0.013390
C19   C     C_R   0.170324 0.838927 0.278651 0.026048
C20   C     C_R   0.197981 0.035303 0.283909 0.225986
C21   C     C_R   0.185915 0.027406 0.233460 -0.055665
C22   C     C_R   0.167809 0.926936 0.204856 -0.017195
C23   C     C_R   0.268410 0.876191 0.425890 0.543921
C24   C     C_R   0.162349 0.833230 0.227949 0.011258
C25   C     C_R   0.150631 0.915627 0.153958 0.215782
C26   C     C_R   0.208199 0.855390 0.378597 -0.020052
C27   C     C_R   0.743706 0.948369 0.354858 -0.094631
C28   C     C_R   0.745864 0.939495 0.304729 0.022428
C29   C     C_R   0.744043 0.922640 0.203859 -0.025055
C30   C     C_R   0.827539 0.024490 0.230605 -0.091821
C31   C     C_R   0.830347 0.033096 0.280802 0.224952
C32   C     C_R   0.750246 0.911842 0.154051 -0.116619
C33   C     C_R   0.679817 0.804742 0.127485 -0.021764
C34   C     C_R   0.627404 0.898230 0.564846 0.546918
C35   C     C_R   0.566176 0.760296 0.352090 -0.084694
C36   C     C_R   0.569954 0.744758 0.301537 0.009381
C37   C     C_R   0.658225 0.837081 0.277829 -0.023986
C38   C     C_R   0.485004 0.641876 0.274139 0.243564
C39   C     C_R   0.490109 0.630641 0.222977 0.253611
C40   C     C_R   0.577145 0.724097 0.199836 0.022903
C41   C     C_R   0.658948 0.828040 0.227217 -0.007616
C42   C     C_R   0.588979 0.713326 0.149666 -0.097342
C43   C     C_R   0.649976 0.863471 0.378282 -0.031501
C44   C     C_R   0.743478 0.299451 0.650340 -0.116298
C45   C     C_R   0.604098 0.228485 0.577967 0.545727
C46   C     C_R   0.760351 0.328887 0.700368 0.005353
C47   C     C_R   0.774540 0.361319 0.802106 0.006166
C48   C     C_R   0.857669 0.340918 0.777396 -0.127911
C49   C     C_R   0.849987 0.323763 0.726798 -0.121682
C50   C     C_R   0.779188 0.375826 0.852817 -0.131687
C51   C     C_R   0.694257 0.394936 0.876733 -0.002240
C52   C     C_R   0.577400 0.336408 0.648777 -0.119368
C53   C     C_R   0.591216 0.363300 0.698646 0.007103
C54   C     C_R   0.680416 0.355629 0.724819 0.050133
C55   C     C_R   0.511180 0.388602 0.723056 -0.118329
C56   C     C_R   0.271348 0.879075 0.563301 0.546013
C57   C     C_R   0.515178 0.399827 0.773399 -0.133388
C58   C     C_R   0.600627 0.387976 0.799652 0.002799
C59   C     C_R   0.685838 0.369157 0.775547 0.056446
C60   C     C_R   0.603183 0.396849 0.849768 -0.131153
C61   C     C_R   0.646923 0.295465 0.625215 0.000017
C62   C     C_1   0.219801 0.861176 0.609650 0.020006
C63   C     C_R   0.064594 0.748359 0.717325 0.268943
C64   C     C_R   0.050593 0.739706 0.767517 -0.072652
C65   C     C_R   0.234523 0.920443 0.785017 -0.114156
C66   C     C_R   0.249128 0.929689 0.735390 -0.154374
C67   C     C_1   0.634208 0.271751 0.395352 0.014491
C68   C     C_R   0.165213 0.843804 0.701502 0.078185
C69   C     C_R   0.135942 0.824945 0.801162 0.025592
C70   C     C_1   0.120458 0.813323 0.852171 -0.022175
C71   C     C_1   0.189325 0.851253 0.650818 0.029176
C72   C     C_1   0.098583 0.796870 0.893946 0.005510
C73   C     C_1   0.648751 0.857583 0.608338 0.023072
C74   C     C_R   0.790815 0.854803 0.717952 -0.139535
C75   C     C_R   0.805627 0.841001 0.766989 0.252678
C76   C     C_R   0.593317 0.712438 0.768605 -0.127641
C77   C     C_R   0.578939 0.726391 0.719941 0.242918
C78   C     C_R   0.698695 0.256308 0.273244 -0.116277
C79   C     C_R   0.677857 0.799612 0.694658 0.018861
C80   C     C_R   0.705568 0.771185 0.792463 0.036114
C81   C     C_1   0.717189 0.763267 0.843683 0.007277
C82   C     C_1   0.663308 0.828446 0.646828 0.017917
C83   C     C_1   0.729686 0.758791 0.886512 0.004209
C84   C     C_R   0.065924 0.773178 0.079099 0.575437
C85   C     C_R   0.716955 0.441116 0.067262 0.552641
C86   C     C_R   0.719752 0.782665 0.080705 0.550806
C87   C     C_R   0.056371 0.766346 0.941172 0.540088
C88   C     C_R   0.711466 0.437633 0.928094 0.538429
C89   C     C_R   0.706809 0.270574 0.223766 -0.112177
C90   C     C_R   0.749823 0.753815 0.937091 0.553766
Cr1   Cr    Cr6+3 0.416430 0.829200 0.492370 1.077033
Cr2   Cr    Cr6+3 0.674630 0.087020 0.504170 1.053845
Cr3   Cr    Cr6+3 0.408920 0.083740 0.503490 1.056002
Cr4   Cr    Cr6+3 0.914010 0.832750 0.013970 1.097912
Cr5   Cr    Cr6+3 0.922310 0.578600 0.003000 1.029777
Cr6   Cr    Cr6+3 0.656280 0.574630 0.003870 1.042663
H1    H     H_    0.711412 0.188377 0.286616 0.155117
H2    H     H_    0.190953 0.100953 0.217122 0.216742
H3    H     H_    0.232137 0.027849 0.379344 0.195463
H4    H     H_    0.818812 0.983680 0.136742 0.155982
H5    H     H_    0.809270 0.026779 0.375629 0.206509
H6    H     H_    0.892949 0.096674 0.212457 0.159742
H7    H     H_    0.533686 0.631321 0.128403 0.193899
H8    H     H_    0.727222 0.214882 0.199690 0.131186
H9    H     H_    0.495331 0.695655 0.371273 0.195154
H10   H     H_    0.850370 0.375804 0.873485 0.131711
H11   H     H_    0.799038 0.270189 0.631914 0.139321
H12   H     H_    0.926892 0.335709 0.797204 0.125432
H13   H     H_    0.912421 0.303988 0.708412 0.129648
H14   H     H_    0.537780 0.413039 0.867648 0.141968
H15   H     H_    0.450804 0.416657 0.791798 0.120614
H16   H     H_    0.442845 0.395357 0.703275 0.154354
H17   H     H_    0.504836 0.336444 0.629160 0.146906
H18   H     H_    0.647646 0.493971 0.223195 0.153019
H19   H     H_    0.973850 0.666300 0.780345 0.110082
H20   H     H_    0.300607 0.987014 0.810720 0.131361
H21   H     H_    0.327231 0.003042 0.723369 0.124470
H22   H     H_    0.866814 0.911427 0.698419 0.109805
H23   H     H_    0.516396 0.657936 0.788170 0.142501
H24   H     H_    0.123076 0.645553 0.130345 0.152021
H25   H     H_    0.173726 0.678275 0.367541 0.159329
H26   H     H_    0.131469 0.562261 0.201887 0.144242
H27   H     H_    0.141219 0.570546 0.290029 0.175694
O1    O     O_R   0.296680 0.802170 0.437540 -0.508541
O2    O     O_R   0.662610 0.183990 0.557860 -0.502716
O3    O     O_R   0.500730 0.201280 0.562180 -0.514056
O4    O     O_R   0.312500 0.978850 0.548170 -0.500897
O5    O     O_3   0.499990 0.999990 0.500010 -0.260308
O6    O     O_R   0.820790 0.857990 0.068830 -0.488008
O7    O     O_R   0.016700 0.827330 0.062850 -0.433497
O8    O     O_R   0.041970 0.673520 0.060040 -0.529618
O9    O     O_R   0.817980 0.483660 0.048840 -0.494875
O10   O     O_R   0.637200 0.461990 0.052510 -0.490040
O11   O     O_R   0.664790 0.681920 0.057970 -0.500890
O12   O     O_R   0.525380 0.838530 0.443500 -0.497962
O13   O     O_R   0.815840 0.852920 0.961840 -0.489062
O14   O     O_R   0.012100 0.822630 0.963670 -0.500296
O15   O     O_R   0.037010 0.668460 0.953040 -0.508441
O16   O     O_R   0.813390 0.478970 0.949660 -0.502265
O17   O     O_R   0.632250 0.456930 0.945520 -0.524136
O18   O     O_R   0.660200 0.677230 0.958780 -0.498539
O19   O     O_3   0.830870 0.661990 0.006950 -0.286165
O20   O     O_R   0.702130 0.995190 0.446810 -0.509527
O21   O     O_R   0.661770 0.181390 0.458760 -0.489553
O22   O     O_R   0.499820 0.198480 0.455280 -0.490987
O23   O     O_R   0.311660 0.976250 0.449080 -0.500515
O24   O     O_R   0.297580 0.804960 0.544440 -0.483557
O25   O     O_R   0.526220 0.841130 0.542590 -0.477297
O26   O     O_R   0.703030 0.997990 0.553710 -0.513182
Cl1   Cl    Cl    0.224632 0.166318 0.316532 -0.478891
Cl2   Cl    Cl    0.939838 0.164514 0.311766 -0.549791
O27   O     O_3   0.411963 0.530851 0.194343 -0.697222
H28   H     H_    0.363072 0.467974 0.214588 0.392858
Cl3   Cl    Cl    0.372113 0.527855 0.303747 -0.547440
O28   O     O_3   0.982850 0.664578 0.683491 -0.685106
H29   H     H_    0.917960 0.604087 0.700687 0.326118
O29   O     O_3   0.915851 0.897003 0.790935 -0.692976
H30   H     H_    0.976257 0.941385 0.767859 0.322885
Cl4   Cl    Cl    0.435231 0.654740 0.692259 -0.606003
O30   O     O_3   0.626914 0.487924 0.315704 -0.658763
H31   H     H_    0.627759 0.473234 0.350082 0.343251
Cl5   Cl    Cl    0.158506 0.032040 0.123846 -0.588154

loop_
_geom_bond_atom_site_label_1
_geom_bond_atom_site_label_2
_ccdc_geom_bond_type
C66   C68   A    
O29   H30   S    
C21   H2    S    
C55   H16   S    
C11   C13   A    
C35   C36   A    
Cr2   O2    S    
Cr1   O24   S    
C48   H12   S    
C53   C54   A    
C46   C49   A    
Cr4   O7    S    
C5    C6    S    
C17   C26   A    
C22   C24   A    
C36   C37   A    
C8    C85   S    
C29   C32   A    
C52   C61   A    
C85   O9    A    
C30   C31   A    
C23   C26   S    
C58   C60   A    
C15   C16   A    
C11   C24   A    
C16   C84   S    
C90   O13   A    
C15   H24   S    
C18   C19   A    
C56   O4    A    
C45   C61   S    
Cr2   O20   S    
Cr3   O3    S    
C88   O17   A    
Cr6   O18   S    
C11   C15   A    
C86   O11   A    
C45   O2    A    
C66   H21   S    
C9    H25   S    
Cr3   O22   S    
C35   C43   A    
C75   C80   A    
C10   C19   A    
C75   O29   S    
C40   C42   A    
C64   H19   S    
C21   C22   A    
C42   H7    S    
C3    O30   S    
Cr5   O8    S    
C46   C54   A    
C34   O25   A    
C87   O14   A    
C4    C7    S    
Cr2   O5    S    
Cr1   O25   S    
C81   C83   T    
C34   O26   A    
C44   C46   A    
C9    C26   A    
C50   C51   A    
C47   C50   A    
C54   C59   A    
C53   C55   A    
C78   C89   A    
C38   C39   A    
C74   H22   S    
C12   C67   S    
C76   H23   S    
C20   Cl1   S    
Cr1   O5    S    
Cr4   O6    S    
C76   C77   A    
C10   C14   A    
C39   C40   A    
Cr6   O11   S    
C58   C59   A    
C52   H17   S    
C47   C59   A    
C39   O27   S    
C22   C25   A    
C12   O21   A    
Cr4   O19   S    
C12   O22   A    
C51   C88   S    
C33   C86   S    
Cr3   O4    S    
C88   O16   A    
C4    C78   A    
C29   C30   A    
C1    O20   A    
C27   C43   A    
C31   Cl2   S    
Cr4   O13   S    
C47   C48   A    
C45   O3    A    
C30   H6    S    
C78   H1    S    
C17   C18   A    
C77   C79   A    
Cr3   O23   S    
C64   C69   A    
C20   C21   A    
C17   H3    S    
Cr6   O10   S    
C1    C43   S    
C77   Cl4   S    
C48   C49   A    
Cr1   O1    S    
C55   C57   A    
C89   H8    S    
Cr6   O19   S    
C23   O23   A    
C65   H20   S    
C56   C62   S    
C2    C5    A    
C33   C42   A    
C87   O15   A    
C3    C4    A    
C73   C82   T    
Cr2   O26   S    
C72   C87   S    
C52   C53   A    
C49   H13   S    
C9    C10   A    
C44   H11   S    
C16   C25   A    
C83   C90   S    
C63   C68   A    
C40   C41   A    
Cr5   O15   S    
C14   H27   S    
C29   C41   A    
C28   C31   A    
C76   C80   A    
C80   C81   S    
Cr5   O9    S    
Cr6   O17   S    
C79   C82   S    
C6    C8    T    
C86   O6    A    
C23   O1    A    
C44   C61   A    
C84   O8    A    
Cr5   O16   S    
C74   C79   A    
O30   H31   S    
C56   O24   A    
C36   C38   A    
C19   C24   A    
Cr3   O5    S    
C63   O28   S    
C1    O12   A    
C32   C33   A    
C13   H26   S    
C2    H18   S    
C57   C58   A    
C57   H15   S    
C28   C37   A    
C68   C71   S    
C65   C69   A    
C90   O18   A    
C84   O7    A    
C27   H5    S    
C62   C71   T    
C2    C3    A    
C18   C20   A    
C37   C41   A    
C69   C70   S    
Cr2   O21   S    
C25   Cl5   S    
C60   H14   S    
C34   C73   S    
C7    C67   T    
C63   C64   A    
C32   H4    S    
Cr1   O12   S    
O27   H28   S    
Cr5   O19   S    
C65   C66   A    
O28   H29   S    
C50   H10   S    
Cr4   O14   S    
C38   Cl3   S    
C70   C72   T    
C51   C60   A    
C13   C14   A    
C35   H9    S    
C5    C89   A    
C74   C75   A    
C85   O10   A    
C27   C28   A    
