data_mof_unit_26574.cif
_audit_creation_date              2012-12-10T17:44:36-0500
_audit_creation_method            fapswitch 2.2
_symmetry_space_group_name_H-M    P1
_symmetry_Int_Tables_number       1
_space_group_crystal_system       triclinic
_cell_length_a                    10.098924
_cell_length_b                    10.775625
_cell_length_c                    15.553032
_cell_angle_alpha                 96.570324
_cell_angle_beta                  69.65936
_cell_angle_gamma                 92.325445
_cell_volume                      1576.55102919

loop_
_atom_site_label
_atom_site_type_symbol
_atom_type_description
_atom_site_fract_x
_atom_site_fract_y
_atom_site_fract_z
_atom_type_partial_charge
C1    C     C_R   0.507372 0.737107 0.488763 0.971446
C2    C     C_R   0.723003 0.540036 0.037755 -0.338622
C3    C     C_R   0.590648 0.486244 0.084825 -0.139757
C4    C     C_R   0.411303 0.492905 0.674065 1.047987
C5    C     C_R   0.809272 0.587209 0.089160 0.684686
C6    C     C_R   0.766024 0.575883 0.183545 0.545818
C7    C     C_R   0.565598 0.454519 0.173491 0.725441
C8    C     C_R   0.316966 0.849026 0.404406 0.261027
C9    C     C_R   0.197455 0.905897 0.402566 0.565343
C10   C     C_R   0.187690 0.034752 0.419321 0.261662
C11   C     C_R   0.310183 0.100979 0.416451 0.321292
C12   C     C_R   0.426076 0.450145 0.904099 -0.153193
C13   C     C_R   0.398333 0.049890 0.455203 -0.151273
C14   C     C_R   0.407101 0.918196 0.445442 -0.163821
C15   C     C_R   0.520423 0.864006 0.461377 -0.180520
C16   C     C_R   0.502677 0.258499 0.490926 0.903868
C17   C     C_R   0.646871 0.931902 0.441959 0.357803
C18   C     C_R   0.642320 0.060460 0.437754 0.398757
C19   C     C_R   0.511040 0.120938 0.468614 -0.186594
C20   C     C_R   0.832397 0.715641 0.583005 0.435990
C21   C     C_R   0.906556 0.826642 0.590166 0.398966
C22   C     C_R   0.037681 0.820303 0.597573 -0.376644
C23   C     C_R   0.292663 0.398371 0.950163 -0.339647
C24   C     C_R   0.096244 0.705099 0.593919 0.438533
C25   C     C_R   0.049312 0.596395 0.551301 -0.015724
C26   C     C_R   0.907092 0.599658 0.548160 -0.101986
C27   C     C_R   0.955076 0.420209 0.442619 0.728923
C28   C     C_R   0.589099 0.499656 0.325197 1.029685
C29   C     C_R   0.096765 0.422844 0.440999 0.366856
C30   C     C_R   0.359568 0.464925 0.770503 -0.369376
C31   C     C_R   0.643678 0.508115 0.225782 -0.422453
C32   C     C_R   0.202303 0.362773 0.899514 0.738448
C33   C     C_R   0.240272 0.389162 0.807724 0.249632
C34   C     C_R   0.531116 0.465728 0.945573 -0.073998
C35   C     C_R   0.443790 0.501463 0.823079 0.695330
C36   C     C_R   0.489218 0.460783 0.041188 -0.104678
C37   C     C_R   0.344768 0.438977 0.091175 0.729914
C38   C     C_R   0.251233 0.395598 0.046093 0.404914
C39   C     C_R   0.676066 0.487166 0.894871 0.441797
C40   C     C_R   0.766802 0.536904 0.941017 0.469582
Cl1   Cl    Cl    0.077276 0.359357 0.115203 -0.259149
Cl2   Cl    Cl    0.217969 0.349374 0.344238 -0.247944
Cl3   Cl    Cl    0.937464 0.585446 0.874615 -0.323041
Cl4   Cl    Cl    0.136878 0.324481 0.742578 -0.389019
Cl5   Cl    Cl    0.752040 0.434126 0.775611 -0.413725
Cl6   Cl    Cl    0.810253 0.853984 0.398730 -0.314698
Cl7   Cl    Cl    0.377022 0.721032 0.321242 -0.453711
Cl8   Cl    Cl    0.037619 0.109963 0.422135 -0.335235
Cl9   Cl    Cl    0.413432 0.134162 0.303898 -0.346158
Cl10  Cl    Cl    0.782439 0.128166 0.354371 -0.259184
Cl11  Cl    Cl    0.658675 0.728735 0.659026 -0.372922
Cl12  Cl    Cl    0.823740 0.974392 0.616923 -0.418143
Cl13  Cl    Cl    0.170255 0.706427 0.680175 -0.420490
F1    F     F_    0.932374 0.647998 0.050624 -0.518741
F2    F     F_    0.103196 0.838518 0.372354 -0.516730
F3    F     F_    0.922264 0.349764 0.375363 -0.514447
F4    F     F_    0.477528 0.359130 0.204622 -0.526464
F5    F     F_    0.845126 0.629105 0.232838 -0.505162
F6    F     F_    0.080862 0.298792 0.936582 -0.540215
F7    F     F_    0.533622 0.598255 0.801484 -0.560540
F8    F     F_    0.289553 0.474297 0.182965 -0.515566
H1    H     H_    0.082601 0.904505 0.621651 0.232038
N1    N     N_R   0.856800 0.501200 0.500850 -0.173080
N2    N     N_R   0.142390 0.501280 0.500880 -0.165430
O1    O     O_R   0.385310 0.683220 0.500000 -0.611832
O2    O     O_R   0.614640 0.683250 0.500010 -0.574831
O3    O     O_R   0.319840 0.499980 0.632240 -0.535589
O4    O     O_R   0.549160 0.500000 0.632250 -0.545340
O5    O     O_R   0.385360 0.316750 0.499990 -0.599218
O6    O     O_R   0.614690 0.316780 0.500000 -0.573916
O7    O     O_R   0.450840 0.500000 0.367750 -0.521674
O8    O     O_R   0.680160 0.500020 0.367760 -0.533526
Zn1   Zn    Zn3+2 0.346880 0.499980 0.499990 1.130439
Zn2   Zn    Zn3+2 0.653120 0.500020 0.500010 1.167827

loop_
_geom_bond_atom_site_label_1
_geom_bond_atom_site_label_2
_ccdc_geom_bond_type
C29   Cl2   S    
C27   C29   A    
C6    F5    S    
C12   C23   A    
C30   C35   A    
C36   C37   A    
C20   Cl11  S    
C3    C7    A    
C5    C6    A    
O4    Zn2   S    
O2    Zn2   S    
O1    Zn1   S    
C18   C19   A    
C40   Cl3   S    
C8    C9    A    
O6    Zn2   S    
C1    O1    A    
N2    Zn1   S    
O5    Zn1   S    
C9    F2    S    
C9    C10   A    
C39   Cl5   S    
C6    C31   A    
C29   N2    A    
C13   C14   A    
C28   O8    A    
C17   C18   A    
C7    C31   A    
C13   C19   A    
C34   C39   A    
C5    F1    S    
C16   O6    A    
C17   Cl6   S    
C38   Cl1   S    
O8    Zn2   S    
C39   C40   A    
C4    O4    A    
C27   F3    S    
C25   C26   A    
C35   F7    S    
C25   N2    A    
C26   N1    A    
C37   C38   A    
C11   Cl9   S    
C22   H1    S    
C1    O2    A    
C24   C25   A    
C12   C35   A    
C27   N1    A    
C1    C15   S    
O3    Zn1   S    
C10   Cl8   S    
C22   C24   A    
C28   O7    A    
C12   C34   A    
C18   Cl10  S    
O7    Zn1   S    
C15   C17   A    
C8    C14   A    
C30   C33   A    
C33   Cl4   S    
C28   C31   S    
C16   O5    A    
C4    O3    A    
C37   F8    S    
N1    Zn2   S    
C23   C38   A    
C23   C32   A    
C2    C3    A    
C24   Cl13  S    
C8    Cl7   S    
C32   C33   A    
C11   C13   A    
C20   C26   A    
C3    C36   A    
C16   C19   S    
C34   C36   A    
C10   C11   A    
C2    C5    A    
C2    C40   A    
C20   C21   A    
C14   C15   A    
C32   F6    S    
C21   C22   A    
C7    F4    S    
C21   Cl12  S    
C4    C30   S    
