data_mof_unit_10766.cif
_audit_creation_date              2012-10-26T19:24:22-0400
_audit_creation_method            fapswitch 2.2
_symmetry_space_group_name_H-M    P1
_symmetry_Int_Tables_number       1
_space_group_crystal_system       triclinic
_cell_length_a                    27.787217
_cell_length_b                    10.856134
_cell_length_c                    9.609778
_cell_angle_alpha                 88.955471
_cell_angle_beta                  89.241105
_cell_angle_gamma                 93.56351
_cell_volume                      2892.51641551

loop_
_atom_site_label
_atom_site_type_symbol
_atom_type_description
_atom_site_fract_x
_atom_site_fract_y
_atom_site_fract_z
_atom_type_partial_charge
C1    C     C_R   0.500659 0.261832 0.502659 0.552816
C2    C     C_R   0.971421 0.378510 0.528093 0.018395
C3    C     C_R   0.976441 0.602182 0.472153 0.018705
C4    C     C_R   0.407526 0.499602 0.500804 0.550817
C5    C     C_R   0.948651 0.489712 0.499374 0.033946
C6    C     C_R   0.941860 0.270185 0.559028 -0.140587
C7    C     C_R   0.891899 0.270483 0.558468 -0.111889
C8    C     C_R   0.869231 0.378601 0.527615 0.024508
C9    C     C_R   0.897424 0.488486 0.498022 -0.026920
C10   C     C_R   0.874236 0.597212 0.467282 0.025540
C11   C     C_R   0.823664 0.594203 0.467132 0.396295
C12   C     C_R   0.278298 0.485400 0.630414 -0.055403
C13   C     C_R   0.818716 0.379693 0.527051 0.398702
C14   C     C_R   0.718474 0.423485 0.397907 -0.062600
C15   C     C_R   0.668350 0.426172 0.398277 -0.158762
C16   C     C_R   0.495482 0.736058 0.499466 0.527390
C17   C     C_R   0.671801 0.553537 0.603217 -0.146023
C18   C     C_R   0.721874 0.550853 0.602704 -0.055522
C19   C     C_R   0.745421 0.486531 0.499576 0.239521
C20   C     C_R   0.022641 0.379196 0.525791 0.018857
C21   C     C_R   0.050395 0.492417 0.502918 0.034063
C22   C     C_R   0.027591 0.604263 0.478266 0.018576
C23   C     C_R   0.253530 0.497577 0.505534 0.244942
C24   C     C_R   0.047370 0.270061 0.545038 -0.140391
C25   C     C_R   0.106970 0.715137 0.464063 -0.110839
C26   C     C_R   0.951833 0.709006 0.438800 -0.141295
C27   C     C_R   0.901842 0.706347 0.436844 -0.113180
C28   C     C_R   0.592235 0.497310 0.499642 0.534269
C29   C     C_R   0.057031 0.714951 0.461430 -0.140053
C30   C     C_R   0.488285 0.104496 0.771225 -0.110659
C31   C     C_R   0.467659 0.036766 0.883954 -0.135369
C32   C     C_R   0.447183 0.918663 0.864597 -0.106449
C33   C     C_R   0.451511 0.863942 0.735668 -0.078953
C34   C     C_R   0.101620 0.493819 0.504645 -0.027046
C35   C     C_R   0.475935 0.928135 0.623273 0.028589
C36   C     C_R   0.488159 0.055653 0.634985 0.028061
C37   C     C_R   0.499752 0.126312 0.510072 -0.003182
C38   C     C_R   0.505542 0.065431 0.384271 -0.161909
C39   C     C_R   0.501754 0.938318 0.380482 -0.166692
C40   C     C_R   0.175507 0.387026 0.527119 0.398645
C41   C     C_R   0.489029 0.868588 0.500000 -0.005463
C42   C     C_R   0.547860 0.708401 0.128182 0.060764
C43   C     C_R   0.550069 0.816049 0.043839 -0.154266
C44   C     C_R   0.558386 0.803536 0.903219 -0.166461
C45   C     C_R   0.124911 0.383657 0.526393 0.024443
C46   C     C_R   0.552296 0.687649 0.846737 -0.085596
C47   C     C_R   0.526064 0.592472 0.921162 0.139417
C48   C     C_R   0.525091 0.596989 0.070443 0.161307
C49   C     C_R   0.475352 0.410890 0.076719 -0.015530
C50   C     C_R   0.474675 0.412264 0.929068 -0.023336
C51   C     C_R   0.180207 0.604657 0.485820 0.398426
C52   C     C_R   0.279162 0.510810 0.379286 -0.056730
C53   C     C_R   0.329343 0.511386 0.377626 -0.141329
C54   C     C_R   0.328524 0.486596 0.629178 -0.144015
C55   C     C_3   0.592206 0.710760 0.220081 -0.221807
C56   C     C_R   0.097388 0.272595 0.545650 -0.112265
C57   C     C_3   0.630371 0.628466 0.163164 -0.412527
C58   C     C_R   0.129712 0.605384 0.484477 0.024123
C59   C     C_R   0.354513 0.499315 0.502629 0.003632
C60   C     C_R   0.644810 0.492747 0.499740 0.004604
Cu1   Cu    Cu3+1 0.500000 0.499990 0.640660 0.912459
Cu2   Cu    Cu3+1 0.500000 0.500010 0.359340 0.927966
H1    H     H_    0.260109 0.520170 0.282463 0.127744
H2    H     H_    0.467401 0.076457 0.986521 0.103449
H3    H     H_    0.258579 0.475301 0.728318 0.128485
H4    H     H_    0.435191 0.771636 0.724757 0.148262
H5    H     H_    0.509242 0.894486 0.283673 0.136415
H6    H     H_    0.560239 0.905447 0.086731 0.107600
H7    H     H_    0.572406 0.881699 0.840170 0.133504
H8    H     H_    0.566470 0.677746 0.743988 0.176120
H9    H     H_    0.453196 0.341410 0.876504 0.115076
H10   H     H_    0.114435 0.186378 0.561016 0.165970
H11   H     H_    0.647978 0.376410 0.319557 0.121288
H12   H     H_    0.127747 0.802406 0.450108 0.169525
H13   H     H_    0.736436 0.373238 0.318196 0.135383
H14   H     H_    0.871043 0.184979 0.582885 0.168189
H15   H     H_    0.029315 0.179966 0.558193 0.106741
H16   H     H_    0.348363 0.521561 0.278593 0.132849
H17   H     H_    0.346918 0.476969 0.727066 0.129992
H18   H     H_    0.429673 0.867494 0.950892 0.122686
H19   H     H_    0.454926 0.338002 0.133860 0.119715
H20   H     H_    0.616215 0.530984 0.157182 0.169024
H21   H     H_    0.641897 0.660690 0.056776 0.142776
H22   H     H_    0.662491 0.634500 0.230613 0.156864
H23   H     H_    0.969989 0.796705 0.411563 0.108116
H24   H     H_    0.610722 0.804799 0.221853 0.112012
H25   H     H_    0.583928 0.698572 0.331220 0.185495
H26   H     H_    0.955986 0.183080 0.586365 0.108950
H27   H     H_    0.654233 0.604618 0.683043 0.110953
H28   H     H_    0.884885 0.790909 0.411185 0.165802
H29   H     H_    0.742471 0.599141 0.682048 0.132296
H30   H     H_    0.042801 0.804227 0.447785 0.107687
H31   H     H_    0.514364 0.116026 0.288122 0.132103
H32   H     H_    0.506424 0.191080 0.796844 0.148544
N1    N     N_R   0.201948 0.496444 0.506698 -0.399512
N2    N     N_R   0.797044 0.486605 0.497402 -0.397823
N3    N     N_R   0.500460 0.501210 0.147910 -0.240756
N4    N     N_R   0.500480 0.501290 0.852040 -0.245908
O1    O     O_R   0.500000 0.319640 0.618810 -0.513040
O2    O     O_R   0.569730 0.499970 0.618800 -0.515643
O3    O     O_R   0.569740 0.499990 0.381230 -0.512068
O4    O     O_2   0.198140 0.281795 0.547029 -0.489327
O5    O     O_2   0.791461 0.275121 0.557219 -0.495340
O6    O     O_2   0.207406 0.711190 0.466880 -0.488994
O7    O     O_2   0.801222 0.697837 0.436332 -0.500650
O8    O     O_R   0.500000 0.319660 0.381240 -0.505820
O9    O     O_R   0.430260 0.500010 0.618770 -0.505226
O10   O     O_R   0.430270 0.500030 0.381200 -0.497080
O11   O     O_R   0.500000 0.680340 0.618760 -0.528547
O12   O     O_R   0.500000 0.680360 0.381190 -0.510616

loop_
_geom_bond_atom_site_label_1
_geom_bond_atom_site_label_2
_ccdc_geom_bond_type
C10   C27   A    
C11   N2    A    
C8    C13   A    
C22   C29   A    
C15   C60   A    
C35   C36   A    
C50   H9    S    
Cu1   O11   S    
C1    O1    A    
C53   C59   A    
C16   O12   A    
C7    C8    A    
C39   C41   A    
C2    C6    A    
C48   N3    A    
C4    O10   A    
C12   C23   A    
C26   C27   A    
C47   N4    A    
C18   H29   S    
C36   C37   A    
C18   C19   A    
C30   C31   A    
C31   C32   A    
Cu2   O10   S    
C6    H26   S    
C4    C59   S    
C27   H28   S    
C25   H12   S    
C49   H19   S    
C28   O3    A    
C20   C24   A    
C45   C56   A    
C43   H6    S    
C56   H10   S    
C16   O11   A    
C57   H21   S    
C13   O5    S    
C9    C10   A    
C1    C37   S    
C1    O8    A    
Cu2   O3    S    
C28   O2    A    
C21   C22   A    
Cu1   O1    S    
C35   C41   A    
C14   C19   A    
C44   C46   A    
C33   H4    S    
C54   C59   A    
C28   C60   S    
C25   C29   A    
C40   C45   A    
C4    O9    A    
C50   N4    A    
C13   N2    A    
C2    C20   A    
C17   H27   S    
C51   C58   A    
C8    C9    A    
C21   C34   A    
C51   O6    S    
C49   N3    A    
C43   C44   A    
C5    C9    A    
C37   C38   A    
C42   C55   S    
C32   H18   S    
Cu2   N3    S    
C47   C48   A    
Cu2   O12   S    
C17   C18   A    
C57   H22   S    
C44   H7    S    
C34   C45   A    
C42   C48   A    
C11   O7    S    
C6    C7    A    
C15   H11   S    
C55   C57   S    
Cu1   O2    S    
C42   C43   A    
C40   N1    A    
C52   C53   A    
C54   H17   S    
C46   C47   A    
C14   C15   A    
C39   H5    S    
C31   H2    S    
C3    C26   A    
C3    C5    A    
C52   H1    S    
C7    H14   S    
Cu2   O8    S    
C24   C56   A    
C12   H3    S    
C30   C36   A    
C14   H13   S    
C55   H24   S    
C53   H16   S    
C30   H32   S    
C32   C33   A    
Cu1   N4    S    
C23   C52   A    
C38   C39   A    
C26   H23   S    
C38   H31   S    
C33   C35   A    
C23   N1    S    
C55   H25   S    
Cu1   Cu2   S    
Cu1   O9    S    
C46   H8    S    
C10   C11   A    
C17   C60   A    
C40   O4    S    
C2    C5    A    
C24   H15   S    
C20   C21   A    
C49   C50   A    
C25   C58   A    
C34   C58   A    
C57   H20   S    
C3    C22   A    
C16   C41   S    
C29   H30   S    
C12   C54   A    
C19   N2    S    
C51   N1    A    
