data_mof_unit_47785.cif
_audit_creation_date              2012-12-11T16:31:26-0500
_audit_creation_method            fapswitch 2.2
_symmetry_space_group_name_H-M    P1
_symmetry_Int_Tables_number       1
_space_group_crystal_system       triclinic
_cell_length_a                    6.942903
_cell_length_b                    18.292663
_cell_length_c                    20.172321
_cell_angle_alpha                 68.334585
_cell_angle_beta                  90.59159
_cell_angle_gamma                 90.744746
_cell_volume                      2380.73714551

loop_
_atom_site_label
_atom_site_type_symbol
_atom_type_description
_atom_site_fract_x
_atom_site_fract_y
_atom_site_fract_z
_atom_type_partial_charge
O1    O     O_R   0.488990 0.443920 0.942160 -0.540289
O2    O     O_R   0.823840 0.406530 0.087600 -0.538329
O3    O     O_R   0.999650 0.556080 0.057840 -0.540432
C1    C     C_R   0.655113 0.383558 0.115101 0.694352
O4    O     O_R   0.818390 0.434590 0.944530 -0.536361
O5    O     O_R   0.994160 0.584350 0.913750 -0.535946
C2    C     C_R   0.648812 0.420473 0.924094 0.722423
O6    O     O_R   0.494480 0.415650 0.086250 -0.536301
O7    O     O_3   0.662600 0.549100 0.990070 -0.367196
V1    V     V_3+5 0.935320 0.490890 0.001840 1.420845
O8    O     O_R   0.324240 0.593470 0.912400 -0.538458
C3    C     C_R   0.155285 0.616511 0.884947 0.694436
O9    O     O_R   0.329690 0.565410 0.055470 -0.536076
C4    C     C_R   0.162013 0.579546 0.075955 0.723184
V2    V     V_3+5 0.435990 0.509110 0.998160 1.420559
O10   O     O_3   0.158840 0.450900 0.009930 -0.367235
C5    C     C_3   0.981884 0.675724 0.264598 -0.327783
C6    C     C_3   0.336072 0.705615 0.246725 -0.328695
C7    C     C_3   0.327215 0.753446 0.296426 -0.329396
H1    H     H_    0.997645 0.683638 0.370477 0.139682
H2    H     H_    0.011034 0.612923 0.297204 0.135853
H3    H     H_    0.453351 0.729734 0.207153 0.135818
H4    H     H_    0.372418 0.643414 0.278921 0.139964
H5    H     H_    0.359228 0.714006 0.352290 0.138422
H6    H     H_    0.440342 0.800294 0.280514 0.135605
C8    C     C_1   0.111040 0.874567 0.378469 -0.193839
C9    C     C_3   0.140980 0.708956 0.207453 0.289622
C10   C     C_3   0.972944 0.723635 0.314230 -0.325769
C11   C     C_3   0.125899 0.790850 0.292454 0.289512
C12   C     C_3   0.086873 0.844485 0.213666 -0.327224
C13   C     C_3   0.095538 0.796604 0.163992 -0.326336
C14   C     C_1   0.117531 0.836782 0.339985 -0.101864
C15   C     C_1   0.149235 0.663037 0.159912 -0.101185
C16   C     C_1   0.155462 0.625275 0.121405 -0.193335
H7    H     H_    0.955315 0.801126 0.135579 0.136743
H8    H     H_    0.207946 0.822476 0.122741 0.140248
H9    H     H_    0.942588 0.871859 0.208836 0.138278
H10   H     H_    0.839481 0.677841 0.238124 0.136618
H11   H     H_    0.826364 0.748633 0.311281 0.137232
H12   H     H_    0.195270 0.893121 0.196104 0.134994
H13   H     H_    0.425236 0.545971 0.693028 0.110335
C17   C     C_R   0.994016 0.765455 0.875750 -0.133235
C18   C     C_R   0.913844 0.835938 0.873053 -0.117449
C19   C     C_R   0.900904 0.899229 0.808538 -0.116601
C20   C     C_R   0.968193 0.892543 0.746223 -0.144210
C21   C     C_R   0.048695 0.821453 0.747054 0.068273
C22   C     C_R   0.061763 0.756505 0.813234 0.069983
C23   C     C_R   0.119387 0.814994 0.683696 -0.185523
C24   C     C_R   0.202964 0.743470 0.686610 0.069983
C25   C     C_R   0.216024 0.678521 0.752786 0.068484
C26   C     C_R   0.145294 0.684966 0.816147 -0.185603
C27   C     C_R   0.270818 0.734548 0.624095 -0.132953
C28   C     C_R   0.351075 0.664086 0.626787 -0.121371
C29   C     C_R   0.363962 0.600786 0.691293 -0.123334
C30   C     C_R   0.296581 0.607445 0.753606 -0.143186
H14   H     H_    0.003736 0.718549 0.927512 0.103557
H15   H     H_    0.862732 0.841628 0.921427 0.111169
H16   H     H_    0.839640 0.954053 0.806796 0.113160
H17   H     H_    0.957514 0.943993 0.697707 0.110964
H18   H     H_    0.261131 0.781461 0.572337 0.103437
H19   H     H_    0.402278 0.658417 0.578416 0.110893
H20   H     H_    0.307225 0.555979 0.802109 0.110860
H21   H     H_    0.944624 0.454131 0.306522 0.108354
C31   C     C_R   0.482715 0.234800 0.124606 -0.131991
C32   C     C_R   0.397333 0.164367 0.127448 -0.122634
C33   C     C_R   0.385141 0.100994 0.191937 -0.126078
C34   C     C_R   0.458401 0.107548 0.254074 -0.141797
C35   C     C_R   0.544100 0.178628 0.253121 0.068474
C36   C     C_R   0.556387 0.243651 0.186971 0.069784
C37   C     C_R   0.620563 0.185010 0.316320 -0.186259
C38   C     C_R   0.708928 0.256555 0.313293 0.070021
C39   C     C_R   0.721279 0.321572 0.247133 0.068554
C40   C     C_R   0.644927 0.315172 0.183928 -0.186231
C41   C     C_R   0.782231 0.265455 0.375683 -0.132678
C42   C     C_R   0.867268 0.335941 0.372863 -0.120879
C43   C     C_R   0.879601 0.399295 0.308358 -0.124611
C44   C     C_R   0.806794 0.392676 0.246185 -0.142045
H22   H     H_    0.491632 0.281749 0.072846 0.103809
H23   H     H_    0.341605 0.158775 0.079203 0.110746
H24   H     H_    0.319864 0.046195 0.193788 0.107797
H25   H     H_    0.448179 0.055988 0.302535 0.110773
H26   H     H_    0.773201 0.218511 0.427446 0.104008
H27   H     H_    0.922628 0.341585 0.421134 0.112965
H28   H     H_    0.817136 0.444206 0.197702 0.110784
O11   O     O_R   0.770890 0.084490 0.414040 -0.536217
O12   O     O_R   0.445980 0.065450 0.555510 -0.536806
O13   O     O_R   0.270670 0.915620 0.586180 -0.535929
C45   C     C_R   0.615328 0.079587 0.576094 0.725608
O14   O     O_R   0.441480 0.093500 0.412450 -0.538313
O15   O     O_R   0.266140 0.943870 0.442100 -0.540459
C46   C     C_R   0.610314 0.116600 0.385127 0.693925
O16   O     O_R   0.775410 0.056240 0.558120 -0.540349
O17   O     O_3   0.602660 0.950990 0.510100 -0.367432
V3    V     V_3+5 0.329740 0.009100 0.498130 1.420406
O18   O     O_R   0.936120 0.934420 0.444240 -0.536931
C47   C     C_R   0.104005 0.920327 0.423887 0.722326
O19   O     O_R   0.940610 0.906370 0.587310 -0.538490
C48   C     C_R   0.109491 0.883441 0.614900 0.694388
V4    V     V_3+5 0.829110 0.990690 0.501470 1.420631
O20   O     O_3   0.106080 0.049010 0.489880 -0.366860
C49   C     C_3   0.829440 0.244540 0.709895 -0.380801
C50   C     C_3   0.475901 0.277855 0.681503 0.088596
C51   C     C_3   0.475081 0.323334 0.733580 -0.316826
H29   H     H_    0.862893 0.357805 0.723022 0.151855
H30   H     H_    0.881608 0.280002 0.655456 0.155643
H31   H     H_    0.329651 0.252456 0.681577 0.120232
H32   H     H_    0.500790 0.387362 0.704097 0.157657
H33   H     H_    0.330200 0.317572 0.758262 0.113777
C52   C     C_1   0.638635 0.374775 0.878759 -0.195337
C53   C     C_3   0.625731 0.209033 0.707493 0.205894
C54   C     C_3   0.828732 0.295615 0.756775 -0.345130
C55   C     C_3   0.630045 0.290913 0.792916 0.206936
C56   C     C_3   0.582054 0.203171 0.836054 -0.319210
C57   C     C_3   0.578206 0.154485 0.786604 0.043589
C58   C     C_1   0.633686 0.336938 0.840339 -0.078510
C59   C     C_1   0.627163 0.162935 0.659986 -0.103537
C60   C     C_1   0.624569 0.125170 0.621511 -0.198108
H34   H     H_    0.693093 0.109359 0.805692 0.134009
H35   H     H_    0.692082 0.178359 0.878791 0.127778
H36   H     H_    0.935118 0.196249 0.732440 0.134353
H37   H     H_    0.943982 0.275124 0.798101 0.143606
H38   H     H_    0.441237 0.198614 0.863285 0.156726
N1    N     N_3   0.509821 0.332927 0.608137 -0.682207
H39   H     H_    0.641694 0.362246 0.604432 0.237910
H40   H     H_    0.511751 0.302423 0.573389 0.234800
N2    N     N_3   0.394224 0.111584 0.794083 -0.682794
H41   H     H_    0.391437 0.079297 0.760814 0.237451
H42   H     H_    0.278640 0.150397 0.780413 0.221309

loop_
_geom_bond_atom_site_label_1
_geom_bond_atom_site_label_2
_ccdc_geom_bond_type
O13   V3    S    
C8    C14   T    
O17   V3    S    
C32   H23   S    
C54   H37   S    
O18   C47   A    
C1    O6    A    
C3    C26   S    
O19   C48   A    
O11   C46   A    
N1    H39   S    
C20   C21   A    
C9    C15   S    
N2    H41   S    
C10   C11   S    
C11   C14   S    
O5    C3    A    
C12   C13   S    
C57   N2    S    
O12   C45   A    
N1    H40   S    
H21   C43   S    
V2    O10   S    
C30   H20   S    
C59   C60   T    
C6    C7    S    
C21   C22   A    
O14   V3    S    
C27   H18   S    
C39   C44   A    
C17   H14   S    
C56   H35   S    
C28   H19   S    
C56   H38   S    
C45   O16   A    
C19   H16   S    
C35   C36   A    
C36   C40   A    
C51   H33   S    
O1    V2    S    
O14   C46   A    
O12   V3    S    
O7    V1    S    
C53   C57   S    
C5    H10   S    
O13   C48   A    
C33   C34   A    
C6    H3    S    
O9    C4    A    
C49   H30   S    
C49   H36   S    
O8    V2    S    
C41   H26   S    
C55   C56   S    
O19   V4    S    
O15   V3    S    
C8    C47   S    
C21   C23   A    
C41   C42   A    
C9    C13   S    
C34   C35   A    
C5    C9    S    
C43   C44   A    
O4    C2    A    
C18   H15   S    
C22   C26   A    
H1    C10   S    
C10   H11   S    
C49   C53   S    
C28   C29   A    
C5    H2    S    
C2    C52   S    
C12   H9    S    
C51   C55   S    
O2    C1    A    
C42   C43   A    
O5    V1    S    
C11   C12   S    
O11   V4    S    
C38   C41   A    
V4    O20   S    
V3    O20   S    
C24   C27   A    
C25   C26   A    
C12   H12   S    
C31   C36   A    
C37   C46   S    
C1    C40   S    
C57   H34   S    
O3    C4    A    
C23   C24   A    
C34   H25   S    
O6    V2    S    
O9    V2    S    
C18   C19   A    
C13   H7    S    
C50   C53   S    
C17   C18   A    
C50   N1    S    
O2    V1    S    
C53   C59   S    
C37   C38   A    
C33   H24   S    
C19   C20   A    
C56   C57   S    
O17   V4    S    
C29   C30   A    
C20   H17   S    
N2    H42   S    
C54   C55   S    
O1    C2    A    
C5    C10   S    
C31   H22   S    
C6    C9    S    
C39   C40   A    
C4    C16   S    
H29   C54   S    
O8    C3    A    
O15   C47   A    
C49   C54   S    
C23   C48   S    
C25   C30   A    
C44   H28   S    
C31   C32   A    
C7    H5    S    
O7    V2    S    
C38   C39   A    
O3    V1    S    
V1    O10   S    
C42   H27   S    
C6    H4    S    
C15   C16   T    
C50   H31   S    
O18   V4    S    
C17   C22   A    
C32   C33   A    
C50   C51   S    
C7    H6    S    
H13   C29   S    
C52   C58   T    
O4    V1    S    
C35   C37   A    
C24   C25   A    
C13   H8    S    
C51   H32   S    
C45   C60   S    
C55   C58   S    
O16   V4    S    
C27   C28   A    
C7    C11   S    
