data_mof_unit_33516.cif
_audit_creation_date              2013-03-05T16:01:27-0500
_audit_creation_method            fapswitch 2.2
_symmetry_space_group_name_H-M    P1
_symmetry_Int_Tables_number       1
_space_group_crystal_system       triclinic
_cell_length_a                    14.679673
_cell_length_b                    14.664802
_cell_length_c                    19.328314
_cell_angle_alpha                 76.923806
_cell_angle_beta                  102.886765
_cell_angle_gamma                 115.203263
_cell_volume                      3629.08636028

loop_
_atom_site_label
_atom_site_type_symbol
_atom_site_description
_atom_site_fract_x
_atom_site_fract_y
_atom_site_fract_z
_atom_type_partial_charge
O1    O     O_R   0.977910 0.338110 0.524620 -0.588488
O2    O     O_R   0.022090 0.661890 0.475380 -0.596118
O3    O     O_R   0.839850 0.379180 0.493080 -0.560163
O4    O     O_R   0.160150 0.620820 0.506920 -0.523569
C1    C     C_R   0.880074 0.312138 0.512618 0.896401
C2    C     C_R   0.120343 0.688272 0.490516 0.860959
O5    O     O_R   0.069040 0.479450 0.615630 -0.573720
O6    O     O_R   0.930960 0.520550 0.384370 -0.573902
O7    O     O_R   0.930990 0.520520 0.584090 -0.597868
O8    O     O_R   0.069010 0.479480 0.415910 -0.597693
C3    C     C_R   0.999436 0.499931 0.632476 0.794691
C4    C     C_R   0.000219 0.499525 0.367539 0.819872
Cu1   Cu    Cu3+1 0.081740 0.475680 0.518680 1.000834
Cu2   Cu    Cu3+1 0.918260 0.524320 0.481320 0.972237
C5    C     C_R   0.073656 0.485448 0.761754 -0.152742
C6    C     C_R   0.925959 0.514494 0.238268 -0.149910
H1    H     H_    0.134685 0.472347 0.748669 0.170305
H2    H     H_    0.866544 0.530257 0.251269 0.165552
C7    C     C_R   0.071843 0.487197 0.833087 -0.170901
C8    C     C_R   0.926846 0.511672 0.166981 -0.171060
H3    H     H_    0.131089 0.474355 0.873614 0.157899
H4    H     H_    0.868574 0.526345 0.126400 0.158231
C9    C     C_R   0.993883 0.503490 0.852454 0.038945
C10   C     C_R   0.002882 0.492304 0.147674 0.043253
C11   C     C_R   0.917104 0.520065 0.798522 0.105575
C12   C     C_R   0.078333 0.472887 0.201664 0.111612
C13   C     C_R   0.919875 0.517675 0.726977 -0.198899
C14   C     C_R   0.076472 0.476495 0.273211 -0.188891
H5    H     H_    0.861258 0.530535 0.685756 0.156274
H6    H     H_    0.133734 0.461621 0.314731 0.153757
C15   C     C_R   0.997636 0.500539 0.708141 -0.056657
C16   C     C_R   0.000972 0.497382 0.291916 -0.054303
N1    N     N_R   0.909338 0.450284 0.959836 -0.238774
N2    N     N_R   0.086906 0.545240 0.040226 -0.236907
N3    N     N_R   0.911941 0.447113 0.029554 -0.229703
N4    N     N_R   0.084335 0.548484 0.970544 -0.226349
C17   C     C_R   0.000960 0.494003 0.071071 0.392543
C18   C     C_R   0.995378 0.501690 0.929003 0.393810
C19   C     C_R   0.812862 0.206239 0.533925 -0.198437
C20   C     C_R   0.188743 0.797563 0.487926 -0.219817
C21   C     C_R   0.773785 0.064268 0.631497 0.356859
C22   C     C_R   0.216778 0.973656 0.436614 0.354709
C23   C     C_R   0.843393 0.153962 0.598485 -0.308365
C24   C     C_R   0.152291 0.870662 0.448129 -0.296170
C25   C     C_R   0.712568 0.164432 0.498657 0.257173
C26   C     C_R   0.290596 0.829100 0.522786 0.284965
C27   C     C_R   0.637484 0.086861 0.538359 -0.056056
C28   C     C_R   0.356777 0.934034 0.513633 -0.065870
C29   C     C_R   0.669206 0.033271 0.603659 -0.015256
C30   C     C_R   0.321042 0.004540 0.465238 -0.014374
C31   C     C_R   0.531615 0.062103 0.515588 0.112210
C32   C     C_R   0.460099 0.970217 0.547003 0.106994
C33   C     C_R   0.492995 0.921947 0.613266 -0.134973
C34   C     C_R   0.494845 0.130312 0.467012 -0.153962
C35   C     C_R   0.595317 0.953717 0.641535 -0.140323
C36   C     C_R   0.391268 0.103133 0.444050 -0.134593
H7    H     H_    0.615398 0.915985 0.693872 0.197673
H8    H     H_    0.367870 0.158435 0.406123 0.194707
H9    H     H_    0.073328 0.847176 0.423750 0.206113
H10   H     H_    0.921736 0.184112 0.624072 0.196798
H11   H     H_    0.439616 0.863383 0.646392 0.191803
H12   H     H_    0.545398 0.206988 0.448444 0.169906
N5    N     N_R   0.795420 0.560800 0.453240 -0.179338
N6    N     N_R   0.204580 0.439200 0.546760 -0.182547
C37   C     C_R   0.712653 0.663533 0.377286 -0.284596
C38   C     C_R   0.287496 0.336742 0.623035 -0.284656
C39   C     C_R   0.795546 0.636040 0.397530 0.096855
C40   C     C_R   0.204655 0.364358 0.602757 0.107781
C41   C     C_R   0.715519 0.510327 0.490934 0.028400
C42   C     C_R   0.284242 0.489128 0.508837 0.094668
C43   C     C_R   0.628530 0.534680 0.473153 -0.019740
C44   C     C_R   0.371291 0.464843 0.526775 -0.010430
C45   C     C_R   0.629017 0.613282 0.414848 0.151765
C46   C     C_R   0.370960 0.386560 0.585287 0.160073
C47   C     C_R   0.542135 0.484691 0.510813 0.079304
C48   C     C_R   0.457657 0.514723 0.489109 0.083031
C49   C     C_R   0.462482 0.593626 0.430631 -0.182551
C50   C     C_R   0.537392 0.405929 0.569401 -0.225948
C51   C     C_R   0.546402 0.641573 0.394435 -0.169956
C52   C     C_R   0.453587 0.358245 0.605745 -0.173095
H13   H     H_    0.546633 0.701786 0.349888 0.155791
H14   H     H_    0.453493 0.298290 0.650467 0.143410
H15   H     H_    0.277163 0.546828 0.465023 0.126396
H16   H     H_    0.722354 0.452181 0.534465 0.116264
H17   H     H_    0.139942 0.325903 0.631655 0.127370
H18   H     H_    0.860433 0.674858 0.368822 0.129324
H19   H     H_    0.714003 0.723852 0.332645 0.153832
H20   H     H_    0.286262 0.276711 0.667875 0.148498
H21   H     H_    0.402467 0.620730 0.411231 0.145962
H22   H     H_    0.597493 0.378945 0.588879 0.126779
C53   C     C_3   0.834369 0.545570 0.813603 -0.394341
C54   C     C_3   0.732506 0.452854 0.811644 -0.349110
C55   C     C_3   0.648394 0.478022 0.826092 -0.776031
H23   H     H_    0.667405 0.501385 0.880068 0.262548
H24   H     H_    0.638113 0.540546 0.784764 0.265486
H25   H     H_    0.575708 0.409663 0.824116 0.239730
H26   H     H_    0.710310 0.427528 0.758073 0.213280
H27   H     H_    0.740008 0.388913 0.852793 0.246039
H28   H     H_    0.854714 0.573942 0.865804 0.218935
H29   H     H_    0.826331 0.609279 0.772325 0.214743
C56   C     C_3   0.158820 0.444151 0.186111 -0.427864
C57   C     C_3   0.112074 0.336861 0.165159 -0.319684
C58   C     C_3   0.193735 0.306846 0.152138 -0.761367
H30   H     H_    0.234163 0.360924 0.107796 0.250635
H31   H     H_    0.249473 0.306773 0.201581 0.262649
H32   H     H_    0.157740 0.229098 0.137042 0.255152
H33   H     H_    0.071834 0.280841 0.208993 0.250481
H34   H     H_    0.056066 0.333154 0.115550 0.229271
H35   H     H_    0.201150 0.501321 0.143891 0.224159
H36   H     H_    0.216832 0.445356 0.234445 0.199803
N7    N     N_R   0.329320 0.753574 0.560222 0.114654
O9    O     O_R   0.397230 0.740328 0.534999 -0.358558
O10   O     O_R   0.295598 0.696931 0.618914 -0.371879
N8    N     N_R   0.691146 0.186250 0.421291 0.116433
O11   O     O_R   0.629408 0.112796 0.385188 -0.325779
O12   O     O_R   0.743329 0.273170 0.385678 -0.355972
N9    N     N_R   0.809991 0.008752 0.694732 0.120654
O13   O     O_R   0.884152 0.057563 0.741149 -0.356705
O14   O     O_R   0.781723 0.910770 0.699711 -0.347622
N10   N     N_R   0.175169 0.045358 0.395139 0.119526
O15   O     O_R   0.104700 0.019688 0.340341 -0.353887
O16   O     O_R   0.194618 0.128914 0.418968 -0.365873

loop_
_geom_bond_atom_site_label_1
_geom_bond_atom_site_label_2
_geom_bond_distance
_ccdc_geom_bond_type
C38   C40   1.389771 A    
C47   C48   1.434327 A    
C56   C57   1.534691 S    
C13   H5    1.084071 S    
N2    C17   1.355446 A    
N7    O9    1.301444 A    
C44   C48   1.432956 A    
N8    O11   1.302015 A    
C54   H27   1.111461 S    
C27   C29   1.424138 A    
C50   H22   1.076328 S    
C20   C26   1.416386 A    
C49   H21   1.076186 S    
C55   H23   1.110894 S    
O1    C1    1.298864 A    
N6    C40   1.356107 A    
N3    C17   1.356869 A    
C10   C12   1.419651 A    
C28   C32   1.425181 A    
N9    O14   1.301356 A    
C12   C56   1.517813 S    
C38   H20   1.083815 S    
C50   C52   1.387967 A    
C24   H9    1.083546 S    
C56   H35   1.108077 S    
C38   C46   1.400869 A    
C37   C45   1.400879 A    
O4    Cu1   1.928246 S    
C41   C43   1.418944 A    
C6    C16   1.399652 A    
C5    C7    1.391136 A    
C33   H11   1.078602 S    
C25   N8    1.448030 S    
C58   H31   1.110966 S    
C27   C31   1.423895 A    
N5    C41   1.360947 A    
C37   C39   1.389407 A    
C57   H34   1.110048 S    
N6    C42   1.360579 A    
C53   H29   1.112635 S    
C6    C8    1.390895 A    
C19   C25   1.407434 A    
C25   C27   1.418519 A    
C3    C15   1.470697 S    
C55   H24   1.110961 S    
C46   C52   1.393097 A    
C26   N7    1.436494 S    
C4    C16   1.471680 S    
C40   H17   1.081818 S    
C21   C23   1.395624 A    
O2    C2    1.305119 A    
C22   C24   1.396816 A    
C21   C29   1.414513 A    
N10   O16   1.301470 A    
C54   H26   1.112087 S    
C37   H19   1.083824 S    
C34   C36   1.389451 A    
C33   C35   1.387411 A    
N5    C39   1.355890 A    
C11   C53   1.514616 S    
C13   C15   1.403503 A    
C31   C32   1.412756 A    
C8    C10   1.403410 A    
C14   C16   1.403882 A    
C48   C49   1.412638 A    
C52   H14   1.084356 S    
C53   C54   1.533825 S    
C43   C45   1.416868 A    
C19   C23   1.398568 A    
C34   H12   1.081397 S    
C56   H36   1.112689 S    
C29   C35   1.401253 A    
C30   C36   1.404248 A    
C7    C9    1.404061 A    
O7    Cu2   1.943424 S    
O5    C3    1.301637 A    
C20   C24   1.399636 A    
O6    C4    1.301715 A    
C10   C17   1.469315 S    
C45   C51   1.392691 A    
C49   C51   1.387665 A    
C57   H33   1.112039 S    
N7    O10   1.302251 A    
C42   H15   1.074868 S    
O7    C3    1.298766 A    
O3    Cu2   1.928244 S    
O8    C4    1.299081 A    
C23   H10   1.083914 S    
C22   C30   1.413903 A    
C44   C46   1.416753 A    
C8    H4    1.083685 S    
C55   H25   1.110444 S    
C35   H7    1.081193 S    
C2    C20   1.481549 S    
O4    C2    1.299297 A    
O1    Cu1   1.939282 S    
N4    C18   1.356205 A    
C32   C33   1.406979 A    
C51   H13   1.084332 S    
C5    H1    1.083113 S    
C39   H18   1.081791 S    
O6    Cu2   1.939258 S    
C7    H3    1.083660 S    
O3    C1    1.298012 A    
O8    Cu1   1.943424 S    
N8    O12   1.300761 A    
C5    C15   1.399591 A    
C11   C13   1.401192 A    
C9    C18   1.469218 S    
C12   C14   1.402528 A    
N1    C18   1.356573 A    
C31   C34   1.407920 A    
C53   H28   1.109046 S    
C1    C19   1.463460 S    
C14   H6    1.083622 S    
C41   H16   1.075023 S    
N9    O13   1.301420 A    
C43   C47   1.433253 A    
C22   N10   1.438243 S    
Cu1   N6    2.021419 S    
Cu2   N5    2.021421 S    
C28   C30   1.422899 A    
C54   C55   1.525562 S    
N1    N3    1.330286 A    
C36   H8    1.081195 S    
C58   H32   1.110392 S    
N2    N4    1.329489 A    
C9    C11   1.417978 A    
C57   C58   1.525838 S    
O2    Cu2   1.939282 S    
C47   C50   1.412844 A    
C26   C28   1.422466 A    
O5    Cu1   1.939259 S    
C6    H2    1.083090 S    
C58   H30   1.110932 S    
N10   O15   1.301410 A    
C42   C44   1.419166 A    
C21   N9    1.437926 S    
Cu1   Cu2   2.690956 S    
