data_mof_unit_62897.cif
_audit_creation_date              2013-03-05T16:10:19-0500
_audit_creation_method            fapswitch 2.2
_symmetry_space_group_name_H-M    P1
_symmetry_Int_Tables_number       1
_space_group_crystal_system       triclinic
_cell_length_a                    25.606622
_cell_length_b                    25.605746
_cell_length_c                    42.999259
_cell_angle_alpha                 90.00213
_cell_angle_beta                  90.00871
_cell_angle_gamma                 90.041828
_cell_volume                      28193.6026158

loop_
_atom_site_label
_atom_site_type_symbol
_atom_site_description
_atom_site_fract_x
_atom_site_fract_y
_atom_site_fract_z
_atom_type_partial_charge
Zn1   Zn    Zn3+2 0.938580 0.499980 0.775960 1.085217
Zn2   Zn    Zn3+2 0.499980 0.061420 0.224040 1.080108
Zn3   Zn    Zn3+2 0.061420 0.500020 0.775960 1.084362
Zn4   Zn    Zn3+2 0.500020 0.938580 0.224040 1.080329
Zn5   Zn    Zn3+2 0.061420 0.499980 0.224040 1.092776
Zn6   Zn    Zn3+2 0.500020 0.061420 0.775960 1.074210
Zn7   Zn    Zn3+2 0.938580 0.500020 0.224040 1.090627
Zn8   Zn    Zn3+2 0.499980 0.938580 0.775960 1.069314
Zn9   Zn    Zn3+2 0.438580 0.999980 0.275960 1.082826
Zn10  Zn    Zn3+2 0.999980 0.561420 0.724040 1.079500
Zn11  Zn    Zn3+2 0.561420 0.000020 0.275960 1.084533
Zn12  Zn    Zn3+2 0.000020 0.438580 0.724040 1.080711
Zn13  Zn    Zn3+2 0.561420 0.999980 0.724040 1.090974
Zn14  Zn    Zn3+2 0.000020 0.561420 0.275960 1.075157
Zn15  Zn    Zn3+2 0.438580 0.000020 0.724040 1.088313
Zn16  Zn    Zn3+2 0.999980 0.438580 0.275960 1.072838
O1    O     O_3   1.000000 0.500000 0.750000 -0.532866
O2    O     O_3   0.500000 1.000000 0.250000 -0.532537
O3    O     O_3   1.000000 0.500000 0.250000 -0.532105
O4    O     O_3   0.500000 1.000000 0.750000 -0.531439
O5    O     O_R   0.999970 0.543000 0.680690 -0.623012
O6    O     O_R   0.543000 0.000030 0.319310 -0.621237
O7    O     O_R   0.000030 0.457000 0.680690 -0.622096
O8    O     O_R   0.457000 0.999970 0.319310 -0.622636
O9    O     O_R   0.000030 0.543000 0.319310 -0.623807
O10   O     O_R   0.457000 0.000030 0.680690 -0.620230
O11   O     O_R   0.999970 0.457000 0.319310 -0.622965
O12   O     O_R   0.543000 0.999970 0.680690 -0.621201
O13   O     O_R   0.499970 0.043000 0.180690 -0.622581
O14   O     O_R   0.043000 0.500030 0.819310 -0.621707
O15   O     O_R   0.500030 0.957000 0.180690 -0.622549
O16   O     O_R   0.957000 0.499970 0.819310 -0.621433
O17   O     O_R   0.500030 0.043000 0.819310 -0.621766
O18   O     O_R   0.957000 0.500030 0.180690 -0.621009
O19   O     O_R   0.499970 0.957000 0.819310 -0.624791
O20   O     O_R   0.043000 0.499970 0.180690 -0.621655
O21   O     O_R   0.939500 0.396500 0.731830 -0.610027
O22   O     O_R   0.396500 0.060500 0.268170 -0.612029
O23   O     O_R   0.060500 0.603500 0.731830 -0.609974
O24   O     O_R   0.603500 0.939500 0.268170 -0.609980
O25   O     O_R   0.060500 0.396500 0.268170 -0.620310
O26   O     O_R   0.603500 0.060500 0.731830 -0.601642
O27   O     O_R   0.939500 0.603500 0.268170 -0.615006
O28   O     O_R   0.396500 0.939500 0.731830 -0.600282
O29   O     O_R   0.439500 0.896500 0.231830 -0.610115
O30   O     O_R   0.896500 0.560500 0.768170 -0.608968
O31   O     O_R   0.560500 0.103500 0.231830 -0.610078
O32   O     O_R   0.103500 0.439500 0.768170 -0.610385
O33   O     O_R   0.560500 0.896500 0.768170 -0.612740
O34   O     O_R   0.103500 0.560500 0.231830 -0.601193
O35   O     O_R   0.439500 0.103500 0.768170 -0.614254
O36   O     O_R   0.896500 0.439500 0.231830 -0.601707
O37   O     O_R   0.103450 0.560480 0.768170 -0.621192
O38   O     O_R   0.560480 0.896550 0.231830 -0.623059
O39   O     O_R   0.896550 0.439520 0.768170 -0.620914
O40   O     O_R   0.439520 0.103450 0.231830 -0.622303
O41   O     O_R   0.896550 0.560480 0.231830 -0.622077
O42   O     O_R   0.439520 0.896550 0.768170 -0.630144
O43   O     O_R   0.103450 0.439520 0.231830 -0.619927
O44   O     O_R   0.560480 0.103450 0.768170 -0.627990
O45   O     O_R   0.603450 0.060480 0.268170 -0.621131
O46   O     O_R   0.060480 0.396550 0.731830 -0.622554
O47   O     O_R   0.396550 0.939520 0.268170 -0.620927
O48   O     O_R   0.939520 0.603450 0.731830 -0.624011
O49   O     O_R   0.396550 0.060480 0.731830 -0.622680
O50   O     O_R   0.939520 0.396550 0.268170 -0.629279
O51   O     O_R   0.603450 0.939520 0.731830 -0.622454
O52   O     O_R   0.060480 0.603450 0.268170 -0.628439
C1    C     C_R   0.000003 0.500000 0.665775 0.918674
C2    C     C_R   0.500003 0.000000 0.334233 0.916429
C3    C     C_R   0.000003 0.500003 0.334230 0.919572
C4    C     C_R   0.499996 0.000001 0.665776 0.918000
C5    C     C_R   0.499981 0.999997 0.165775 0.918516
C6    C     C_R   0.000004 0.500000 0.834233 0.916504
C7    C     C_R   0.499973 0.999989 0.834234 0.926291
C8    C     C_R   0.999997 0.500002 0.165776 0.917094
C9    C     C_R   0.900502 0.400479 0.749987 0.855126
C10   C     C_R   0.400482 0.099525 0.250011 0.841418
C11   C     C_R   0.099497 0.599528 0.749996 0.855892
C12   C     C_R   0.599518 0.900474 0.250016 0.840886
C13   C     C_R   0.099525 0.400479 0.250019 0.848982
C14   C     C_R   0.599515 0.099517 0.749988 0.853744
C15   C     C_R   0.900474 0.599517 0.250013 0.846530
C16   C     C_R   0.400463 0.900510 0.750002 0.840506
C17   C     C_R   0.400502 0.900477 0.249988 0.856059
C18   C     C_R   0.900482 0.599523 0.750013 0.840864
C19   C     C_R   0.599500 0.099521 0.249990 0.855422
C20   C     C_R   0.099517 0.400473 0.750016 0.840769
C21   C     C_R   0.599520 0.900479 0.750012 0.846912
C22   C     C_R   0.099519 0.599510 0.249990 0.854862
C23   C     C_R   0.400471 0.099515 0.750015 0.845751
C24   C     C_R   0.900479 0.400489 0.249988 0.854124
C25   C     C_3   0.808318 0.766004 0.758269 -0.313923
C26   C     C_3   0.759903 0.196117 0.267995 -0.340668
C27   C     C_3   0.193326 0.235634 0.762040 -0.313787
C28   C     C_3   0.239659 0.804327 0.267433 -0.340863
C29   C     C_3   0.193523 0.764171 0.263707 -0.311869
C30   C     C_3   0.235149 0.191221 0.757669 -0.346731
C31   C     C_3   0.806136 0.236168 0.264319 -0.311577
C32   C     C_3   0.765836 0.809761 0.753796 -0.346181
C33   C     C_3   0.307595 0.265260 0.259473 -0.334784
C34   C     C_3   0.259898 0.696190 0.768023 -0.340929
C35   C     C_3   0.692825 0.735134 0.261024 -0.313949
C36   C     C_3   0.740294 0.303723 0.768205 -0.340747
C37   C     C_3   0.694011 0.263722 0.764553 -0.312158
C38   C     C_3   0.734826 0.690899 0.256618 -0.346630
C39   C     C_3   0.306089 0.736300 0.764356 -0.313066
C40   C     C_3   0.265675 0.309132 0.254952 -0.348842
C41   C     C_3   0.741827 0.696682 0.777678 -0.316242
C42   C     C_3   0.732992 0.221930 0.211949 -0.260328
C43   C     C_3   0.262165 0.307299 0.774187 -0.316064
C44   C     C_3   0.268021 0.777020 0.211897 -0.260308
C45   C     C_3   0.228276 0.726533 0.211594 -0.311880
C46   C     C_3   0.303374 0.258361 0.777333 -0.264559
C47   C     C_3   0.772743 0.272412 0.211541 -0.311976
C48   C     C_3   0.701052 0.746054 0.780394 -0.265099
C49   C     C_3   0.240287 0.194569 0.276342 -0.321067
C50   C     C_3   0.232727 0.722227 0.712053 -0.260387
C51   C     C_3   0.761135 0.806267 0.275180 -0.316060
C52   C     C_3   0.766547 0.278510 0.711955 -0.260433
C53   C     C_3   0.726781 0.228038 0.711509 -0.311830
C54   C     C_3   0.802218 0.757204 0.278212 -0.264651
C55   C     C_3   0.272453 0.772718 0.711663 -0.311707
C56   C     C_3   0.199315 0.243834 0.279931 -0.259630
H1    H     H_    0.766660 0.833927 0.775254 0.208503
H2    H     H_    0.835157 0.217436 0.248848 0.226884
H3    H     H_    0.237601 0.170326 0.780268 0.207763
H4    H     H_    0.164901 0.782484 0.247797 0.226913
H5    H     H_    0.225219 0.842116 0.258097 0.208124
H6    H     H_    0.186531 0.239124 0.787378 0.228078
H7    H     H_    0.774575 0.158081 0.259157 0.207983
H8    H     H_    0.818855 0.766249 0.783238 0.228435
H9    H     H_    0.267190 0.332491 0.276563 0.229693
H10   H     H_    0.335090 0.717649 0.748837 0.227405
H11   H     H_    0.736370 0.669095 0.278940 0.208254
H12   H     H_    0.664820 0.282626 0.749266 0.226747
H13   H     H_    0.725530 0.341857 0.759573 0.208030
H14   H     H_    0.685007 0.737600 0.286301 0.228247
H15   H     H_    0.274566 0.658211 0.759099 0.208224
H16   H     H_    0.316287 0.264965 0.284664 0.206732
C57   C     C_1   0.638537 0.860628 0.749888 0.024432
C58   C     C_1   0.861275 0.360821 0.249554 0.023020
C59   C     C_1   0.361520 0.139430 0.749814 0.023920
C60   C     C_1   0.138746 0.639154 0.249579 0.023430
C61   C     C_1   0.360926 0.861199 0.249574 0.020263
C62   C     C_1   0.139367 0.361454 0.749879 0.027579
C63   C     C_1   0.639102 0.138771 0.249559 0.020331
C64   C     C_1   0.860705 0.638616 0.749946 0.027658
C65   C     C_1   0.138534 0.360608 0.249939 0.019396
C66   C     C_1   0.361193 0.860918 0.749615 0.017652
C67   C     C_1   0.861506 0.639417 0.249832 0.024460
C68   C     C_1   0.638695 0.139211 0.749542 0.023418
C69   C     C_1   0.860890 0.361242 0.749537 0.020503
C70   C     C_1   0.639351 0.861438 0.249897 0.027554
C71   C     C_1   0.139060 0.638824 0.749614 0.020337
C72   C     C_1   0.360619 0.138536 0.249855 0.020113
C73   C     C_3   0.784109 0.710217 0.751010 -0.073007
C74   C     C_3   0.712182 0.213705 0.247012 -0.095169
C75   C     C_3   0.216147 0.290037 0.750649 -0.072985
C76   C     C_3   0.287918 0.786187 0.247068 -0.095102
C77   C     C_3   0.213590 0.712522 0.247152 -0.073011
C78   C     C_3   0.290414 0.216346 0.750469 -0.093896
C79   C     C_3   0.786509 0.287372 0.247096 -0.072992
C80   C     C_3   0.709817 0.783882 0.750860 -0.094193
C81   C     C_3   0.283773 0.209898 0.250736 -0.073103
C82   C     C_3   0.212074 0.713837 0.747134 -0.095359
C83   C     C_3   0.716086 0.789977 0.250748 -0.072981
C84   C     C_3   0.787766 0.286353 0.746967 -0.095187
C85   C     C_3   0.713427 0.212697 0.747059 -0.072946
C86   C     C_3   0.790359 0.716293 0.250575 -0.094058
C87   C     C_3   0.286363 0.787541 0.747217 -0.072288
C88   C     C_3   0.209573 0.283584 0.251115 -0.064868
C89   C     C_3   0.709116 0.753066 0.719158 0.064960
C90   C     C_3   0.735999 0.306266 0.265391 0.038516
C91   C     C_3   0.286294 0.242350 0.717363 0.064882
C92   C     C_3   0.263618 0.694125 0.266094 0.038190
C93   C     C_3   0.309430 0.734587 0.262327 0.066678
C94   C     C_3   0.238075 0.280395 0.716543 0.042148
C95   C     C_3   0.690284 0.265705 0.261575 0.066630
C96   C     C_3   0.757173 0.714863 0.717812 0.042254
C97   C     C_3   0.210003 0.254380 0.218789 0.046611
C98   C     C_3   0.235922 0.806342 0.765615 0.037808
C99   C     C_3   0.787572 0.743632 0.217803 0.064860
C100  C     C_3   0.764147 0.193601 0.765080 0.038493
C101  C     C_3   0.809821 0.234196 0.761240 0.066900
C102  C     C_3   0.739390 0.781712 0.216838 0.042151
C103  C     C_3   0.190209 0.765766 0.761812 0.067727
C104  C     C_3   0.258358 0.216502 0.217239 0.043539
C105  C     C_1   0.670710 0.826418 0.750131 0.086472
C106  C     C_1   0.827877 0.327789 0.248661 0.151780
C107  C     C_1   0.329417 0.173706 0.749930 0.086380
C108  C     C_1   0.172178 0.672151 0.248703 0.151615
C109  C     C_1   0.328063 0.827677 0.248636 0.086304
C110  C     C_1   0.173545 0.329216 0.750040 0.152980
C111  C     C_1   0.671995 0.172261 0.248600 0.086328
C112  C     C_1   0.826598 0.670926 0.750222 0.152954
C113  C     C_1   0.170616 0.326300 0.250269 0.124733
C114  C     C_1   0.327741 0.827943 0.748756 0.151696
C115  C     C_1   0.829387 0.673678 0.249982 0.086449
C116  C     C_1   0.672073 0.172264 0.748638 0.151843
C117  C     C_1   0.827980 0.327771 0.748563 0.086466
C118  C     C_1   0.673512 0.829183 0.250090 0.152990
C119  C     C_1   0.171921 0.672352 0.748700 0.086058
C120  C     C_1   0.326420 0.170751 0.250017 0.150349
H17   H     H_    0.786447 0.735191 0.703125 0.202000
H18   H     H_    0.677509 0.256510 0.285642 0.160811
H19   H     H_    0.206819 0.258089 0.704567 0.202197
H20   H     H_    0.321576 0.744430 0.286421 0.160937
H21   H     H_    0.251841 0.697002 0.290869 0.203058
H22   H     H_    0.276700 0.210845 0.700554 0.161371
H23   H     H_    0.747132 0.304053 0.290297 0.202997
H24   H     H_    0.716058 0.781926 0.700327 0.161213
H25   H     H_    0.288177 0.237907 0.203533 0.205673
H26   H     H_    0.177554 0.756455 0.785885 0.160882
H27   H     H_    0.708632 0.759907 0.204100 0.202150
H28   H     H_    0.822881 0.243127 0.785291 0.160909
H29   H     H_    0.753305 0.195545 0.790037 0.203093
H30   H     H_    0.778670 0.712820 0.200413 0.161386
H31   H     H_    0.247153 0.804032 0.790501 0.202475
H32   H     H_    0.217446 0.284243 0.200578 0.160006
C121  C     C_R   0.970392 0.462230 0.885047 -0.149456
C122  C     C_R   0.537543 0.029606 0.114930 -0.152661
C123  C     C_R   0.029631 0.537778 0.885050 -0.149593
C124  C     C_R   0.461988 0.970344 0.115047 -0.152427
C125  C     C_R   0.029203 0.538116 0.114999 -0.152624
C126  C     C_R   0.537491 0.029548 0.885128 -0.154632
C127  C     C_R   0.970779 0.461915 0.114986 -0.152850
C128  C     C_R   0.462086 0.970147 0.884951 -0.155431
C129  C     C_R   0.470383 0.962231 0.385046 -0.149897
C130  C     C_R   0.037950 0.529466 0.615004 -0.152543
C131  C     C_R   0.529634 0.037769 0.385052 -0.149781
C132  C     C_R   0.962120 0.470553 0.614974 -0.152769
C133  C     C_R   0.529195 0.038111 0.614996 -0.152690
C134  C     C_R   0.038290 0.529012 0.385025 -0.152154
C135  C     C_R   0.470773 0.961909 0.614989 -0.153081
C136  C     C_R   0.961752 0.471072 0.385043 -0.152688
C137  C     C_R   0.970373 0.462495 0.917856 0.244778
C138  C     C_R   0.537138 0.029607 0.082123 0.245602
C139  C     C_R   0.029656 0.537521 0.917859 0.244653
C140  C     C_R   0.462149 0.970251 0.082239 0.245459
C141  C     C_R   0.029255 0.537839 0.082190 0.245523
C142  C     C_R   0.537085 0.029523 0.917935 0.244691
C143  C     C_R   0.970735 0.462200 0.082178 0.245523
C144  C     C_R   0.462114 0.970192 0.917786 0.238699
C145  C     C_R   0.470358 0.962495 0.417855 0.244530
C146  C     C_R   0.037697 0.529512 0.582196 0.245576
C147  C     C_R   0.529653 0.037511 0.417861 0.244525
C148  C     C_R   0.962401 0.470546 0.582166 0.245582
C149  C     C_R   0.529238 0.037834 0.582187 0.245570
C150  C     C_R   0.038040 0.529070 0.417837 0.245035
C151  C     C_R   0.470722 0.962192 0.582180 0.245548
C152  C     C_R   0.962030 0.471066 0.417855 0.244831
C153  C     C_R   0.000015 0.500010 0.934197 -0.170788
C154  C     C_R   0.499593 0.999892 0.065840 -0.169499
C155  C     C_R   0.999999 0.500020 0.065839 -0.169704
C156  C     C_R   0.499526 0.999845 0.934202 -0.168847
C157  C     C_R   0.500004 0.000005 0.434197 -0.171079
C158  C     C_R   0.000054 0.500041 0.565841 -0.169700
C159  C     C_R   0.499980 0.000013 0.565839 -0.169756
C160  C     C_R   0.000043 0.500079 0.434193 -0.171681
C161  C     C_R   0.000010 0.500002 0.868594 -0.226636
C162  C     C_R   0.499839 0.999983 0.131430 -0.227039
C163  C     C_R   0.999991 0.500012 0.131432 -0.226101
C164  C     C_R   0.499816 0.999931 0.868593 -0.226237
C165  C     C_R   0.500009 0.999999 0.368595 -0.227205
C166  C     C_R   0.000026 0.500003 0.631430 -0.227083
C167  C     C_R   0.499987 0.000007 0.631432 -0.226497
C168  C     C_R   0.000020 0.500021 0.368585 -0.229489
N1    N     N_R   0.989175 0.544369 0.984534 -0.075286
N2    N     N_R   0.455099 0.010355 0.015502 -0.074748
N3    N     N_R   0.010853 0.455664 0.984537 -0.075251
N4    N     N_R   0.543918 0.989159 0.015495 -0.074680
N5    N     N_R   0.010856 0.455668 0.015491 -0.075072
N6    N     N_R   0.455077 0.010333 0.984547 -0.074923
N7    N     N_R   0.989165 0.544369 0.015487 -0.074851
N8    N     N_R   0.543895 0.989135 0.984544 -0.075708
N9    N     N_R   0.489158 0.044362 0.484534 -0.075885
N10   N     N_R   0.955767 0.511158 0.515501 -0.075152
N11   N     N_R   0.510832 0.955656 0.484537 -0.075260
N12   N     N_R   0.044350 0.489004 0.515503 -0.074796
N13   N     N_R   0.510832 0.955660 0.515491 -0.075233
N14   N     N_R   0.955768 0.511178 0.484547 -0.075612
N15   N     N_R   0.489145 0.044361 0.515487 -0.075119
N16   N     N_R   0.044346 0.489008 0.484549 -0.075290
C169  C     C_R   0.499984 0.000011 0.531515 0.400837
C170  C     C_R   0.000055 0.500097 0.468521 0.400892
C171  C     C_R   0.499999 0.000008 0.468514 0.401818
C172  C     C_R   0.000058 0.500071 0.531524 0.401083
C173  C     C_R   0.000008 0.500019 0.031515 0.400749
C174  C     C_R   0.499481 0.999736 0.968522 0.401271
C175  C     C_R   0.000016 0.500015 0.968514 0.401694
C176  C     C_R   0.499526 0.999786 0.031522 0.400807
C177  C     C_2   0.717634 0.642552 0.770012 1.019901
O53   O     O_2   0.744591 0.603314 0.773092 -0.560966
O54   O     O_R   0.666161 0.635892 0.760150 -0.708671
H33   H     H_    0.656690 0.597963 0.756342 0.394101
C178  C     C_2   0.689519 0.227677 0.187504 1.054814
O55   O     O_2   0.701572 0.232756 0.160094 -0.520421
O56   O     O_R   0.636678 0.223817 0.195249 -0.727877
H34   H     H_    0.612841 0.227224 0.176531 0.375211
C179  C     C_2   0.284915 0.359988 0.762477 1.019734
O57   O     O_2   0.258367 0.399634 0.764888 -0.562593
O58   O     O_R   0.334699 0.364961 0.749647 -0.708619
H35   H     H_    0.343419 0.402140 0.743383 0.393963
C180  C     C_2   0.312123 0.770616 0.187921 1.054475
O59   O     O_2   0.300782 0.764790 0.160454 -0.520270
O60   O     O_R   0.364757 0.774692 0.196124 -0.727800
H36   H     H_    0.389076 0.770782 0.177667 0.375686
C181  C     C_2   0.248815 0.676023 0.195793 1.020172
O61   O     O_2   0.217948 0.640623 0.190130 -0.573964
O62   O     O_R   0.300817 0.668891 0.187134 -0.705927
H37   H     H_    0.307430 0.633789 0.176950 0.395061
C182  C     C_2   0.360270 0.277635 0.777509 1.067509
O63   O     O_2   0.374140 0.308615 0.797602 -0.519813
O64   O     O_R   0.397543 0.258432 0.756738 -0.724164
H38   H     H_    0.433445 0.274147 0.760138 0.380516
C183  C     C_2   0.752623 0.322490 0.195073 1.020236
O65   O     O_2   0.783634 0.357751 0.189385 -0.575287
O66   O     O_R   0.700865 0.329365 0.185833 -0.705935
H39   H     H_    0.694525 0.364188 0.175257 0.394840
C184  C     C_2   0.644480 0.727099 0.784556 1.067573
O67   O     O_2   0.633764 0.699270 0.806844 -0.519583
O68   O     O_R   0.604198 0.743288 0.764889 -0.723275
H40   H     H_    0.569003 0.728272 0.770965 0.380857
C185  C     C_2   0.216127 0.141383 0.266397 1.047858
O69   O     O_2   0.242890 0.101797 0.268252 -0.559515
O70   O     O_R   0.164774 0.135851 0.256098 -0.706260
H41   H     H_    0.155291 0.098407 0.250862 0.393367
C186  C     C_2   0.189145 0.728077 0.687684 1.054394
O71   O     O_2   0.201078 0.733311 0.660266 -0.520586
O72   O     O_R   0.136339 0.724151 0.695501 -0.727871
H42   H     H_    0.112420 0.727646 0.676825 0.375320
C187  C     C_2   0.784338 0.859410 0.264561 1.019802
O73   O     O_2   0.757688 0.898954 0.267158 -0.562201
O74   O     O_R   0.834628 0.864889 0.252528 -0.708596
H43   H     H_    0.843593 0.902311 0.246932 0.393980
C188  C     C_2   0.809734 0.273026 0.687318 1.054746
O75   O     O_2   0.797363 0.268251 0.659937 -0.520277
O76   O     O_R   0.862665 0.276795 0.694870 -0.727898
H44   H     H_    0.886283 0.273589 0.676047 0.375390
C189  C     C_2   0.746693 0.178135 0.694767 1.020328
O77   O     O_2   0.715612 0.142932 0.689080 -0.575492
O78   O     O_R   0.798330 0.171364 0.685270 -0.705757
H45   H     H_    0.804531 0.136658 0.674530 0.395090
C190  C     C_2   0.859085 0.776449 0.279481 1.067368
O79   O     O_2   0.872129 0.806600 0.300208 -0.519992
O80   O     O_R   0.897194 0.758088 0.258979 -0.724140
H46   H     H_    0.932942 0.773655 0.263118 0.380422
C191  C     C_2   0.252228 0.822859 0.695307 1.020689
O81   O     O_2   0.283204 0.858131 0.689579 -0.574604
O82   O     O_R   0.200395 0.829790 0.686232 -0.706118
H47   H     H_    0.193977 0.864660 0.675726 0.394710
C192  C     C_2   0.142294 0.225411 0.282524 1.022332
O83   O     O_2   0.130236 0.194680 0.303168 -0.500144
O84   O     O_R   0.103002 0.244789 0.263173 -0.741644
H48   H     H_    0.067376 0.229539 0.268035 0.381104
C193  C     C_2   0.766826 0.685709 0.809690 0.994884
O85   O     O_2   0.814094 0.687589 0.813705 -0.589978
O86   O     O_R   0.734489 0.671877 0.834627 -0.715488
H49   H     H_    0.754739 0.665211 0.854495 0.384339
C194  C     C_2   0.758269 0.169120 0.202024 0.918362
O87   O     O_2   0.805027 0.160686 0.204922 -0.576936
O88   O     O_R   0.726206 0.128456 0.191344 -0.771467
H50   H     H_    0.746466 0.095545 0.186246 0.388572
C195  C     C_2   0.241967 0.323063 0.806684 0.995333
O89   O     O_2   0.195487 0.321965 0.813242 -0.589977
O90   O     O_R   0.277822 0.340409 0.829008 -0.715384
H51   H     H_    0.260572 0.350070 0.849432 0.384475
C196  C     C_2   0.243014 0.829554 0.201233 0.918652
O91   O     O_2   0.196191 0.838069 0.203625 -0.576549
O92   O     O_R   0.275354 0.869915 0.190450 -0.772388
H52   H     H_    0.255235 0.902683 0.184846 0.388905
C197  C     C_2   0.180061 0.738652 0.191286 0.983187
O93   O     O_2   0.135691 0.737556 0.201821 -0.587416
O94   O     O_R   0.187303 0.749782 0.159696 -0.713878
H53   H     H_    0.153227 0.756697 0.148421 0.388495
C198  C     C_2   0.300631 0.228101 0.808762 0.915676
O95   O     O_2   0.260844 0.226541 0.824474 -0.581258
O96   O     O_R   0.343831 0.198699 0.818514 -0.767987
H54   H     H_    0.337389 0.179602 0.838811 0.379910
C199  C     C_2   0.821477 0.259762 0.191805 0.983809
O97   O     O_2   0.865569 0.261158 0.202742 -0.586869
O98   O     O_R   0.815053 0.247773 0.160262 -0.713839
H55   H     H_    0.849416 0.240556 0.149376 0.388649
C200  C     C_2   0.708325 0.780833 0.809850 0.916402
O99   O     O_2   0.750282 0.784563 0.823273 -0.580019
O100  O     O_R   0.666620 0.811722 0.820252 -0.768775
H56   H     H_    0.675971 0.833718 0.839057 0.380381
C201  C     C_2   0.264944 0.180329 0.308127 0.975069
O101  O     O_2   0.310452 0.190398 0.314337 -0.616854
O102  O     O_R   0.235217 0.152121 0.329774 -0.674379
H57   H     H_    0.255343 0.143827 0.349472 0.383597
C202  C     C_2   0.257988 0.669477 0.702001 0.918350
O103  O     O_2   0.304753 0.661031 0.704855 -0.576900
O104  O     O_R   0.225913 0.628876 0.691251 -0.771982
H58   H     H_    0.246169 0.595998 0.686066 0.388418
C203  C     C_2   0.739624 0.820715 0.307595 0.995162
O105  O     O_2   0.692893 0.819364 0.313468 -0.589918
O106  O     O_R   0.774562 0.837141 0.330668 -0.715598
H59   H     H_    0.756489 0.845975 0.350973 0.384324
C204  C     C_2   0.741168 0.331432 0.702337 0.918545
O107  O     O_2   0.694444 0.339838 0.705443 -0.576984
O108  O     O_R   0.773119 0.372213 0.691704 -0.771363
H60   H     H_    0.752811 0.405183 0.686816 0.388875
C205  C     C_2   0.677820 0.240907 0.692017 0.983838
O109  O     O_2   0.633856 0.239385 0.703122 -0.587764
O110  O     O_R   0.683879 0.253249 0.660499 -0.713787
H61   H     H_    0.649391 0.260590 0.649779 0.388625
C206  C     C_2   0.798212 0.725681 0.309149 0.915994
O111  O     O_2   0.757799 0.723491 0.324257 -0.580778
O112  O     O_R   0.841016 0.695889 0.319097 -0.768410
H62   H     H_    0.833761 0.675981 0.339019 0.379998
C207  C     C_2   0.321103 0.760167 0.691830 0.984012
O113  O     O_2   0.365241 0.761482 0.702705 -0.585188
O114  O     O_R   0.314543 0.748355 0.660273 -0.714186
H63   H     H_    0.348858 0.741196 0.649320 0.388575
C208  C     C_2   0.204707 0.274118 0.311340 0.881412
O115  O     O_2   0.202669 0.321825 0.312174 -0.605146
O116  O     O_R   0.203361 0.247538 0.339763 -0.706334
H64   H     H_    0.204758 0.271761 0.358405 0.382533
N17   N     N_R   0.747253 0.666442 0.700160 0.257140
O117  O     O_R   0.735271 0.670366 0.670827 -0.261054
O118  O     O_R   0.758310 0.620379 0.710992 -0.328297
N18   N     N_R   0.641795 0.284202 0.246589 0.276707
O119  O     O_R   0.598395 0.259690 0.252614 -0.312543
O120  O     O_R   0.638646 0.328450 0.231961 -0.228672
N19   N     N_R   0.245151 0.325980 0.695975 0.257446
O121  O     O_R   0.252763 0.317688 0.666449 -0.261029
O122  O     O_R   0.235533 0.373504 0.704888 -0.327281
N20   N     N_R   0.358307 0.715701 0.247979 0.276682
O123  O     O_R   0.401540 0.740393 0.254174 -0.312686
O124  O     O_R   0.361845 0.671054 0.233819 -0.228542
N21   N     N_R   0.280111 0.639106 0.263386 0.257353
O125  O     O_R   0.313888 0.621249 0.283359 -0.254242
O126  O     O_R   0.256447 0.605719 0.245498 -0.315042
N22   N     N_R   0.336610 0.262634 0.705678 0.275960
O127  O     O_R   0.371230 0.229370 0.695740 -0.307735
O128  O     O_R   0.344746 0.311783 0.700022 -0.227178
N23   N     N_R   0.719582 0.361203 0.262010 0.257099
O129  O     O_R   0.685282 0.379581 0.281488 -0.255281
O130  O     O_R   0.743713 0.394115 0.244037 -0.316308
N24   N     N_R   0.657344 0.731324 0.711260 0.275999
O131  O     O_R   0.621256 0.763119 0.701465 -0.307899
O132  O     O_R   0.648594 0.681561 0.708652 -0.227328
N25   N     N_R   0.249630 0.169317 0.198228 0.256694
O133  O     O_R   0.238656 0.175327 0.168879 -0.259265
O134  O     O_R   0.261570 0.122715 0.207833 -0.327918
N26   N     N_R   0.141631 0.784291 0.746939 0.276885
O135  O     O_R   0.098293 0.759678 0.752973 -0.311559
O136  O     O_R   0.138348 0.828649 0.732439 -0.227874
N27   N     N_R   0.747283 0.828116 0.197038 0.257354
O137  O     O_R   0.756086 0.821021 0.167519 -0.260752
O138  O     O_R   0.737310 0.875270 0.206491 -0.327631
N28   N     N_R   0.858129 0.215853 0.745989 0.276662
O139  O     O_R   0.901609 0.240276 0.751947 -0.313415
O140  O     O_R   0.861083 0.171785 0.731155 -0.228936
N29   N     N_R   0.780520 0.138701 0.761420 0.257048
O141  O     O_R   0.815055 0.120116 0.780683 -0.255589
O142  O     O_R   0.756168 0.105983 0.743420 -0.316075
N30   N     N_R   0.838341 0.764372 0.207138 0.276012
O143  O     O_R   0.873364 0.731513 0.197223 -0.307757
O144  O     O_R   0.846689 0.813734 0.202310 -0.227070
N31   N     N_R   0.219479 0.861287 0.762337 0.255481
O145  O     O_R   0.185279 0.879587 0.781904 -0.256955
O146  O     O_R   0.243542 0.894278 0.744382 -0.319892
N32   N     N_R   0.158553 0.232925 0.209853 0.275806
O147  O     O_R   0.122502 0.265284 0.200685 -0.310196
O148  O     O_R   0.150575 0.183493 0.205062 -0.228769
C209  C     C_2   0.860245 0.778926 0.742533 0.995196
O149  O     O_2   0.886534 0.815030 0.752668 -0.526909
O150  O     O_R   0.878099 0.750722 0.716781 -0.778036
H65   H     H_    0.913013 0.763788 0.708833 0.382059
C210  C     C_2   0.744694 0.183363 0.301605 0.952829
O151  O     O_2   0.739561 0.137691 0.309405 -0.554450
O152  O     O_R   0.737471 0.222866 0.323658 -0.790051
H66   H     H_    0.727754 0.208720 0.344904 0.382465
C211  C     C_2   0.139319 0.220636 0.749819 0.994091
O153  O     O_2   0.114774 0.186275 0.763142 -0.527774
O154  O     O_R   0.117612 0.244987 0.723723 -0.777472
H67   H     H_    0.081706 0.230933 0.718348 0.383675
C212  C     C_2   0.253996 0.817991 0.301055 0.952884
O155  O     O_2   0.258921 0.863869 0.308466 -0.553460
O156  O     O_R   0.260650 0.779089 0.323546 -0.790051
H68   H     H_    0.269813 0.793810 0.344743 0.382602
C213  C     C_2   0.161751 0.756945 0.293478 0.997644
O157  O     O_2   0.135178 0.793287 0.302976 -0.540051
O158  O     O_R   0.162689 0.710029 0.310140 -0.786946
H69   H     H_    0.139822 0.711092 0.329372 0.370589
C214  C     C_2   0.219612 0.147766 0.734991 0.961696
O159  O     O_2   0.224722 0.102137 0.742869 -0.539975
O160  O     O_R   0.198806 0.159263 0.705700 -0.790944
H70   H     H_    0.190054 0.126757 0.693287 0.385086
C215  C     C_2   0.837146 0.244176 0.294306 0.997182
O161  O     O_2   0.863480 0.208094 0.304378 -0.540814
O162  O     O_R   0.835769 0.291512 0.310530 -0.787150
H71   H     H_    0.858124 0.290935 0.329983 0.369581
C216  C     C_2   0.777781 0.849633 0.728206 0.960996
O163  O     O_2   0.773681 0.896269 0.733901 -0.538481
O164  O     O_R   0.794211 0.833768 0.698657 -0.791906
H72   H     H_    0.800967 0.864278 0.684181 0.384259
C217  C     C_2   0.360442 0.278861 0.245076 1.007123
O165  O     O_2   0.386331 0.314142 0.256519 -0.532583
O166  O     O_R   0.379510 0.252258 0.219030 -0.775246
H73   H     H_    0.414902 0.265607 0.212056 0.381821
C218  C     C_2   0.244832 0.683254 0.801630 0.953019
O167  O     O_2   0.239774 0.637538 0.809356 -0.554055
O168  O     O_R   0.237659 0.722640 0.823762 -0.788186
H74   H     H_    0.228050 0.708377 0.844998 0.383553
C219  C     C_2   0.639332 0.720650 0.247823 0.994525
O169  O     O_2   0.614265 0.685767 0.260296 -0.527138
O170  O     O_R   0.618677 0.746055 0.221781 -0.777711
H75   H     H_    0.583004 0.732229 0.215693 0.383009
C220  C     C_2   0.755897 0.316106 0.801804 0.952711
O171  O     O_2   0.761140 0.361690 0.809761 -0.554336
O172  O     O_R   0.763365 0.276360 0.823673 -0.789885
H76   H     H_    0.773344 0.290271 0.844933 0.382609
C221  C     C_2   0.663344 0.255409 0.794628 0.997778
O173  O     O_2   0.637118 0.291382 0.804930 -0.539790
O174  O     O_R   0.664924 0.207916 0.810677 -0.786341
H77   H     H_    0.642817 0.208314 0.830227 0.369307
C222  C     C_2   0.720221 0.648378 0.233108 0.961563
O175  O     O_2   0.725014 0.602442 0.240403 -0.538340
O176  O     O_R   0.700606 0.661063 0.203701 -0.791277
H78   H     H_    0.692356 0.629070 0.190706 0.384888
C223  C     C_2   0.337167 0.744277 0.794332 0.996874
O177  O     O_2   0.363501 0.708177 0.804381 -0.537691
O178  O     O_R   0.335890 0.791631 0.810550 -0.782333
H79   H     H_    0.358364 0.791119 0.829960 0.387370
C224  C     C_2   0.278499 0.349873 0.229977 0.956312
O179  O     O_2   0.273196 0.396276 0.235991 -0.532713
O180  O     O_R   0.296910 0.335109 0.200641 -0.791667
H80   H     H_    0.303966 0.366123 0.186601 0.384447
C225  C     C_2   0.939195 0.422143 0.868199 1.024885
O181  O     O_2   0.958889 0.397122 0.847001 -0.619188
O182  O     O_R   0.887341 0.412846 0.876776 -0.703255
H81   H     H_    0.870249 0.384721 0.863650 0.369646
C226  C     C_2   0.577714 0.060793 0.131735 1.028307
O183  O     O_2   0.602829 0.041063 0.152885 -0.606051
O184  O     O_R   0.586968 0.112672 0.123186 -0.707915
H82   H     H_    0.615125 0.129749 0.136300 0.375514
C227  C     C_2   0.060826 0.577860 0.868203 1.024925
O185  O     O_2   0.041127 0.602878 0.847003 -0.618397
O186  O     O_R   0.112682 0.587156 0.876784 -0.703569
H83   H     H_    0.129772 0.615278 0.863660 0.369463
C228  C     C_2   0.421919 0.939228 0.131977 1.028014
O187  O     O_2   0.396966 0.959036 0.153166 -0.606685
O188  O     O_R   0.412575 0.887328 0.123502 -0.707349
H84   H     H_    0.384508 0.870305 0.136703 0.376376
C229  C     C_2   0.059907 0.578572 0.131878 1.026122
O189  O     O_2   0.039934 0.603224 0.153137 -0.608324
O190  O     O_R   0.111603 0.588642 0.123267 -0.699760
H85   H     H_    0.128318 0.616977 0.136408 0.380471
C230  C     C_2   0.577719 0.060695 0.868381 1.024887
O191  O     O_2   0.602707 0.041045 0.847154 -0.616421
O192  O     O_R   0.587256 0.112424 0.877125 -0.710678
H86   H     H_    0.615693 0.129362 0.864187 0.364304
C231  C     C_2   0.940067 0.421458 0.131851 1.026142
O193  O     O_2   0.960031 0.396796 0.153112 -0.608814
O194  O     O_R   0.888373 0.411396 0.123224 -0.699530
H87   H     H_    0.871653 0.383056 0.136354 0.381189
C232  C     C_2   0.422330 0.938869 0.867848 1.029230
O195  O     O_2   0.413969 0.893520 0.875277 -0.530319
O196  O     O_R   0.394478 0.961330 0.843274 -0.800812
H88   H     H_    0.368976 0.936022 0.833333 0.359101
C233  C     C_2   0.439178 0.922152 0.368195 1.024866
O197  O     O_2   0.458871 0.897125 0.347000 -0.618311
O198  O     O_R   0.387320 0.912871 0.376768 -0.704586
H89   H     H_    0.370223 0.884750 0.363641 0.368972
C234  C     C_2   0.078179 0.560453 0.631892 1.027871
O199  O     O_2   0.103069 0.540602 0.653097 -0.606254
O200  O     O_R   0.087744 0.612284 0.623360 -0.708189
H90   H     H_    0.115904 0.629223 0.636535 0.375837
C235  C     C_2   0.560838 0.077847 0.368208 1.024593
O201  O     O_2   0.541146 0.102870 0.347007 -0.619927
O202  O     O_R   0.612694 0.087134 0.376792 -0.703589
H91   H     H_    0.629791 0.115255 0.363669 0.369321
C236  C     C_2   0.921877 0.439546 0.631828 1.028128
O203  O     O_2   0.896973 0.459370 0.653032 -0.606908
O204  O     O_R   0.912312 0.387728 0.623263 -0.707589
H92   H     H_    0.884134 0.370777 0.636413 0.375378
C237  C     C_2   0.559902 0.078568 0.631871 1.026245
O205  O     O_2   0.539937 0.103219 0.653133 -0.608155
O206  O     O_R   0.611593 0.088642 0.623252 -0.699733
H93   H     H_    0.628308 0.116983 0.636388 0.381522
C238  C     C_2   0.078877 0.559517 0.368158 1.025617
O207  O     O_2   0.103343 0.539483 0.346843 -0.610856
O208  O     O_R   0.089302 0.611098 0.376860 -0.711947
H94   H     H_    0.117804 0.627631 0.363782 0.366027
C239  C     C_2   0.440065 0.921452 0.631857 1.026245
O209  O     O_2   0.460034 0.896792 0.653116 -0.608119
O210  O     O_R   0.388369 0.911389 0.623234 -0.699567
H95   H     H_    0.371652 0.883051 0.636367 0.381095
C240  C     C_2   0.921119 0.440581 0.368198 1.023953
O211  O     O_2   0.896686 0.460589 0.346858 -0.616357
O212  O     O_R   0.910598 0.389051 0.376960 -0.711907
H96   H     H_    0.882023 0.372552 0.363920 0.365042
N33   N     N_R   0.940281 0.424423 0.934682 0.240341
O213  O     O_R   0.948696 0.374803 0.930523 -0.285770
O214  O     O_R   0.904899 0.439295 0.954507 -0.273496
N34   N     N_R   0.575098 0.059751 0.065243 0.240732
O215  O     O_R   0.624746 0.051425 0.069343 -0.278338
O216  O     O_R   0.560093 0.095104 0.045431 -0.272394
N35   N     N_R   0.059749 0.575598 0.934686 0.240376
O217  O     O_R   0.051337 0.625217 0.930522 -0.285366
O218  O     O_R   0.095130 0.560731 0.954519 -0.273413
N36   N     N_R   0.424055 0.940075 0.065478 0.240766
O219  O     O_R   0.374441 0.948448 0.069680 -0.278508
O220  O     O_R   0.438903 0.904621 0.045690 -0.271838
N37   N     N_R   0.058991 0.576202 0.065378 0.240418
O221  O     O_R   0.050011 0.625735 0.069483 -0.283583
O222  O     O_R   0.094636 0.561673 0.045630 -0.272404
N38   N     N_R   0.575081 0.059598 0.934837 0.240769
O223  O     O_R   0.624713 0.051025 0.930860 -0.284552
O224  O     O_R   0.560118 0.095071 0.954583 -0.273236
N39   N     N_R   0.941002 0.423842 0.065352 0.240412
O225  O     O_R   0.949979 0.374308 0.069454 -0.283965
O226  O     O_R   0.905366 0.438377 0.045595 -0.272332
N40   N     N_R   0.423966 0.940090 0.934542 0.238045
O227  O     O_R   0.374371 0.948570 0.930333 -0.280867
O228  O     O_R   0.438745 0.904621 0.954340 -0.274908
N41   N     N_R   0.440258 0.924427 0.434678 0.240343
O229  O     O_R   0.448663 0.874806 0.430518 -0.285454
O230  O     O_R   0.404876 0.939305 0.454502 -0.274220
N42   N     N_R   0.075910 0.559450 0.565388 0.240781
O231  O     O_R   0.125489 0.550860 0.569586 -0.278329
O232  O     O_R   0.061205 0.594886 0.545548 -0.273007
N43   N     N_R   0.559749 0.075584 0.434691 0.240361
O233  O     O_R   0.551343 0.125204 0.430527 -0.286913
O234  O     O_R   0.595124 0.060712 0.454526 -0.273706
N44   N     N_R   0.924203 0.440626 0.565325 0.240803
O235  O     O_R   0.874620 0.449211 0.569503 -0.278721
O236  O     O_R   0.938926 0.405218 0.545474 -0.272562
N45   N     N_R   0.558969 0.076197 0.565372 0.240369
O237  O     O_R   0.549983 0.125730 0.569475 -0.283747
O238  O     O_R   0.594615 0.061669 0.545625 -0.272787
N46   N     N_R   0.076611 0.558548 0.434648 0.240799
O239  O     O_R   0.126075 0.549194 0.430560 -0.282868
O240  O     O_R   0.062337 0.594321 0.454383 -0.273549
N47   N     N_R   0.440987 0.923833 0.565357 0.240401
O241  O     O_R   0.449964 0.874299 0.569460 -0.284234
O242  O     O_R   0.405347 0.938366 0.545601 -0.272508
N48   N     N_R   0.923463 0.441628 0.434685 0.240939
O243  O     O_R   0.874000 0.451041 0.430627 -0.284483
O244  O     O_R   0.937741 0.405847 0.454414 -0.273277

loop_
_geom_bond_atom_site_label_1
_geom_bond_atom_site_label_2
_geom_bond_distance
_ccdc_geom_bond_type
C75   C110  1.482815 S    
O198  H89   1.013995 S    
C193  O85   1.223501 D    
C186  O72   1.396945 S    
C238  O207  1.223204 D    
N2    N6    1.331038 A    
C141  N37   1.437522 S    
O180  H80   1.013717 S    
C199  O98   1.400268 S    
N19   O121  1.301955 A    
C134  C150  1.410891 A    
C188  O75   1.225287 D    
C39   C87   1.587678 S    
C179  O57   1.226570 D    
N22   O127  1.301983 A    
Zn12  O7    1.922778 S    
C52   C84   1.612922 S    
C103  N26   1.477154 S    
C207  O113  1.223509 D    
C37   C85   1.587772 S    
C138  C154  1.411426 A    
Zn2   O13   1.922743 S    
C45   C197  1.543819 S    
Zn15  O28   1.916353 S    
C203  O106  1.400265 S    
C35   C219  1.528093 S    
C54   C206  1.559375 S    
C201  O102  1.402492 S    
Zn1   O30   1.917569 S    
N40   O227  1.301181 A    
Zn5   O20   1.922695 S    
Zn3   O32   1.917606 S    
C143  C155  1.411405 A    
C68   C116  1.203035 T    
C230  O191  1.223207 D    
C91   H22   1.110481 S    
C86   C115  1.480438 S    
C100  N29   1.475648 S    
C194  O88   1.402749 S    
C240  O212  1.398231 S    
O34   C22   1.272040 A    
O162  H71   1.013642 S    
C53   C205  1.543759 S    
C232  O196  1.398704 S    
C90   N23   1.475631 S    
C104  N25   1.475612 S    
O52   C22   1.273157 A    
O41   C15   1.272923 A    
C91   N22   1.477008 S    
C62   C110  1.203514 T    
C151  N47   1.437525 S    
C130  C146  1.410743 A    
Zn4   O2    1.928556 S    
C181  O62   1.394849 S    
C207  O114  1.400268 S    
O47   C17   1.273185 A    
C153  C175  1.475593 S    
C46   C182  1.537911 S    
N5    C173  1.357228 A    
C154  C176  1.475682 S    
C104  H25   1.109185 S    
N3    C175  1.357161 A    
C36   C37   1.573681 S    
C192  O84   1.396900 S    
C69   C117  1.202243 T    
Zn10  O5    1.922743 S    
Zn15  O4    1.928495 S    
C130  C234  1.488830 S    
C150  N46   1.437504 S    
N31   O145  1.301993 A    
C37   C221  1.527882 S    
C219  O170  1.399025 S    
N1    N7    1.330978 A    
O22   C10   1.272226 A    
C231  O193  1.223205 D    
C41   C193  1.543856 S    
C45   C181  1.553080 S    
C32   C216  1.531785 S    
C121  C137  1.410783 A    
Zn8   O19   1.922744 S    
N21   O125  1.301980 A    
Zn6   O44   1.914427 S    
N35   O218  1.301260 A    
Zn12  O46   1.915615 S    
O84   H48   1.013890 S    
C128  C144  1.411881 A    
C97   H32   1.110898 S    
C80   C89   1.575143 S    
O98   H55   1.013839 S    
N36   O220  1.301255 A    
C223  O178  1.399164 S    
C25   C32   1.573986 S    
N45   O237  1.301191 A    
N10   C172  1.357156 A    
C85   C116  1.481975 S    
C30   H3    1.111113 S    
N30   O144  1.298476 A    
Zn7   O3    1.928495 S    
C225  O182  1.398358 S    
C199  O97   1.223513 D    
C227  O185  1.223192 D    
N47   O241  1.301194 A    
C51   C83   1.614681 S    
C52   C188  1.538026 S    
O11   C3    1.274365 A    
C124  C228  1.488818 S    
C152  C160  1.411238 A    
C98   N31   1.475602 S    
O49   C23   1.272907 A    
C44   C76   1.612919 S    
Zn13  O4    1.928770 S    
C46   C198  1.559361 S    
Zn14  O3    1.928551 S    
C131  C147  1.410791 A    
O50   C24   1.273082 A    
O94   H53   1.013844 S    
Zn6   O17   1.922777 S    
Zn2   O31   1.916289 S    
C50   C202  1.559162 S    
C202  O103  1.223159 D    
C140  C154  1.411310 A    
C101  H28   1.110595 S    
N26   O135  1.301977 A    
N48   O243  1.301188 A    
C226  O183  1.223216 D    
C40   H9    1.105744 S    
C229  O190  1.398401 S    
O192  H86   1.013666 S    
C123  C139  1.410787 A    
C195  O89   1.223504 D    
C43   C195  1.543853 S    
C41   C177  1.553115 S    
C13   C65   1.428834 S    
C50   C82   1.612881 S    
C201  O101  1.222783 D    
Zn3   O1    1.928490 S    
C79   C106  1.481907 S    
C34   H15   1.111132 S    
N11   N13   1.330969 A    
C47   C79   1.614903 S    
N25   O133  1.302009 A    
N20   O124  1.298472 A    
C89   N24   1.477019 S    
C234  O200  1.398424 S    
C45   C77   1.614893 S    
O74   H43   1.014147 S    
C6    C161  1.477506 S    
N34   O215  1.301194 A    
C211  O154  1.399035 S    
C184  O67   1.225297 D    
C144  C156  1.411091 A    
O86   H49   1.013825 S    
C59   C107  1.202973 T    
C220  O172  1.398861 S    
C206  O111  1.223183 D    
N41   O229  1.301188 A    
Zn7   O41   1.915645 S    
C160  C170  1.476092 S    
O31   C19   1.271762 A    
C28   H5    1.111153 S    
C200  O100  1.402644 S    
Zn15  O49   1.915645 S    
Zn11  O2    1.928490 S    
C35   C83   1.587747 S    
C3    C168  1.477261 S    
C51   C187  1.553111 S    
O108  H60   1.013868 S    
O27   C15   1.272096 A    
C149  N45   1.437521 S    
O82   H47   1.014166 S    
C41   C73   1.614677 S    
C204  O107  1.223133 D    
O8    C2    1.274416 A    
C233  O197  1.223193 D    
C36   H13   1.111162 S    
O194  H87   1.014069 S    
N19   O122  1.299527 A    
C95   N18   1.477133 S    
C213  O157  1.223406 D    
C27   C75   1.587731 S    
C131  C235  1.488364 S    
C93   N20   1.477142 S    
C81   C120  1.483186 S    
C17   C61   1.427365 S    
Zn7   O36   1.916354 S    
C39   H10   1.107043 S    
N23   O130  1.299518 A    
O16   C6    1.274416 A    
O14   C6    1.274430 A    
C126  C142  1.410687 A    
C39   C223  1.528324 S    
C128  C232  1.489001 S    
N43   O233  1.301191 A    
O40   C10   1.273044 A    
C100  C101  1.572872 S    
C183  O66   1.394850 S    
C83   C118  1.482794 S    
C146  N42   1.437592 S    
C185  O70   1.394580 S    
N44   O235  1.301192 A    
O45   C19   1.273135 A    
C9    C69   1.427306 S    
C140  N36   1.437563 S    
C88   C97   1.578371 S    
O17   C7    1.274668 A    
O212  H96   1.013744 S    
C180  O60   1.396942 S    
C139  C153  1.411133 A    
C27   H6    1.106989 S    
C216  O164  1.398873 S    
N28   O139  1.301997 A    
O9    C3    1.274260 A    
C54   C190  1.537920 S    
C25   H8    1.106982 S    
Zn8   O42   1.914330 S    
C28   C212  1.531985 S    
Zn16  O11   1.922744 S    
C98   H31   1.109639 S    
C34   C82   1.584632 S    
C217  O165  1.223407 D    
C134  C238  1.488418 S    
O174  H77   1.013573 S    
C178  O56   1.396947 S    
C237  O205  1.223209 D    
C136  C152  1.410883 A    
C29   H4    1.107013 S    
C71   C119  1.202318 T    
C48   C184  1.537922 S    
N42   O231  1.301193 A    
C208  O116  1.399358 S    
C224  O179  1.223666 D    
C31   H2    1.107006 S    
C23   C59   1.428632 S    
Zn4   O29   1.916386 S    
C189  O78   1.394857 S    
C135  C167  1.417727 A    
C218  O168  1.398845 S    
C135  C239  1.488817 S    
C90   H23   1.109642 S    
C31   C215  1.527965 S    
C99   C102  1.573674 S    
C77   C92   1.589657 S    
C129  C165  1.417847 A    
C124  C162  1.417874 A    
C78   C91   1.575130 S    
C236  O204  1.398424 S    
C11   C71   1.427448 S    
O5    C1    1.274194 A    
C132  C148  1.410752 A    
N11   C171  1.357160 A    
C85   C100  1.589641 S    
C177  O53   1.226567 D    
N6    C174  1.357206 A    
C121  C225  1.488373 S    
O186  H83   1.013998 S    
C49   C201  1.549091 S    
C102  H27   1.109618 S    
N38   O224  1.301259 A    
C212  O155  1.223612 D    
C34   C39   1.573841 S    
N39   O226  1.301256 A    
C124  C140  1.410690 A    
C139  N35   1.437593 S    
C31   C79   1.587760 S    
N18   O119  1.301982 A    
C40   C224  1.532685 S    
C29   C77   1.587735 S    
O60   H36   1.013875 S    
C40   C88   1.586655 S    
C148  C158  1.411346 A    
C159  C169  1.475928 S    
C125  C163  1.417736 A    
C75   C94   1.589798 S    
O172  H76   1.013737 S    
O112  H62   1.013958 S    
C52   C53   1.644855 S    
N46   O240  1.301258 A    
C130  C166  1.417816 A    
N29   O141  1.301918 A    
C92   C93   1.572949 S    
Zn9   O47   1.914318 S    
Zn10  O48   1.915683 S    
C48   C200  1.559367 S    
Zn11  O45   1.914395 S    
C209  O149  1.223398 D    
C47   C199  1.543790 S    
O176  H78   1.013724 S    
C56   C208  1.563342 S    
C101  N28   1.477122 S    
C226  O184  1.398417 S    
Zn1   O1    1.928769 S    
C93   H20   1.110576 S    
O29   C17   1.271849 A    
C133  C237  1.488820 S    
Zn1   O39   1.914318 S    
C145  N41   1.437594 S    
C155  C173  1.475932 S    
Zn2   O40   1.915683 S    
C203  O105  1.223500 D    
Zn3   O37   1.914395 S    
C10   C72   1.428732 S    
N40   O228  1.301257 A    
C122  C226  1.488801 S    
Zn8   O33   1.917644 S    
Zn9   O22   1.917569 S    
C228  O188  1.398422 S    
C82   C119  1.479367 S    
Zn11  O24   1.917608 S    
C55   C87   1.614831 S    
C198  O96   1.402653 S    
C50   C186  1.538116 S    
N27   O137  1.301957 A    
C102  N27   1.475555 S    
O64   H38   1.013819 S    
C49   C185  1.555297 S    
C26   C74   1.584506 S    
C232  O195  1.223100 D    
O158  H69   1.013697 S    
Zn14  O27   1.917577 S    
N24   O131  1.301977 A    
C147  C157  1.411130 A    
Zn16  O25   1.917644 S    
O6    C2    1.274434 A    
C22   C60   1.427664 S    
O170  H75   1.013773 S    
O18   C8    1.274221 A    
C76   C109  1.479293 S    
C196  O92   1.402750 S    
C179  O58   1.394867 S    
C138  N34   1.437583 S    
C94   N19   1.475552 S    
O10   C4    1.274212 A    
O154  H67   1.013755 S    
O62   H37   1.014148 S    
C192  O83   1.225693 D    
C133  C149  1.410755 A    
O96   H54   1.013917 S    
C74   C95   1.574977 S    
N9    C171  1.357161 A    
C191  O81   1.226621 D    
C19   C63   1.427338 S    
O190  H85   1.014078 S    
C187  O73   1.226564 D    
C137  C153  1.411133 A    
C92   N21   1.475620 S    
C49   C56   1.648579 S    
N1    C175  1.357161 A    
C87   C114  1.481777 S    
C121  C161  1.417847 A    
C197  O94   1.400268 S    
N2    C176  1.357253 A    
C219  O169  1.223416 D    
C51   C203  1.543853 S    
C46   C78   1.612811 S    
N15   C169  1.357228 A    
C70   C118  1.203509 T    
C125  C141  1.410764 A    
O92   H52   1.013943 S    
C58   C106  1.202995 T    
C92   H21   1.109646 S    
C186  O71   1.225291 D    
Zn12  O21   1.916384 S    
C235  O202  1.398357 S    
C43   C75   1.614663 S    
Zn13  O26   1.916279 S    
C41   C48   1.644363 S    
C151  C159  1.411405 A    
C126  C230  1.488253 S    
O116  H64   1.014126 S    
C49   C81   1.614322 S    
C44   C180  1.538058 S    
N21   O126  1.299516 A    
Zn12  O1    1.928556 S    
C127  C163  1.417724 A    
O88   H50   1.013925 S    
O32   C20   1.272061 A    
Zn13  O12   1.922695 S    
C141  C155  1.411401 A    
C190  O80   1.396906 S    
C145  C157  1.411125 A    
C61   C109  1.202273 T    
C42   C74   1.612924 S    
C221  O173  1.223371 D    
O204  H92   1.014108 S    
C33   C40   1.566450 S    
C187  O74   1.394871 S    
C103  H26   1.110561 S    
O200  H90   1.014113 S    
C193  O86   1.400265 S    
N23   O129  1.301965 A    
C225  O181  1.223187 D    
C230  O192  1.398185 S    
O12   C4    1.274212 A    
C30   C214  1.531805 S    
C77   C108  1.481876 S    
C125  C229  1.488831 S    
O48   C18   1.273089 A    
C78   C107  1.480449 S    
C122  C162  1.417751 A    
C97   C104  1.574835 S    
N22   O128  1.298466 A    
N37   O221  1.301193 A    
C91   C94   1.573687 S    
C15   C67   1.428636 S    
C36   C220  1.532024 S    
C209  O150  1.399023 S    
N13   C169  1.357227 A    
C29   C213  1.528055 S    
C81   C104  1.589529 S    
C82   C103  1.575100 S    
O168  H74   1.013755 S    
C57   C105  1.202973 T    
C35   H14   1.106985 S    
O80   H46   1.013863 S    
N17   O117  1.301952 A    
C60   C108  1.202975 T    
C89   C96   1.573638 S    
N33   O213  1.301189 A    
C83   C102  1.589788 S    
O21   C9    1.271810 A    
O196  H88   1.014084 S    
C18   C64   1.428628 S    
Zn10  O23   1.916291 S    
C73   C96   1.589792 S    
N26   O136  1.298479 A    
N48   O244  1.301255 A    
O208  H94   1.013804 S    
N12   C172  1.357166 A    
C229  O189  1.223206 D    
C133  C167  1.417729 A    
C134  C168  1.417678 A    
O76   H44   1.013807 S    
C127  C231  1.488820 S    
O166  H73   1.013763 S    
O25   C13   1.272076 A    
C94   H19   1.109598 S    
C1    C166  1.476814 S    
C33   C81   1.587897 S    
C100  H29   1.109635 S    
N34   O216  1.301256 A    
C137  N33   1.437591 S    
C131  C165  1.417847 A    
Zn7   O18   1.922835 S    
Zn5   O34   1.916277 S    
O36   C24   1.272012 A    
C210  O152  1.398853 S    
C47   C183  1.553076 S    
C126  C164  1.417754 A    
C123  C161  1.417846 A    
C221  O174  1.398904 S    
C200  O99   1.223177 D    
C194  O87   1.223142 D    
C7    C164  1.477414 S    
O106  H59   1.013832 S    
O43   C13   1.273239 A    
O28   C16   1.271908 A    
C205  O109  1.223512 D    
C239  O210  1.398397 S    
O104  H58   1.013960 S    
C12   C70   1.428637 S    
Zn5   O3    1.928770 S    
Zn6   O4    1.928551 S    
C26   H7    1.111159 S    
C195  O90   1.400265 S    
C56   C192  1.538179 S    
O70   H41   1.014174 S    
O72   H42   1.013894 S    
C43   C179  1.553097 S    
C55   C191  1.553101 S    
C182  O63   1.225282 D    
O46   C20   1.272964 A    
Zn16  O3    1.928620 S    
C96   H17   1.109614 S    
N16   C170  1.357251 A    
O188  H84   1.014120 S    
C43   C46   1.644370 S    
C50   C55   1.644576 S    
Zn14  O9    1.922777 S    
N36   O219  1.301192 A    
N44   O236  1.301258 A    
C76   C93   1.575002 S    
N45   O238  1.301258 A    
Zn4   O15   1.922778 S    
C182  O64   1.396905 S    
C152  N48   1.437491 S    
O66   H39   1.014142 S    
C52   C204  1.559137 S    
N30   O143  1.301971 A    
C177  O54   1.394868 S    
C180  O59   1.225289 D    
C38   C86   1.584684 S    
N39   O225  1.301194 A    
C136  C168  1.417629 A    
Zn14  O52   1.914427 S    
N28   O140  1.298453 A    
C54   C86   1.612820 S    
C42   C47   1.644792 S    
C66   C114  1.202896 T    
C26   C210  1.532005 S    
C14   C68   1.427762 S    
C128  C164  1.417373 A    
O23   C11   1.271848 A    
C97   N32   1.477812 S    
N27   O138  1.299523 A    
C16   C66   1.427505 S    
C53   C85   1.614927 S    
O78   H45   1.014106 S    
C86   C99   1.575139 S    
Zn2   O2    1.928621 S    
C73   C112  1.482793 S    
C142  C156  1.411000 A    
C178  O55   1.225293 D    
O7    C1    1.274217 A    
C87   C98   1.589673 S    
O90   H51   1.013822 S    
O26   C14   1.272094 A    
C135  C151  1.410765 A    
O150  H65   1.013760 S    
C156  C174  1.475755 S    
C136  C240  1.488396 S    
C27   C30   1.573947 S    
C240  O211  1.223205 D    
O102  H57   1.013966 S    
C214  O160  1.398876 S    
C181  O61   1.226624 D    
C4    C167  1.476771 S    
C202  O104  1.402733 S    
O19   C7    1.274153 A    
C218  O167  1.223615 D    
Zn8   O4    1.928620 S    
O182  H81   1.013996 S    
O156  H68   1.013749 S    
O37   C11   1.273107 A    
C220  O171  1.223613 D    
N41   O230  1.301258 A    
C127  C143  1.410756 A    
O39   C9    1.273190 A    
O15   C5    1.274175 A    
C205  O110  1.400270 S    
O13   C5    1.274248 A    
Zn10  O1    1.928621 S    
O164  H72   1.013714 S    
C42   C178  1.538044 S    
C157  C171  1.475584 S    
C129  C233  1.488360 S    
C84   C117  1.479253 S    
C158  C172  1.475623 S    
C216  O163  1.223594 D    
N29   O142  1.299531 A    
N25   O134  1.299410 A    
N20   O123  1.301981 A    
C44   C196  1.559160 S    
C38   C222  1.531806 S    
O20   C8    1.274203 A    
C224  O180  1.398825 S    
O44   C14   1.273152 A    
C64   C112  1.203509 T    
O58   H35   1.014128 S    
C184  O68   1.396910 S    
C56   C88   1.624843 S    
O54   H33   1.014134 S    
O160  H70   1.013707 S    
O24   C12   1.272049 A    
C63   C111  1.202257 T    
Zn6   O35   1.917575 S    
C206  O112  1.402635 S    
C24   C58   1.427696 S    
C222  O175  1.223594 D    
C143  N39   1.437523 S    
N4    N8    1.330887 A    
N8    C174  1.357178 A    
N18   O120  1.298467 A    
N9    N15   1.330973 A    
C95   H18   1.110582 S    
C191  O82   1.394847 S    
O35   C23   1.272111 A    
C235  O201  1.223190 D    
C148  N44   1.437594 S    
C149  C159  1.411398 A    
C150  C160  1.411241 A    
C44   C45   1.644737 S    
C204  O108  1.402775 S    
C33   H16   1.105838 S    
C188  O76   1.396954 S    
C231  O194  1.398397 S    
N33   O214  1.301261 A    
N43   O234  1.301259 A    
Zn5   O43   1.915608 S    
C233  O198  1.398356 S    
C142  N38   1.437555 S    
C32   H1    1.111102 S    
C67   C115  1.202973 T    
C185  O69   1.226575 D    
C211  O153  1.223382 D    
C32   C80   1.584682 S    
N7    C173  1.357228 A    
N35   O217  1.301190 A    
O56   H34   1.013856 S    
Zn15  O10   1.922835 S    
C210  O151  1.223613 D    
C122  C138  1.410687 A    
Zn1   O16   1.922696 S    
C239  O209  1.223210 D    
O202  H91   1.013994 S    
Zn3   O14   1.922834 S    
O152  H66   1.013746 S    
N47   O242  1.301255 A    
C146  C158  1.411323 A    
O42   C16   1.273079 A    
C36   C84   1.584469 S    
C34   C218  1.531950 S    
Zn9   O2    1.928769 S    
O114  H63   1.013841 S    
C42   C194  1.559158 S    
O110  H61   1.013816 S    
C33   C217  1.528171 S    
C28   C29   1.573747 S    
C228  O187  1.223213 D    
C88   C113  1.481351 S    
C25   C73   1.587739 S    
C198  O95   1.223169 D    
C27   C211  1.528099 S    
C222  O176  1.398871 S    
C37   H12   1.107004 S    
C99   N30   1.477014 S    
C38   H11   1.111104 S    
C28   C76   1.584540 S    
C8    C163  1.476771 S    
N14   C170  1.357244 A    
C99   H30   1.110492 S    
C217  O166  1.399062 S    
O38   C12   1.272970 A    
C96   N17   1.475566 S    
N24   O132  1.298471 A    
C80   C105  1.480444 S    
C72   C120  1.203521 T    
O184  H82   1.014111 S    
C30   C78   1.584680 S    
C5    C162  1.476822 S    
C2    C165  1.477510 S    
C196  O91   1.223147 D    
C208  O115  1.223250 D    
C51   C54   1.644365 S    
N3    N5    1.330969 A    
C20   C62   1.428644 S    
C84   C101  1.574926 S    
Zn4   O38   1.915615 S    
C123  C227  1.488367 S    
C48   C80   1.612820 S    
Zn13  O51   1.915608 S    
N12   N16   1.330999 A    
O33   C21   1.272175 A    
C53   C189  1.553074 S    
C132  C236  1.488830 S    
Zn9   O8    1.922696 S    
C237  O206  1.398395 S    
O178  H79   1.013806 S    
Zn11  O6    1.922834 S    
N32   O148  1.298426 A    
C74   C111  1.479268 S    
N32   O147  1.301981 A    
N42   O232  1.301258 A    
C214  O159  1.223595 D    
C215  O161  1.223401 D    
C215  O162  1.398950 S    
N37   O222  1.301253 A    
C129  C145  1.410779 A    
O206  H93   1.014063 S    
C213  O158  1.398999 S    
C197  O93   1.223514 D    
N4    C176  1.357116 A    
C234  O199  1.223213 D    
C238  O208  1.398261 S    
C26   C31   1.573713 S    
C21   C57   1.428639 S    
N38   O223  1.301192 A    
C212  O156  1.398854 S    
C132  C166  1.417797 A    
C35   C38   1.573954 S    
O68   H40   1.013850 S    
C98   C103  1.573081 S    
C183  O65   1.226626 D    
C25   C209  1.528079 S    
O210  H95   1.014067 S    
C89   H24   1.110488 S    
C227  O186  1.398355 S    
Zn16  O50   1.914330 S    
N17   O118  1.299528 A    
C236  O203  1.223210 D    
N10   N14   1.330982 A    
C144  N40   1.437557 S    
N31   O146  1.299517 A    
O51   C21   1.273040 A    
C189  O77   1.226634 D    
C55   C207  1.543829 S    
C190  O79   1.225311 D    
C223  O177  1.223407 D    
C79   C90   1.589646 S    
C147  N43   1.437591 S    
C90   C95   1.572909 S    
O100  H56   1.013944 S    
C65   C113  1.203264 T    
N46   O239  1.301188 A    
O30   C18   1.272122 A    
