data_mof_unit_31653.cif
_audit_creation_date              2012-12-11T16:08:30-0500
_audit_creation_method            fapswitch 2.2
_symmetry_space_group_name_H-M    P1
_symmetry_Int_Tables_number       1
_space_group_crystal_system       triclinic
_cell_length_a                    12.965667
_cell_length_b                    13.266033
_cell_length_c                    27.703917
_cell_angle_alpha                 94.921232
_cell_angle_beta                  90.159833
_cell_angle_gamma                 119.280735
_cell_volume                      4135.51467565

loop_
_atom_site_label
_atom_site_type_symbol
_atom_type_description
_atom_site_fract_x
_atom_site_fract_y
_atom_site_fract_z
_atom_type_partial_charge
C1    C     C_R   0.628015 0.895163 0.427514 0.545497
C2    C     C_R   0.171737 0.743823 0.299528 0.013994
C3    C     C_R   0.168587 0.743045 0.198491 0.015755
C4    C     C_R   0.601214 0.222194 0.440619 0.544164
C5    C     C_R   0.176216 0.655259 0.219794 -0.131505
C6    C     C_R   0.174389 0.653683 0.269719 -0.120514
C7    C     C_R   0.156202 0.736543 0.148446 -0.127542
C8    C     C_R   0.126523 0.811471 0.127054 -0.006457
C9    C     C_R   0.186876 0.936430 0.358306 0.094797
C10   C     C_R   0.168800 0.928493 0.307523 0.011953
C11   C     C_R   0.169256 0.835816 0.278294 0.008078
C12   C     C_R   0.664009 0.426554 0.238374 -0.103583
C13   C     C_R   0.153793 0.012211 0.284973 -0.120803
C14   C     C_R   0.142762 0.005977 0.234607 -0.129492
C15   C     C_R   0.148002 0.917154 0.205641 0.017632
C16   C     C_R   0.266464 0.874874 0.426027 0.574812
C17   C     C_R   0.163398 0.832912 0.227510 0.065751
C18   C     C_R   0.129226 0.905822 0.155316 -0.133021
C19   C     C_R   0.200293 0.849231 0.378872 0.037959
C20   C     C_R   0.753602 0.936481 0.357846 -0.138766
C21   C     C_R   0.759283 0.926857 0.307908 0.009448
C22   C     C_R   0.761591 0.915996 0.207146 0.010240
C23   C     C_R   0.656287 0.410825 0.287767 -0.109364
C24   C     C_R   0.852846 0.010552 0.235396 -0.136599
C25   C     C_R   0.852708 0.015019 0.285630 -0.138414
C26   C     C_R   0.765655 0.907971 0.157193 -0.130354
C27   C     C_R   0.685315 0.805496 0.129011 -0.005267
C28   C     C_R   0.627483 0.898393 0.564791 0.547016
C29   C     C_R   0.563081 0.758835 0.352325 -0.137309
C30   C     C_R   0.570145 0.744885 0.302126 0.010590
C31   C     C_R   0.666357 0.831797 0.279750 0.062149
C32   C     C_R   0.479793 0.649547 0.273628 -0.136383
C33   C     C_R   0.485075 0.640299 0.223164 -0.136712
C34   C     C_R   0.675825 0.325134 0.305044 0.030037
C35   C     C_R   0.579060 0.727892 0.200637 0.010690
C36   C     C_R   0.668700 0.825263 0.229159 0.062207
C37   C     C_R   0.588703 0.717761 0.150392 -0.138188
C38   C     C_R   0.651778 0.858045 0.379748 -0.005807
C39   C     C_R   0.741105 0.300391 0.651752 -0.129748
C40   C     C_R   0.603103 0.227384 0.578430 0.544315
C41   C     C_R   0.754299 0.322103 0.702319 0.024321
C42   C     C_R   0.770204 0.350202 0.804250 0.010132
C43   C     C_R   0.861733 0.347323 0.778358 -0.133881
C44   C     C_R   0.852920 0.331486 0.727674 -0.116120
C45   C     C_R   0.690743 0.356367 0.205929 0.036408
C46   C     C_R   0.779379 0.370230 0.854855 -0.135634
C47   C     C_R   0.688054 0.376279 0.879797 -0.005415
C48   C     C_R   0.556354 0.305967 0.653221 -0.131780
C49   C     C_R   0.564851 0.321047 0.703373 0.010996
C50   C     C_R   0.663444 0.327948 0.728199 0.064017
C51   C     C_R   0.472491 0.322188 0.728978 -0.139339
C52   C     C_R   0.271464 0.879348 0.563337 0.542827
C53   C     C_R   0.477349 0.329713 0.779273 -0.118050
C54   C     C_R   0.575347 0.337731 0.804340 0.019867
C55   C     C_R   0.669594 0.338205 0.778942 0.062022
C56   C     C_1   0.697839 0.373967 0.155190 -0.058604
C57   C     C_R   0.583107 0.351505 0.854525 -0.124606
C58   C     C_R   0.639035 0.286529 0.627470 -0.005536
C59   C     C_1   0.219386 0.861841 0.609591 -0.018957
C60   C     C_R   0.100631 0.731498 0.718928 0.155592
C61   C     C_R   0.090875 0.725252 0.769074 -0.092627
C62   C     C_R   0.198165 0.936241 0.783575 0.153816
C63   C     C_R   0.208557 0.942408 0.733342 -0.097876
C64   C     C_1   0.635055 0.271463 0.395325 -0.020664
C65   C     C_R   0.160788 0.841168 0.701019 0.003773
C66   C     C_R   0.140417 0.826331 0.801486 0.004050
C67   C     C_1   0.656828 0.300757 0.354899 -0.067170
C68   C     C_1   0.123186 0.813988 0.852508 -0.065674
C69   C     C_1   0.187693 0.851366 0.650597 -0.064550
C70   C     C_1   0.099931 0.797013 0.894150 -0.018394
C71   C     C_1   0.648276 0.858949 0.608568 -0.024334
C72   C     C_R   0.786265 0.859440 0.719453 -0.131004
C73   C     C_R   0.799831 0.844630 0.767934 -0.116331
C74   C     C_R   0.588923 0.713332 0.769152 -0.061386
C75   C     C_R   0.573979 0.726431 0.720184 0.170287
C76   C     C_R   0.704251 0.255991 0.272726 -0.108428
C77   C     C_R   0.673854 0.802575 0.695523 0.042904
C78   C     C_1   0.704986 0.397756 0.113836 -0.014507
C79   C     C_R   0.700968 0.773372 0.793137 0.006579
C80   C     C_1   0.714242 0.765069 0.844066 -0.059694
C81   C     C_1   0.661636 0.830762 0.647367 -0.063825
C82   C     C_1   0.727835 0.759759 0.886690 -0.011855
C83   C     C_R   0.065497 0.773085 0.079099 0.549811
C84   C     C_R   0.717128 0.441565 0.067391 0.548424
C85   C     C_R   0.720532 0.782799 0.081062 0.558329
C86   C     C_R   0.056467 0.766218 0.941196 0.538933
C87   C     C_R   0.710066 0.433603 0.929109 0.537481
C88   C     C_R   0.711942 0.271705 0.223272 -0.106872
C89   C     C_R   0.174477 0.745558 0.350123 0.103167
C90   C     C_R   0.749270 0.753987 0.936986 0.565747
C91   C     C_3   0.086470 0.014936 0.408687 -0.300991
C92   C     C_3   0.118401 0.567454 0.685183 -0.305271
C93   C     C_3   0.184749 0.104831 0.814662 -0.315767
C94   C     C_3   0.404223 0.541676 0.691306 -0.322742
C95   C     C_3   0.034033 0.558111 0.374919 -0.302400
Cr1   Cr    Cr6+3 0.416430 0.829200 0.492370 1.023802
Cr2   Cr    Cr6+3 0.674630 0.087020 0.504170 1.011946
Cr3   Cr    Cr6+3 0.408920 0.083740 0.503490 1.030668
Cr4   Cr    Cr6+3 0.914010 0.832750 0.013970 1.014881
Cr5   Cr    Cr6+3 0.922310 0.578600 0.003000 1.015840
Cr6   Cr    Cr6+3 0.656280 0.574630 0.003870 1.018712
H1    H     H_    0.718405 0.188623 0.285623 0.119537
H2    H     H_    0.484945 0.697274 0.369372 0.121082
H3    H     H_    0.860161 0.388325 0.874365 0.127820
H4    H     H_    0.805869 0.286832 0.631826 0.121948
H5    H     H_    0.511271 0.353994 0.873565 0.134200
H6    H     H_    0.405528 0.331267 0.798565 0.103758
H7    H     H_    0.395456 0.314804 0.710077 0.092084
H8    H     H_    0.478400 0.297723 0.634684 0.130338
H9    H     H_    0.648062 0.492776 0.225399 0.120117
H10   H     H_    0.043867 0.640825 0.782784 0.132493
H11   H     H_    0.256929 0.026644 0.719587 0.130152
H12   H     H_    0.129225 0.070287 0.218314 0.100237
H13   H     H_    0.863297 0.917848 0.700954 0.113896
H14   H     H_    0.887081 0.890950 0.786091 0.116720
H15   H     H_    0.512577 0.658735 0.788929 0.117831
H16   H     H_    0.633134 0.463991 0.312261 0.111643
H17   H     H_    0.178905 0.585106 0.197721 0.102980
H18   H     H_    0.177078 0.582058 0.284352 0.105833
H19   H     H_    0.245739 0.113090 0.375978 0.248708
H20   H     H_    0.022276 0.003253 0.379150 0.131814
H21   H     H_    0.103097 0.091482 0.434008 0.135877
H22   H     H_    0.048002 0.937068 0.429144 0.154487
H23   H     H_    0.148709 0.082277 0.305755 0.108004
H24   H     H_    0.924046 0.088661 0.307026 0.097357
H25   H     H_    0.415549 0.565155 0.201780 0.104557
H26   H     H_    0.939591 0.356551 0.797280 0.103029
H27   H     H_    0.922894 0.326213 0.708354 0.102119
H28   H     H_    0.022383 0.633658 0.653252 0.257380
H29   H     H_    0.071422 0.485754 0.660667 0.126744
H30   H     H_    0.130064 0.545094 0.721800 0.153302
H31   H     H_    0.206517 0.623168 0.670884 0.163000
H32   H     H_    0.271512 0.033732 0.850041 0.260032
H33   H     H_    0.230899 0.185549 0.839801 0.133761
H34   H     H_    0.839247 0.977348 0.140873 0.130796
H35   H     H_    0.093445 0.051571 0.826661 0.144181
H36   H     H_    0.180872 0.129474 0.777649 0.142256
H37   H     H_    0.446422 0.700154 0.666667 0.258612
H38   H     H_    0.314701 0.503203 0.673222 0.126845
H39   H     H_    0.394303 0.507021 0.727093 0.146103
H40   H     H_    0.459010 0.515208 0.668491 0.151573
H41   H     H_    0.156177 0.664531 0.126688 0.132672
H42   H     H_    0.212311 0.613668 0.362803 0.243969
H43   H     H_    0.028290 0.488317 0.396082 0.139131
H44   H     H_    0.993975 0.519356 0.337833 0.144510
H45   H     H_    0.823270 0.012199 0.378988 0.125255
H46   H     H_    0.983291 0.596527 0.393224 0.156878
H47   H     H_    0.107424 0.964688 0.138787 0.123527
H48   H     H_    0.925256 0.079944 0.218640 0.097866
H49   H     H_    0.525798 0.639121 0.128583 0.124431
H50   H     H_    0.405166 0.582407 0.290343 0.098216
H51   H     H_    0.733278 0.217376 0.198623 0.112284
N1    N     N_2   0.196577 0.033144 0.388808 -0.490799
N2    N     N_2   0.049896 0.626831 0.687184 -0.511321
N3    N     N_2   0.248529 0.040927 0.815362 -0.509037
N4    N     N_2   0.457931 0.666925 0.697246 -0.523282
N5    N     N_2   0.156700 0.645958 0.372738 -0.493012
O1    O     O_R   0.296680 0.802170 0.437540 -0.490507
O2    O     O_R   0.637200 0.461990 0.052510 -0.509487
O3    O     O_R   0.664790 0.681920 0.057970 -0.495057
O4    O     O_R   0.525380 0.838530 0.443500 -0.503213
O5    O     O_R   0.815840 0.852920 0.961840 -0.504540
O6    O     O_R   0.012100 0.822630 0.963670 -0.512728
O7    O     O_R   0.037010 0.668460 0.953040 -0.508825
O8    O     O_R   0.813390 0.478970 0.949660 -0.503948
O9    O     O_R   0.632250 0.456930 0.945520 -0.528615
O10   O     O_R   0.660200 0.677230 0.958780 -0.492613
O11   O     O_3   0.830870 0.661990 0.006950 -0.264040
O12   O     O_R   0.662610 0.183990 0.557860 -0.502192
O13   O     O_R   0.702130 0.995190 0.446810 -0.522827
O14   O     O_R   0.661770 0.181390 0.458760 -0.497599
O15   O     O_R   0.499820 0.198480 0.455280 -0.502277
O16   O     O_R   0.311660 0.976250 0.449080 -0.468490
O17   O     O_R   0.297580 0.804960 0.544440 -0.511672
O18   O     O_R   0.526220 0.841130 0.542590 -0.497130
O19   O     O_R   0.703030 0.997990 0.553710 -0.511517
O20   O     O_R   0.500730 0.201280 0.562180 -0.522032
O21   O     O_R   0.312500 0.978850 0.548170 -0.497531
O22   O     O_3   0.499990 0.999990 0.500010 -0.245425
O23   O     O_R   0.820790 0.857990 0.068830 -0.519422
O24   O     O_R   0.016700 0.827330 0.062850 -0.501432
O25   O     O_R   0.041970 0.673520 0.060040 -0.516732
O26   O     O_R   0.817980 0.483660 0.048840 -0.490949

loop_
_geom_bond_atom_site_label_1
_geom_bond_atom_site_label_2
_ccdc_geom_bond_type
C16   O16   A    
C15   C18   A    
Cr1   O1    S    
C63   C65   A    
C4    O14   A    
C90   O10   A    
Cr6   O11   S    
C8    C83   S    
C94   H39   S    
C41   C50   A    
C66   C68   S    
C35   C36   A    
C95   H44   S    
C37   H49   S    
C93   H35   S    
C95   N5    S    
C12   H9    S    
C56   C78   T    
C7    C8    A    
C39   C41   A    
C87   O8    A    
C53   C54   A    
C62   N3    S    
C21   C31   A    
C12   C23   A    
C29   H2    S    
C26   C27   A    
C72   C77   A    
Cr1   O17   S    
C90   O5    A    
C92   H31   S    
C91   N1    S    
C3    C7    A    
C85   O23   A    
C30   C31   A    
Cr2   O22   S    
C87   O9    A    
C72   H13   S    
C1    O13   A    
Cr1   O18   S    
Cr2   O12   S    
Cr1   O4    S    
C83   O24   A    
C15   C17   A    
C42   C46   A    
C63   H11   S    
C27   C85   S    
Cr5   O26   S    
C25   H24   S    
H19   N1    S    
C26   H34   S    
C46   C47   A    
C61   C66   A    
C9    C19   A    
C11   C17   A    
Cr6   O3    S    
C48   H8    S    
C51   H7    S    
C49   C51   A    
C91   H21   S    
C29   C38   A    
C85   O3    A    
Cr3   O21   S    
C29   C30   A    
Cr5   O25   S    
C9    C10   A    
C76   C88   A    
C31   C36   A    
C72   C73   A    
Cr3   O15   S    
C57   H5    S    
C9    N1    S    
C95   H43   S    
Cr2   O19   S    
C91   H22   S    
C13   C14   A    
C94   H38   S    
C88   H51   S    
C2    C6    A    
C2    C11   A    
C75   N4    S    
C40   O12   A    
C84   O2    A    
H42   N5    S    
C52   O21   A    
C76   H1    S    
C40   C58   S    
C74   C75   A    
C62   C66   A    
C16   O1    A    
C64   C67   T    
C93   N3    S    
C92   H30   S    
C95   H46   S    
C24   C25   A    
C45   C56   S    
C80   C82   T    
C93   H33   S    
C24   H48   S    
C43   H26   S    
C13   H23   S    
C28   O19   A    
C39   C58   A    
C46   H3    S    
C8    C18   A    
Cr2   O13   S    
C79   C80   S    
C83   O25   A    
Cr5   O8    S    
C51   C53   A    
C47   C87   S    
C2    C89   A    
C92   H29   S    
C43   C44   A    
C62   C63   A    
C19   C89   A    
C52   C59   S    
C42   C55   A    
C47   C57   A    
Cr4   O5    S    
C20   C38   A    
C53   H6    S    
C77   C81   S    
C23   C34   A    
C74   H15   S    
C45   C88   A    
C73   C79   A    
Cr5   O7    S    
Cr3   O20   S    
C48   C58   A    
C75   C77   A    
C1    C38   S    
C59   C69   T    
Cr4   O6    S    
C68   C70   T    
C48   C49   A    
C60   C65   A    
C74   C79   A    
C91   H20   S    
C41   C44   A    
C20   H45   S    
C28   C71   S    
C86   O7    A    
C42   C43   A    
C70   C86   S    
C52   O17   A    
C6    H18   S    
Cr6   O10   S    
Cr4   O11   S    
H37   N4    S    
C39   H4    S    
C21   C25   A    
C54   C55   A    
C44   H27   S    
C4    O15   A    
C35   C37   A    
H32   N3    S    
C94   H40   S    
C84   O26   A    
C12   C45   A    
C3    C5    A    
C10   C13   A    
Cr2   O14   S    
C34   C67   S    
C23   H16   S    
C28   O18   A    
C89   N5    S    
C14   H12   S    
C22   C36   A    
C4    C64   S    
C18   H47   S    
C50   C55   A    
C82   C90   S    
C5    H17   S    
Cr5   O11   S    
C32   C33   A    
Cr4   O23   S    
C73   H14   S    
C30   C32   A    
C5    C6    A    
C32   H50   S    
C27   C37   A    
C16   C19   S    
C65   C69   S    
C33   H25   S    
C33   C35   A    
C3    C17   A    
C22   C24   A    
Cr1   O22   S    
Cr6   O9    S    
C60   N2    S    
Cr4   O24   S    
C93   H36   S    
C10   C11   A    
C1    O4    A    
C40   O20   A    
C78   C84   S    
Cr3   O16   S    
C20   C21   A    
Cr6   O2    S    
C94   N4    S    
C49   C50   A    
C22   C26   A    
C14   C15   A    
C60   C61   A    
C92   N2    S    
C86   O6    A    
Cr3   O22   S    
C7    H41   S    
H28   N2    S    
C34   C76   A    
C71   C81   T    
C54   C57   A    
C61   H10   S    
