data_mof_unit_51682.cif
_audit_creation_date              2012-12-10T18:06:49-0500
_audit_creation_method            fapswitch 2.2
_symmetry_space_group_name_H-M    P1
_symmetry_Int_Tables_number       1
_space_group_crystal_system       triclinic
_cell_length_a                    12.584731
_cell_length_b                    13.166104
_cell_length_c                    15.346635
_cell_angle_alpha                 83.31221
_cell_angle_beta                  99.334511
_cell_angle_gamma                 96.680542
_cell_volume                      2479.71901633

loop_
_atom_site_label
_atom_site_type_symbol
_atom_type_description
_atom_site_fract_x
_atom_site_fract_y
_atom_site_fract_z
_atom_type_partial_charge
C1    C     C_R   0.443132 0.307847 0.510740 0.870147
C2    C     C_R   0.654186 0.617526 0.908292 -0.023104
C3    C     C_R   0.548782 0.569484 0.884189 0.056799
C4    C     C_R   0.436181 0.517153 0.335285 0.892660
C5    C     C_R   0.737638 0.602143 0.862647 -0.139304
C6    C     C_R   0.717903 0.542786 0.790277 -0.094663
C7    C     C_R   0.529388 0.511320 0.811732 -0.119019
C8    C     C_R   0.728709 0.929176 0.553661 0.670380
C9    C     C_R   0.594879 0.799198 0.493579 -0.126928
C10   C     C_R   0.298915 0.167793 0.470061 -0.072554
C11   C     C_R   0.284255 0.086125 0.417696 -0.198398
C12   C     C_R   0.430358 0.585056 0.085847 -0.018159
C13   C     C_R   0.370515 0.030202 0.413179 -0.073980
C14   C     C_R   0.465904 0.041340 0.477580 0.030600
C15   C     C_R   0.482292 0.126511 0.528355 0.061257
C16   C     C_R   0.556915 0.691366 0.491001 0.912815
C17   C     C_R   0.544925 0.970767 0.494104 0.033993
C18   C     C_R   0.647882 0.996733 0.543362 0.037414
C19   C     C_R   0.663596 0.082173 0.591081 -0.179984
C20   C     C_R   0.578260 0.141231 0.590993 -0.124954
C21   C     C_R   0.518419 0.869466 0.474603 -0.150253
C22   C     C_R   0.702255 0.830640 0.527294 -0.273145
C23   C     C_R   0.319496 0.552909 0.057282 -0.000418
C24   C     C_R   0.404492 0.197764 0.512142 -0.125334
C25   C     C_R   0.141925 0.655905 0.614659 -0.260855
C26   C     C_R   0.760461 0.381533 0.393075 0.019744
C27   C     C_R   0.856112 0.373364 0.358586 -0.124958
C28   C     C_R   0.566249 0.489802 0.664946 0.905480
C29   C     C_R   0.950752 0.428072 0.394759 -0.229635
C30   C     C_R   0.951836 0.489545 0.463891 0.025771
C31   C     C_R   0.852528 0.503940 0.489481 0.233179
C32   C     C_R   0.048549 0.537241 0.508110 0.014368
C33   C     C_R   0.044652 0.610308 0.568766 0.017660
C34   C     C_R   0.498533 0.614189 0.019940 -0.030719
C35   C     C_R   0.943773 0.630959 0.585522 -0.201254
C36   C     C_R   0.850175 0.575501 0.549250 -0.152953
C37   C     C_R   0.149530 0.510089 0.497670 -0.161985
C38   C     C_R   0.239121 0.623010 0.601853 0.715037
C39   C     C_R   0.398100 0.538333 0.239546 -0.112427
C40   C     C_R   0.608981 0.506163 0.758827 -0.093148
C41   C     C_R   0.248153 0.527089 0.119132 -0.090096
C42   C     C_R   0.287039 0.520328 0.209201 -0.201303
C43   C     C_R   0.470593 0.574630 0.178507 -0.033891
C44   C     C_2   0.204209 0.221898 0.477055 0.964345
C45   C     C_R   0.467283 0.576983 0.936113 -0.010133
C46   C     C_2   0.361686 0.971697 0.334652 0.905496
C47   C     C_2   0.586366 0.208293 0.664107 0.946563
C48   C     C_2   0.145820 0.736280 0.675733 1.007587
C49   C     C_2   0.663453 0.312976 0.363811 1.036899
C50   C     C_2   0.860930 0.310230 0.284467 0.986178
C51   C     C_2   0.814199 0.514120 0.757642 0.932789
C52   C     C_2   0.588298 0.590132 0.212080 0.931401
C53   C     C_R   0.356652 0.547669 0.908552 -0.209349
C54   C     C_R   0.282629 0.541394 0.967478 0.639483
C55   C     C_R   0.597030 0.677067 0.034335 -0.217929
C56   C     C_R   0.675082 0.677565 0.979769 0.658795
F1    F     F_    0.176513 0.513860 0.938320 -0.635636
F2    F     F_    0.829946 0.954872 0.596193 -0.622322
F3    F     F_    0.334789 0.664943 0.643541 -0.632410
F4    F     F_    0.772642 0.732345 0.999743 -0.628820
H1    H     H_    0.819373 0.633703 0.885929 0.248321
H2    H     H_    0.777412 0.587872 0.571718 0.190249
H3    H     H_    0.162761 0.506161 0.098118 0.211731
H4    H     H_    0.230328 0.494899 0.255282 0.177880
H5    H     H_    0.325284 0.531827 0.841201 0.197276
H6    H     H_    0.615204 0.724701 0.088674 0.190153
H7    H     H_    0.124242 0.288113 0.555691 0.344616
H8    H     H_    0.265369 0.888768 0.244600 0.363996
H9    H     H_    0.743812 0.259247 0.660904 0.335757
H10   H     H_    0.211201 0.789799 0.792633 0.364658
H11   H     H_    0.591445 0.168516 0.369858 0.357200
H12   H     H_    0.762715 0.776551 0.541495 0.177540
H13   H     H_    0.954055 0.241861 0.217733 0.368541
H14   H     H_    0.976533 0.536051 0.761493 0.369848
H15   H     H_    0.708545 0.668741 0.288137 0.357046
H16   H     H_    0.737996 0.094678 0.636733 0.200693
H17   H     H_    0.435319 0.841592 0.452413 0.167128
H18   H     H_    0.207204 0.070469 0.375981 0.227726
H19   H     H_    0.450499 0.471363 0.793131 0.171033
H20   H     H_    0.935906 0.684496 0.631776 0.213799
H21   H     H_    0.160408 0.454083 0.454971 0.167957
H22   H     H_    0.022269 0.424465 0.365482 0.198938
N1    N     N_R   0.239390 0.551900 0.544730 -0.150552
N2    N     N_R   0.759950 0.448600 0.455730 -0.177545
O1    O     O_R   0.374950 0.371210 0.521360 -0.578102
O2    O     O_R   0.194372 0.256332 0.557944 -0.739179
O3    O     O_2   0.441753 0.966305 0.300270 -0.585363
O4    O     O_R   0.261016 0.925709 0.298121 -0.779053
O5    O     O_2   0.506186 0.216342 0.697228 -0.561183
O6    O     O_R   0.684829 0.259597 0.698535 -0.705704
O7    O     O_2   0.091983 0.809196 0.654000 -0.568460
O8    O     O_R   0.214584 0.730325 0.757065 -0.735000
O9    O     O_2   0.597962 0.340635 0.300169 -0.557686
O10   O     O_R   0.655107 0.211278 0.401449 -0.803890
O11   O     O_2   0.779093 0.283371 0.234578 -0.559037
O12   O     O_R   0.542050 0.338030 0.492790 -0.627528
O13   O     O_R   0.960739 0.283791 0.270092 -0.750693
O14   O     O_2   0.807637 0.439310 0.716470 -0.566311
O15   O     O_R   0.915757 0.567511 0.781364 -0.786684
O16   O     O_2   0.650240 0.535237 0.191340 -0.563528
O17   O     O_R   0.627489 0.666655 0.268456 -0.786640
O18   O     O_R   0.368720 0.526070 0.390200 -0.630216
O19   O     O_R   0.535820 0.492890 0.361630 -0.573693
O20   O     O_R   0.457950 0.661970 0.507210 -0.570540
O21   O     O_R   0.625050 0.628790 0.478640 -0.637477
O22   O     O_R   0.464180 0.507110 0.638370 -0.562112
O23   O     O_R   0.631280 0.473930 0.609800 -0.602440
O24   O     O_2   0.132425 0.232249 0.413643 -0.602616
Zn1   Zn    Zn3+2 0.388420 0.522150 0.519080 1.031537
Zn2   Zn    Zn3+2 0.611580 0.477850 0.480920 0.990787

loop_
_geom_bond_atom_site_label_1
_geom_bond_atom_site_label_2
_ccdc_geom_bond_type
C55   C56   A    
C38   N1    A    
C27   C29   A    
C41   C42   A    
C19   C20   A    
O21   Zn2   S    
H11   O10   S    
C53   C54   A    
H13   O13   S    
C12   C23   A    
C26   C27   A    
O19   Zn2   S    
C5    C6    A    
C19   H16   S    
C9    C16   S    
C43   C52   S    
C12   C43   A    
O1    Zn1   S    
C30   C31   A    
C33   C35   A    
C44   O2    S    
C50   O11   D    
C28   C40   S    
C28   O23   A    
C4    O19   A    
C35   H20   S    
C18   C19   A    
C8    F2    S    
C16   O20   A    
C35   C36   A    
C28   O22   A    
C50   O13   S    
C48   O7    D    
C4    O18   A    
C8    C22   A    
C7    C40   A    
N1    Zn1   S    
C49   O10   S    
C53   H5    S    
C27   C50   S    
C51   O14   D    
C45   C53   A    
C34   C55   A    
C13   C14   A    
C1    O1    A    
C47   O5    D    
C14   C17   A    
C37   H21   S    
C36   H2    S    
C22   H12   S    
C39   C42   A    
C46   O4    S    
C44   O24   D    
C51   O15   S    
C15   C20   A    
C52   O17   S    
C10   C44   S    
C26   C49   S    
C39   C43   A    
C10   C24   A    
O12   Zn2   S    
C3    C45   A    
N2    Zn2   S    
C31   N2    A    
C56   F4    S    
C6    C51   S    
C29   C30   A    
C11   H18   S    
C25   C38   A    
C14   C15   A    
C4    C39   S    
C17   C18   A    
C5    H1    S    
C34   C45   A    
C32   C37   A    
C25   C48   S    
C16   O21   A    
C15   C24   A    
H8    O4    S    
C47   O6    S    
C6    C40   A    
C2    C5    A    
C41   H3    S    
C12   C34   A    
H9    O6    S    
C42   H4    S    
C55   H6    S    
C23   C54   A    
C7    H19   S    
C46   O3    D    
H7    O2    S    
C26   N2    A    
C31   C36   A    
H10   O8    S    
H14   O15   S    
C3    C7    A    
C23   C41   A    
C32   C33   A    
C2    C3    A    
C29   H22   S    
C2    C56   A    
C30   C32   A    
C11   C13   A    
C9    C21   A    
O20   Zn1   S    
C1    O12   A    
O23   Zn2   S    
C52   O16   D    
C9    C22   A    
C8    C18   A    
C20   C47   S    
C10   C11   A    
C38   F3    S    
C1    C24   S    
C48   O8    S    
C21   H17   S    
H15   O17   S    
C13   C46   S    
C37   N1    A    
O18   Zn1   S    
C49   O9    D    
O22   Zn1   S    
C25   C33   A    
C54   F1    S    
C17   C21   A    
