data_mof_unit_7142.cif
_audit_creation_date              2012-12-10T18:32:00-0500
_audit_creation_method            fapswitch 2.2
_symmetry_space_group_name_H-M    P1
_symmetry_Int_Tables_number       1
_space_group_crystal_system       triclinic
_cell_length_a                    10.654724
_cell_length_b                    14.991182
_cell_length_c                    15.43257
_cell_angle_alpha                 82.007599
_cell_angle_beta                  89.656626
_cell_angle_gamma                 104.583553
_cell_volume                      2360.24281645

loop_
_atom_site_label
_atom_site_type_symbol
_atom_type_description
_atom_site_fract_x
_atom_site_fract_y
_atom_site_fract_z
_atom_type_partial_charge
C1    C     C_R   0.481412 0.441624 0.662147 0.875869
C2    C     C_R   0.535645 0.453194 0.896787 0.023714
C3    C     C_R   0.571319 0.368903 0.923751 -0.010563
C4    C     C_R   0.742122 0.501069 0.499636 0.858369
C5    C     C_R   0.561922 0.523823 0.950875 0.014513
C6    C     C_R   0.584541 0.500140 0.039609 -0.030349
C7    C     C_R   0.612723 0.413497 0.067296 -0.304263
C8    C     C_R   0.611081 0.350305 0.009022 0.614829
C9    C     C_R   0.574872 0.618233 0.917343 -0.171269
C10   C     C_R   0.586124 0.685921 0.972680 0.155313
C11   C     C_R   0.580249 0.658023 0.064116 0.149707
C12   C     C_3   0.120226 0.498089 0.502220 0.093039
C13   C     C_R   0.578384 0.564253 0.097349 0.089119
C14   C     C_R   0.573693 0.720469 0.123445 -0.194323
C15   C     C_R   0.556202 0.689187 0.213118 -0.205723
C16   C     C_R   0.520927 0.558538 0.337736 0.848459
C17   C     C_R   0.559149 0.534515 0.187278 -0.249693
C18   C     C_R   0.687207 0.841134 0.640768 -0.408422
C19   C     C_R   0.657957 0.752686 0.616966 0.789778
C20   C     C_R   0.515295 0.793988 0.510034 -0.195030
C21   C     C_R   0.540195 0.885111 0.531385 0.012096
C22   C     C_R   0.628874 0.907779 0.598055 0.084195
C23   C     C_3   0.061352 0.469117 0.415601 -0.401946
C24   C     C_R   0.480893 0.953710 0.489285 0.112411
C25   C     C_R   0.513758 0.044954 0.513742 0.077213
C26   C     C_R   0.602860 0.064098 0.580462 -0.231501
C27   C     C_R   0.658743 0.996558 0.621769 -0.162918
C28   C     C_R   0.257581 0.498940 0.501097 0.852907
C29   C     C_R   0.389561 0.933998 0.423959 -0.228620
C30   C     C_R   0.332934 0.001387 0.383105 -0.197822
C31   C     C_R   0.365037 0.090787 0.405432 0.177999
C32   C     C_R   0.455860 0.113925 0.470794 -0.003982
C33   C     C_R   0.306624 0.157550 0.362844 -0.297392
C34   C     C_3   0.106611 0.598693 0.507382 -0.498723
C35   C     C_R   0.338713 0.246708 0.385106 0.019701
C36   C     C_R   0.484494 0.205976 0.489920 -0.056354
C37   C     C_3   0.898684 0.429534 0.578298 -0.349232
C38   C     C_3   0.044227 0.432101 0.583942 0.009752
C39   C     C_3   0.919368 0.473878 0.413684 -0.516374
C40   C     C_3   0.964244 0.599711 0.511109 0.511852
C41   C     C_3   0.878616 0.501619 0.500871 0.014781
C42   C     C_3   0.598389 0.785702 0.932793 -0.912546
C43   C     C_3   0.374196 0.520305 0.803419 -0.896191
C44   C     C_3   0.062866 0.332439 0.598058 -0.901550
C45   C     C_R   0.488594 0.406837 0.754441 -0.053839
C46   C     C_R   0.545189 0.595319 0.244790 -0.062822
C47   C     C_R   0.567406 0.305346 0.864571 -0.139476
C48   C     C_R   0.532702 0.326738 0.778865 -0.273552
C49   C     C_R   0.473818 0.463246 0.816929 0.185377
F1    F     F_    0.645045 0.269938 0.036937 -0.673326
F2    F     F_    0.713162 0.687248 0.658243 -0.612404
F3    F     F_    0.934643 0.625484 0.590274 -0.611592
H1    H     H_    0.840128 0.358859 0.569071 0.180201
H2    H     H_    0.643730 0.395487 0.132451 0.175506
H3    H     H_    0.580024 0.640129 0.847395 0.194138
H4    H     H_    0.577946 0.792890 0.101223 0.159249
H5    H     H_    0.726329 0.014152 0.672758 0.146904
H6    H     H_    0.552267 0.230992 0.537798 0.123690
H7    H     H_    0.294189 0.299139 0.353008 0.134377
H8    H     H_    0.263285 0.983263 0.333407 0.148030
H9    H     H_    0.754573 0.857318 0.692139 0.178764
H10   H     H_    0.450497 0.769783 0.460293 0.155729
H11   H     H_    0.080124 0.463172 0.643534 0.164753
H12   H     H_    0.156584 0.647566 0.449167 0.142361
H13   H     H_    0.631594 0.130674 0.603166 0.129826
H14   H     H_    0.358499 0.866758 0.402780 0.136049
H15   H     H_    0.236853 0.140907 0.312946 0.150235
H16   H     H_    0.857569 0.404723 0.403106 0.221799
H17   H     H_    0.067122 0.397504 0.408364 0.199919
H18   H     H_    0.947273 0.652512 0.457262 0.075338
H19   H     H_    0.153140 0.625003 0.566535 0.227063
H20   H     H_    0.512578 0.808410 0.953058 0.243983
H21   H     H_    0.688036 0.831323 0.954636 0.247102
H22   H     H_    0.604171 0.794699 0.860061 0.246473
H23   H     H_    0.906890 0.525687 0.357451 0.166991
H24   H     H_    0.337559 0.533191 0.866806 0.248504
H25   H     H_    0.414748 0.587973 0.761382 0.258247
H26   H     H_    0.288412 0.481265 0.771596 0.224478
H27   H     H_    0.039498 0.298028 0.538915 0.259289
H28   H     H_    0.163688 0.333091 0.616150 0.256736
H29   H     H_    0.998113 0.289773 0.653458 0.238651
H30   H     H_    0.117057 0.516542 0.358540 0.164591
H31   H     H_    0.547392 0.462146 0.213262 0.165570
H32   H     H_    0.547880 0.737802 0.257276 0.159882
H33   H     H_    0.597802 0.241818 0.882923 0.196982
H34   H     H_    0.542957 0.281892 0.731387 0.163478
H35   H     H_    0.862506 0.444785 0.641059 0.189581
N1    N     N_R   0.573860 0.731700 0.552730 -0.156761
N2    N     N_R   0.426060 0.268290 0.447230 -0.101406
O1    O     O_R   0.462770 0.383110 0.605620 -0.632719
O2    O     O_R   0.510160 0.531900 0.639510 -0.555003
O3    O     O_R   0.661510 0.425600 0.483070 -0.638645
O4    O     O_R   0.708900 0.574390 0.516960 -0.533012
O5    O     O_R   0.489840 0.468100 0.360490 -0.620659
O6    O     O_R   0.537230 0.616890 0.394380 -0.625335
O7    O     O_R   0.291100 0.425610 0.483040 -0.617631
O8    O     O_R   0.338490 0.574400 0.516930 -0.638963
Zn1   Zn    Zn3+2 0.468350 0.400660 0.477370 0.927725
Zn2   Zn    Zn3+2 0.531650 0.599340 0.522630 0.998745

loop_
_geom_bond_atom_site_label_1
_geom_bond_atom_site_label_2
_ccdc_geom_bond_type
C36   N2    A    
C28   O8    A    
C14   H4    S    
C1    O1    A    
C23   H30   S    
C8    F1    S    
C10   C42   S    
C39   H16   S    
C23   H17   S    
O3    Zn1   S    
C7    C8    A    
C39   C41   S    
C43   H26   S    
C38   C44   S    
C19   N1    A    
C12   C23   S    
C26   C27   A    
C37   C38   S    
C40   H18   S    
C12   C28   S    
C37   C41   S    
C34   C40   S    
C32   C36   A    
C36   H6    S    
C5    C6    A    
C11   C14   A    
O6    Zn2   S    
C4    C41   S    
O5    Zn1   S    
C35   H7    S    
C18   C19   A    
C24   C29   A    
C47   C48   A    
C16   O6    A    
C30   H8    S    
C31   C33   A    
C9    H3    S    
C39   H23   S    
C9    C10   A    
O4    Zn2   S    
C37   H1    S    
C25   C32   A    
C1    O2    A    
C21   C22   A    
C12   C38   S    
C34   H12   S    
O8    Zn2   S    
C42   H22   S    
C44   H28   S    
C17   C46   A    
C44   H29   S    
C27   H5    S    
C16   C46   S    
C43   C49   S    
C25   C26   A    
C40   F3    S    
C4    O4    A    
O7    Zn1   S    
C17   H31   S    
C5    C9    A    
C29   C30   A    
C2    C49   A    
C31   C32   A    
C45   C49   A    
C42   H20   S    
C24   C25   A    
C6    C7    A    
C35   N2    A    
C40   C41   S    
C3    C8    A    
C22   C27   A    
C48   H34   S    
C2    C5    A    
C12   C34   S    
C47   H33   S    
C33   H15   S    
C38   H11   S    
C45   C48   A    
C43   H24   S    
C42   H21   S    
C18   C22   A    
C26   H13   S    
C37   H35   S    
C44   H27   S    
C18   H9    S    
C15   H32   S    
C43   H25   S    
C16   O5    A    
C7    H2    S    
C13   C17   A    
N2    Zn1   S    
C28   O7    A    
C2    C3    A    
C6    C13   A    
C11   C13   A    
C1    C45   S    
C30   C31   A    
C23   C39   S    
C20   N1    A    
C3    C47   A    
C33   C35   A    
C20   H10   S    
N1    Zn2   S    
C10   C11   A    
C29   H14   S    
C19   F2    S    
C20   C21   A    
C21   C24   A    
C14   C15   A    
C15   C46   A    
O2    Zn2   S    
C34   H19   S    
O1    Zn1   S    
C4    O3    A    
