data_mof_unit_64102.cif
_audit_creation_date              2012-12-10T20:04:49-0500
_audit_creation_method            fapswitch 2.2
_symmetry_space_group_name_H-M    P1
_symmetry_Int_Tables_number       1
_space_group_crystal_system       triclinic
_cell_length_a                    10.793958
_cell_length_b                    19.283954
_cell_length_c                    18.49865
_cell_angle_alpha                 88.277393
_cell_angle_beta                  104.661804
_cell_angle_gamma                 91.230797
_cell_volume                      3723.04606023

loop_
_atom_site_label
_atom_site_type_symbol
_atom_type_description
_atom_site_fract_x
_atom_site_fract_y
_atom_site_fract_z
_atom_type_partial_charge
C1    C     C_R   0.499827 0.365908 0.501098 0.950861
C2    C     C_R   0.493834 0.928852 0.493297 0.133668
C3    C     C_R   0.556296 0.554664 0.731325 -0.016805
C4    C     C_R   0.402944 0.464371 0.263773 0.008544
C5    C     C_R   0.559351 0.557627 0.807813 0.147902
C6    C     C_R   0.395403 0.460686 0.186753 0.083888
C7    C     C_R   0.504666 0.502959 0.842200 0.083653
C8    C     C_R   0.490191 0.493908 0.157191 0.045202
C9    C     C_R   0.450067 0.446867 0.798695 -0.245093
C10   C     C_R   0.589752 0.528990 0.206306 -0.206249
C11   C     C_R   0.446918 0.446150 0.722372 0.099627
C12   C     C_R   0.499609 0.634199 0.498832 0.979430
C13   C     C_R   0.593440 0.532487 0.282517 0.100861
C14   C     C_R   0.587765 0.459297 0.975860 -0.063442
C15   C     C_R   0.403507 0.536914 0.022909 -0.060702
C16   C     C_R   0.258862 0.502030 0.468455 1.040903
C17   C     C_R   0.741069 0.497405 0.531570 1.032078
C18   C     C_R   0.581443 0.455606 0.051781 -0.209071
C19   C     C_R   0.410211 0.540957 0.946866 -0.093398
C20   C     C_R   0.488931 0.493954 0.075562 -0.040826
C21   C     C_R   0.502658 0.502314 0.923257 -0.026554
C22   C     C_2   0.122086 0.496506 0.449565 -0.325084
C23   C     C_R   0.498175 0.709601 0.495627 -0.167303
C24   C     C_2   0.877966 0.501644 0.550698 -0.294586
C25   C     C_2   0.060049 0.516571 0.498858 0.152000
C26   C     C_2   0.939709 0.481499 0.501328 0.153257
C27   C     C_R   0.407901 0.744388 0.437266 -0.114012
C28   C     C_R   0.591355 0.255093 0.560226 -0.095368
C29   C     C_R   0.406525 0.817495 0.434456 -0.070502
C30   C     C_R   0.589422 0.182064 0.563026 -0.063414
C31   C     C_R   0.495000 0.853857 0.490178 -0.011109
C32   C     C_R   0.496169 0.146495 0.508874 -0.017610
C33   C     C_R   0.583510 0.819178 0.546882 -0.181225
C34   C     C_R   0.498570 0.290669 0.503997 -0.186696
C35   C     C_R   0.404861 0.182096 0.454487 -0.176279
C36   C     C_R   0.587492 0.747297 0.550167 -0.034637
C37   C     C_R   0.403334 0.253979 0.451741 -0.038157
C38   C     C_2   0.385302 0.385975 0.679905 0.963097
C39   C     C_2   0.700608 0.572110 0.329665 0.960855
C40   C     C_2   0.682687 0.417215 0.950866 0.968765
C41   C     C_2   0.306118 0.577212 0.047601 0.987776
C42   C     C_2   0.675811 0.413444 0.107728 1.022482
C43   C     C_2   0.322467 0.587055 0.891841 0.975694
C44   C     C_2   0.315404 0.704466 0.379418 0.999245
C45   C     C_R   0.599149 0.967570 0.482786 -0.098451
C46   C     C_2   0.689205 0.294021 0.616368 1.002099
C47   C     C_2   0.312559 0.856185 0.374723 0.946388
C48   C     C_2   0.685696 0.142864 0.620908 0.954182
C49   C     C_2   0.689713 0.713821 0.609447 0.923682
C50   C     C_2   0.298105 0.288342 0.395088 0.925152
C51   C     C_R   0.390399 0.032764 0.514726 -0.113725
C52   C     C_R   0.599890 0.039083 0.487952 -0.133231
C53   C     C_R   0.389546 0.961227 0.509400 -0.134580
C54   C     C_R   0.495986 0.071489 0.504521 0.125348
H1    H     H_    0.407722 0.404142 0.824026 0.179150
H2    H     H_    0.308566 0.931025 0.518181 0.153585
H3    H     H_    0.599702 0.596283 0.705407 0.168810
H4    H     H_    0.330919 0.438254 0.286461 0.171281
H5    H     H_    0.241210 0.349145 0.597529 0.353282
H6    H     H_    0.890638 0.592626 0.357281 0.356695
H7    H     H_    0.816361 0.413742 0.892074 0.366427
H8    H     H_    0.267845 0.641790 0.122765 0.377794
H9    H     H_    0.540169 0.352147 0.135508 0.325213
H10   H     H_    0.198857 0.597807 0.790273 0.367122
H11   H     H_    0.174875 0.631771 0.356589 0.353139
H12   H     H_    0.663407 0.555063 0.184680 0.191247
H13   H     H_    0.773144 0.309697 0.725221 0.358876
H14   H     H_    0.280635 0.936011 0.299596 0.367496
H15   H     H_    0.871157 0.131046 0.675969 0.367592
H16   H     H_    0.819937 0.637972 0.638775 0.348475
H17   H     H_    0.178073 0.285911 0.291948 0.373086
H18   H     H_    0.922399 0.533552 0.597638 0.162371
H19   H     H_    0.078509 0.463860 0.403076 0.195628
H20   H     H_    0.650800 0.848895 0.588672 0.187828
H21   H     H_    0.333790 0.153085 0.414035 0.190916
H22   H     H_    0.679912 0.942337 0.470475 0.157490
H23   H     H_    0.309773 0.057966 0.527229 0.156583
H24   H     H_    0.680911 0.069226 0.479132 0.152594
I1    I     I_    0.866818 0.394362 0.431066 -0.178504
I2    I     I_    0.131950 0.604089 0.568890 -0.238172
I3    I     I_    0.650994 0.643811 0.868582 -0.131816
I4    I     I_    0.242829 0.402564 0.119330 -0.208950
N1    N     N_R   0.500020 0.499980 0.689440 -0.148018
N2    N     N_R   0.499980 0.500020 0.310560 -0.146888
O1    O     O_R   0.500000 0.398180 0.560840 -0.625201
O2    O     O_R   0.274767 0.394478 0.622031 -0.756861
O3    O     O_2   0.680547 0.616359 0.370893 -0.571059
O4    O     O_R   0.825192 0.561764 0.323293 -0.794878
O5    O     O_2   0.696076 0.355877 0.969437 -0.566656
O6    O     O_R   0.756167 0.447719 0.905800 -0.763043
O7    O     O_2   0.193822 0.574866 0.012338 -0.553960
O8    O     O_R   0.342782 0.617451 0.111358 -0.761951
O9    O     O_2   0.790242 0.425160 0.116700 -0.513897
O10   O     O_R   0.636068 0.360659 0.150581 -0.717241
O11   O     O_2   0.310637 0.647566 0.906598 -0.557596
O12   O     O_R   0.500000 0.601820 0.439160 -0.574463
O13   O     O_R   0.254222 0.561358 0.823047 -0.777855
O14   O     O_2   0.310839 0.714743 0.313238 -0.565241
O15   O     O_R   0.233612 0.655401 0.400877 -0.806029
O16   O     O_2   0.756535 0.338300 0.595869 -0.626726
O17   O     O_R   0.704162 0.279706 0.692613 -0.729886
O18   O     O_2   0.199713 0.838305 0.357917 -0.580238
O19   O     O_R   0.353269 0.913677 0.338469 -0.765456
O20   O     O_2   0.651544 0.093865 0.655102 -0.571063
O21   O     O_R   0.815371 0.161636 0.635676 -0.776401
O22   O     O_2   0.722456 0.738811 0.671538 -0.583635
O23   O     O_R   0.499950 0.398180 0.439200 -0.602490
O24   O     O_R   0.751853 0.655377 0.593862 -0.802930
O25   O     O_2   0.250908 0.341604 0.409596 -0.645323
O26   O     O_R   0.249764 0.258100 0.325625 -0.766664
O27   O     O_R   0.500050 0.601820 0.560800 -0.622874
O28   O     O_R   0.317830 0.500010 0.538110 -0.557162
O29   O     O_R   0.682170 0.499990 0.461890 -0.605065
O30   O     O_R   0.317770 0.500000 0.416470 -0.618056
O31   O     O_R   0.682230 0.500000 0.583530 -0.602074
O32   O     O_2   0.427640 0.327958 0.698119 -0.590335
Zn1   Zn    Zn3+2 0.500040 0.500000 0.581220 1.032180
Zn2   Zn    Zn3+2 0.499960 0.500000 0.418780 1.041267

loop_
_geom_bond_atom_site_label_1
_geom_bond_atom_site_label_2
_ccdc_geom_bond_type
C6    I4    S    
C25   I2    S    
C27   C29   A    
C34   C37   A    
C14   C18   A    
H14   O19   S    
C39   O3    D    
H6    O4    S    
C17   O29   A    
C15   C19   A    
C12   C23   S    
C28   C46   S    
C8    C20   S    
C38   O2    S    
C45   H22   S    
C14   C21   A    
C30   C48   S    
C35   C37   A    
C24   C26   D    
C18   C42   S    
C17   O31   A    
O28   Zn1   S    
C44   O15   S    
C42   O9    D    
H17   O26   S    
C50   O26   S    
C33   C36   A    
C38   O32   D    
C44   O14   D    
C27   C44   S    
C19   C43   S    
O31   Zn1   S    
C22   C25   D    
C4    N2    A    
C43   O11   D    
C31   C33   A    
C9    H1    S    
C23   C27   A    
C40   O5    D    
O23   Zn2   S    
C28   C34   A    
C47   O18   D    
C39   O4    S    
C52   H24   S    
C32   C54   S    
C24   H18   S    
C52   C54   A    
C1    C34   S    
C49   O24   S    
C10   H12   S    
C2    C45   A    
C1    O1    A    
C15   C20   A    
C46   O17   S    
C17   C24   S    
C47   O19   S    
C32   C35   A    
C15   C41   S    
C4    C6    A    
C5    C7    A    
H15   O21   S    
C6    C8    A    
C45   C52   A    
C11   N1    A    
C25   C26   S    
C7    C21   S    
C2    C53   A    
C50   O25   D    
H8    O8    S    
C2    C31   S    
C51   C53   A    
C11   C38   S    
C51   H23   S    
C5    I3    S    
C48   O21   S    
C13   N2    A    
C16   O28   A    
C35   H21   S    
O1    Zn1   S    
C9    C11   A    
H11   O15   S    
O30   Zn2   S    
C1    O23   A    
C3    H3    S    
C8    C10   A    
H10   O13   S    
C41   O7    D    
C29   C47   S    
C3    N1    A    
H7    O6    S    
H13   O17   S    
C53   H2    S    
O12   Zn2   S    
C7    C9    A    
C46   O16   D    
C16   C22   S    
C19   C21   A    
C42   O10   S    
C43   O13   S    
C3    C5    A    
C10   C13   A    
C16   O30   A    
C49   O22   D    
C26   I1    S    
O27   Zn1   S    
C51   C54   A    
N1    Zn1   S    
C28   C30   A    
H5    O2    S    
C29   C31   A    
H16   O24   S    
C30   C32   A    
C37   C50   S    
H9    O10   S    
C18   C20   A    
C13   C39   S    
C14   C40   S    
O29   Zn2   S    
C33   H20   S    
C41   O8    S    
N2    Zn2   S    
C23   C36   A    
C4    H4    S    
C12   O12   A    
C22   H19   S    
C40   O6    S    
C12   O27   A    
C36   C49   S    
C48   O20   D    
