data_mof_unit_59385.cif
_audit_creation_date              2012-12-11T16:21:20-0500
_audit_creation_method            fapswitch 2.2
_symmetry_space_group_name_H-M    P1
_symmetry_Int_Tables_number       1
_space_group_crystal_system       triclinic
_cell_length_a                    7.229784
_cell_length_b                    35.711109
_cell_length_c                    42.42403
_cell_angle_alpha                 89.906468
_cell_angle_beta                  90.009136
_cell_angle_gamma                 90.011183
_cell_volume                      10953.1740399

loop_
_atom_site_label
_atom_site_type_symbol
_atom_type_description
_atom_site_fract_x
_atom_site_fract_y
_atom_site_fract_z
_atom_type_partial_charge
O1    O     O_R   0.564240 0.782760 0.216890 -0.531887
O2    O     O_R   0.435760 0.217240 0.783110 -0.538073
O3    O     O_R   0.435760 0.217240 0.716890 -0.534024
O4    O     O_R   0.564240 0.782760 0.283110 -0.533069
O5    O     O_R   0.064240 0.717240 0.283110 -0.531891
O6    O     O_R   0.935760 0.282760 0.716890 -0.538085
O7    O     O_R   0.935760 0.282760 0.783110 -0.534067
O8    O     O_R   0.064240 0.717240 0.216890 -0.533127
O9    O     O_R   0.234510 0.787070 0.282870 -0.540456
O10   O     O_R   0.765490 0.212930 0.717130 -0.541455
O11   O     O_R   0.765490 0.212930 0.782870 -0.540298
O12   O     O_R   0.234510 0.787070 0.217130 -0.536592
O13   O     O_R   0.734510 0.712930 0.217130 -0.540580
O14   O     O_R   0.265490 0.287070 0.782870 -0.541550
O15   O     O_R   0.265490 0.287070 0.717130 -0.540467
O16   O     O_R   0.734510 0.712930 0.282870 -0.536538
C1    C     C_R   0.403691 0.795800 0.293561 0.718250
C2    C     C_R   0.597615 0.204682 0.706054 0.727278
C3    C     C_R   0.597133 0.204920 0.794001 0.744425
C4    C     C_R   0.401440 0.795112 0.205770 0.706970
C5    C     C_R   0.903659 0.704203 0.206444 0.718383
C6    C     C_R   0.097667 0.295339 0.793925 0.727756
C7    C     C_R   0.097145 0.295098 0.706004 0.744248
C8    C     C_R   0.901445 0.704873 0.294219 0.707015
O17   O     O_3   0.397750 0.727090 0.250000 -0.371865
O18   O     O_3   0.602250 0.272910 0.750000 -0.375709
O19   O     O_3   0.897750 0.772910 0.250000 -0.371857
O20   O     O_3   0.102250 0.227090 0.750000 -0.375605
V1    V     V_3+5 0.122890 0.754250 0.250000 1.405594
V2    V     V_3+5 0.877110 0.245750 0.750000 1.365679
V3    V     V_3+5 0.622890 0.745750 0.250000 1.405670
V4    V     V_3+5 0.377110 0.254250 0.750000 1.365565
C9    C     C_R   0.866179 0.617560 0.434469 0.597755
C10   C     C_R   0.870133 0.400075 0.583853 0.661356
C11   C     C_R   0.103441 0.385656 0.930794 0.540713
C12   C     C_R   0.044715 0.618017 0.068626 0.608044
C13   C     C_R   0.366376 0.882392 0.065489 0.597488
C14   C     C_R   0.371356 0.100106 0.916318 0.661202
C15   C     C_R   0.599465 0.114988 0.568793 0.540226
C16   C     C_R   0.544010 0.882436 0.431277 0.607862
O21   O     O_2   0.789646 0.651263 0.440110 -0.528134
O22   O     O_2   0.725002 0.378395 0.591963 -0.475897
O23   O     O_2   0.204071 0.354214 0.934775 -0.558329
O24   O     O_2   0.108300 0.653162 0.064817 -0.536716
O25   O     O_2   0.289400 0.848719 0.059858 -0.528054
O26   O     O_2   0.226522 0.121945 0.908372 -0.476399
O27   O     O_2   0.699942 0.146447 0.564755 -0.558030
O28   O     O_2   0.607643 0.847316 0.435189 -0.536591
N1    N     N_R   0.896513 0.605935 0.403966 -0.531320
N2    N     N_R   0.026559 0.400423 0.602368 -0.547624
N3    N     N_R   0.041596 0.394975 0.901363 -0.514549
N4    N     N_R   0.981435 0.607178 0.097762 -0.521707
N5    N     N_R   0.397325 0.893970 0.095987 -0.531233
N6    N     N_R   0.527049 0.099603 0.897637 -0.547462
N7    N     N_R   0.538889 0.105579 0.598287 -0.515262
N8    N     N_R   0.480319 0.893116 0.402121 -0.521544
C17   C     C_R   0.933789 0.568559 0.398595 0.676658
C18   C     C_R   0.161333 0.426930 0.596882 0.687396
C19   C     C_R   0.965094 0.429542 0.896023 0.664425
C20   C     C_R   0.934340 0.570489 0.103118 0.661158
C21   C     C_R   0.435497 0.931303 0.101380 0.676581
C22   C     C_R   0.661248 0.072940 0.902962 0.687322
C23   C     C_R   0.462344 0.071015 0.603644 0.672984
C24   C     C_R   0.432273 0.929733 0.396680 0.660971
C25   C     C_R   0.801026 0.621887 0.348801 0.269972
C26   C     C_R   0.112300 0.385073 0.657993 0.285344
C27   C     C_R   0.162424 0.380021 0.848260 0.267626
C28   C     C_R   0.054876 0.624089 0.153098 0.265659
C29   C     C_R   0.301475 0.878064 0.151121 0.269981
C30   C     C_R   0.610985 0.114882 0.841921 0.285225
C31   C     C_R   0.661345 0.120259 0.651352 0.266028
C32   C     C_R   0.554258 0.876094 0.346834 0.265407
C33   C     C_R   0.838687 0.642545 0.321006 0.162823
C34   C     C_R   0.157331 0.358301 0.681273 0.137261
C35   C     C_R   0.163139 0.357141 0.821141 0.155439
C36   C     C_R   0.002628 0.643633 0.180621 0.162284
C37   C     C_R   0.338933 0.857424 0.178933 0.162844
C38   C     C_R   0.655843 0.141615 0.818597 0.137812
C39   C     C_R   0.662641 0.142997 0.678568 0.154971
C40   C     C_R   0.502287 0.856460 0.319331 0.162299
C41   C     C_R   0.945865 0.694073 0.353250 0.177307
C42   C     C_R   0.004602 0.310291 0.650000 0.137139
C43   C     C_R   0.009726 0.307384 0.850915 0.188041
C44   C     C_R   0.867550 0.692337 0.148003 0.127825
C45   C     C_R   0.445653 0.805837 0.146723 0.177290
C46   C     C_R   0.505680 0.189772 0.850050 0.137044
C47   C     C_R   0.508903 0.192934 0.649049 0.188037
C48   C     C_R   0.367693 0.807757 0.352008 0.128070
C49   C     C_R   0.973126 0.668420 0.378520 0.257007
C50   C     C_R   0.008704 0.334667 0.623618 0.280829
C51   C     C_R   0.979525 0.333015 0.875888 0.255534
C52   C     C_R   0.875392 0.667940 0.121578 0.263703
C53   C     C_R   0.473181 0.831463 0.121440 0.256727
C54   C     C_R   0.510127 0.165386 0.876421 0.281003
C55   C     C_R   0.478112 0.167440 0.623997 0.255824
C56   C     C_R   0.375122 0.832230 0.378393 0.263502
C57   C     C_R   0.887658 0.632412 0.377462 0.154698
C58   C     C_R   0.049467 0.373250 0.627977 0.183536
C59   C     C_R   0.063411 0.368870 0.875309 0.176479
C60   C     C_R   0.973086 0.633644 0.123937 0.188459
C61   C     C_R   0.388085 0.867495 0.122482 0.155067
C62   C     C_R   0.549726 0.126763 0.872013 0.183596
C63   C     C_R   0.561898 0.131582 0.624388 0.175634
C64   C     C_R   0.472486 0.866564 0.375998 0.188803
C65   C     C_R   0.915626 0.554844 0.453951 -0.174096
C66   C     C_R   0.984104 0.453090 0.554144 -0.182843
C67   C     C_R   0.020469 0.447173 0.950494 -0.146051
C68   C     C_R   0.012393 0.553935 0.049562 -0.158283
C69   C     C_R   0.416741 0.945105 0.046038 -0.174017
C70   C     C_R   0.484899 0.046932 0.945873 -0.182458
C71   C     C_R   0.515661 0.053524 0.549086 -0.147952
C72   C     C_R   0.510350 0.946570 0.450179 -0.158085
C73   C     C_R   0.909233 0.593534 0.459998 -0.039190
C74   C     C_R   0.860049 0.422762 0.556557 -0.051722
C75   C     C_R   0.067318 0.409428 0.956627 -0.065536
C76   C     C_R   0.045111 0.592307 0.042981 -0.088299
C77   C     C_R   0.409352 0.906425 0.039960 -0.039332
C78   C     C_R   0.361658 0.077404 0.943609 -0.051853
C79   C     C_R   0.562440 0.091263 0.542954 -0.065516
C80   C     C_R   0.544536 0.908266 0.456845 -0.088460
C81   C     C_R   0.941950 0.606278 0.491128 0.287071
C82   C     C_R   0.729256 0.417029 0.532061 0.314568
C83   C     C_R   0.071493 0.396770 0.988146 0.283815
C84   C     C_R   0.081689 0.602735 0.011267 0.291234
C85   C     C_R   0.441030 0.893694 0.008797 0.287138
C86   C     C_R   0.231948 0.083259 0.968240 0.314115
C87   C     C_R   0.566006 0.103925 0.511430 0.284314
C88   C     C_R   0.582530 0.898031 0.488566 0.291796
C89   C     C_R   0.909076 0.541756 0.422873 -0.126755
C90   C     C_R   0.127497 0.457311 0.576165 -0.126482
C91   C     C_R   0.973750 0.457949 0.919473 -0.128583
C92   C     C_R   0.974630 0.542687 0.080598 -0.104807
C93   C     C_R   0.411118 0.958158 0.077134 -0.126718
C94   C     C_R   0.627323 0.042577 0.923697 -0.126047
C95   C     C_R   0.469387 0.042722 0.580116 -0.130430
C96   C     C_R   0.471830 0.957663 0.419130 -0.104834
C97   C     C_R   0.900891 0.680006 0.322947 -0.254236
C98   C     C_R   0.087087 0.321484 0.678781 -0.235892
C99   C     C_R   0.090728 0.320214 0.822306 -0.260562
C100  C     C_R   0.917878 0.679141 0.178277 -0.236660
C101  C     C_R   0.400893 0.819948 0.177021 -0.254336
C102  C     C_R   0.587006 0.178518 0.821202 -0.235965
C103  C     C_R   0.590426 0.179949 0.677574 -0.260329
C104  C     C_R   0.417949 0.820907 0.321715 -0.236551
C105  C     C_R   0.051372 0.514362 0.531191 -0.031839
C106  C     C_R   0.884738 0.491337 0.474604 -0.052942
C107  C     C_R   0.026589 0.487920 0.032687 -0.016881
C108  C     C_R   0.991382 0.512145 0.968723 -0.056772
C109  C     C_R   0.551299 0.985562 0.968716 -0.031862
C110  C     C_R   0.387016 0.008677 0.025469 -0.053022
C111  C     C_R   0.522105 0.012676 0.466919 -0.017019
C112  C     C_R   0.487856 0.988529 0.530897 -0.057558
C113  C     C_R   0.863706 0.469113 0.502246 0.043431
C114  C     C_R   0.996443 0.541726 0.508591 0.064414
C115  C     C_R   0.019969 0.538503 0.993449 0.020835
C116  C     C_R   0.033668 0.461257 0.007340 0.024321
C117  C     C_R   0.365799 0.030966 0.997869 0.043548
C118  C     C_R   0.496413 0.958224 0.991345 0.064498
C119  C     C_R   0.517820 0.962174 0.506243 0.021567
C120  C     C_R   0.528621 0.039408 0.492235 0.024800
C121  C     C_R   0.966350 0.478920 0.529257 0.017014
C122  C     C_R   0.932013 0.529262 0.479029 0.015310
C123  C     C_R   0.017108 0.526633 0.025176 0.025701
C124  C     C_R   0.017264 0.473672 0.975521 0.022219
C125  C     C_R   0.467300 0.021089 0.970757 0.017211
C126  C     C_R   0.433154 0.970710 0.020971 0.015444
C127  C     C_R   0.514231 0.973956 0.474500 0.025817
C128  C     C_R   0.512520 0.027019 0.524060 0.022098
C129  C     C_R   0.190979 0.520042 0.554258 0.207252
C130  C     C_R   0.866934 0.477613 0.443235 0.217967
C131  C     C_R   0.040435 0.478108 0.065321 0.205991
C132  C     C_R   0.929872 0.522706 0.937894 0.215297
C133  C     C_R   0.689880 0.979759 0.945497 0.207273
C134  C     C_R   0.370354 0.022374 0.056864 0.217973
C135  C     C_R   0.535124 0.022417 0.434261 0.206321
C136  C     C_R   0.427021 0.977951 0.561739 0.217989
C137  C     C_R   0.235718 0.490637 0.575721 0.259630
C138  C     C_R   0.889053 0.502699 0.417371 0.281017
C139  C     C_R   0.989305 0.504407 0.088658 0.243160
C140  C     C_R   0.926371 0.495814 0.913258 0.282779
C141  C     C_R   0.734578 0.009132 0.924000 0.259766
C142  C     C_R   0.392233 0.997226 0.082688 0.281082
C143  C     C_R   0.484930 0.995949 0.410989 0.243284
C144  C     C_R   0.421625 0.004884 0.586269 0.281660
O29   O     O_2   0.328100 0.423424 0.610806 -0.482036
O30   O     O_2   0.999659 0.557491 0.370394 -0.518503
O31   O     O_2   0.848599 0.560964 0.130203 -0.523919
O32   O     O_2   0.881004 0.436089 0.868186 -0.520385
O33   O     O_2   0.827566 0.076272 0.888860 -0.482884
O34   O     O_2   0.501819 0.942273 0.129582 -0.518758
O35   O     O_2   0.346193 0.939058 0.369573 -0.524080
O36   O     O_2   0.379833 0.064368 0.631582 -0.523831
C145  C     C_R   0.993940 0.580447 0.514655 -0.212177
C146  C     C_R   0.738124 0.439215 0.504663 -0.268994
C147  C     C_R   0.041068 0.422203 0.012506 -0.172592
C148  C     C_R   0.067178 0.576008 0.987361 -0.198258
C149  C     C_R   0.492836 0.919513 0.985252 -0.212342
C150  C     C_R   0.241030 0.061009 0.995597 -0.268493
C151  C     C_R   0.535482 0.078473 0.487067 -0.173030
C152  C     C_R   0.567188 0.924811 0.512419 -0.199819
H1    H     H_    0.020706 0.590830 0.538074 0.156135
H2    H     H_    0.639575 0.434132 0.486060 0.154510
H3    H     H_    0.015914 0.409862 0.035192 0.186107
H4    H     H_    0.105601 0.584599 0.963968 0.170139
H5    H     H_    0.518625 0.909134 0.961804 0.156217
H6    H     H_    0.143229 0.066172 0.014292 0.154523
H7    H     H_    0.510109 0.090803 0.464386 0.186382
H8    H     H_    0.606254 0.916417 0.535859 0.170920
N9    N     N_2   0.965685 0.733523 0.358171 -0.491906
H9    H     H_    0.935302 0.750543 0.339222 0.240876
C153  C     C_3   0.905544 0.749230 0.387999 -0.463756
H10   H     H_    0.836886 0.776660 0.384025 0.176705
H11   H     H_    0.027046 0.753859 0.403396 0.229578
H12   H     H_    0.805817 0.730580 0.400276 0.192917
N10   N     N_2   0.908937 0.275548 0.647542 -0.543244
H13   H     H_    0.809279 0.271431 0.664535 0.276118
C154  C     C_3   0.021781 0.242895 0.642122 -0.479912
H14   H     H_    0.109119 0.236962 0.663025 0.210253
H15   H     H_    0.108486 0.246969 0.620840 0.236173
H16   H     H_    0.930930 0.218314 0.638126 0.181893
N11   N     N_2   0.957152 0.268909 0.854784 -0.509949
H17   H     H_    0.962358 0.252092 0.835140 0.254656
C155  C     C_3   0.022551 0.249977 0.882981 -0.498013
H18   H     H_    0.040600 0.219579 0.878292 0.200223
H19   H     H_    0.919760 0.252808 0.902167 0.209755
H20   H     H_    0.156841 0.261635 0.891055 0.212557
N12   N     N_2   0.812572 0.730240 0.143911 -0.485821
H21   H     H_    0.752837 0.741906 0.163532 0.285572
C156  C     C_3   0.957937 0.754215 0.132275 -0.531245
H22   H     H_    0.074950 0.754682 0.149243 0.195377
H23   H     H_    0.904846 0.783074 0.129853 0.224222
H24   H     H_    0.005799 0.744616 0.108818 0.206463
N13   N     N_2   0.464874 0.766374 0.141821 -0.491985
H25   H     H_    0.434303 0.749383 0.160780 0.240730
C157  C     C_3   0.404463 0.750674 0.112001 -0.463552
H26   H     H_    0.335302 0.723293 0.115991 0.176885
H27   H     H_    0.525890 0.745949 0.096617 0.229563
H28   H     H_    0.305093 0.769377 0.099701 0.192847
N14   N     N_2   0.410417 0.224549 0.852568 -0.543166
H29   H     H_    0.310588 0.228710 0.835606 0.276137
C158  C     C_3   0.523692 0.257162 0.857936 -0.480527
H30   H     H_    0.610719 0.263057 0.836991 0.210053
H31   H     H_    0.610689 0.253062 0.879184 0.236271
H32   H     H_    0.433178 0.281778 0.861964 0.182129
N15   N     N_2   0.456128 0.231422 0.645357 -0.509743
H33   H     H_    0.461756 0.248143 0.665055 0.254933
C159  C     C_3   0.520803 0.250514 0.617190 -0.498094
H34   H     H_    0.538732 0.280897 0.621971 0.200303
H35   H     H_    0.417656 0.247738 0.598050 0.209606
H36   H     H_    0.654991 0.238940 0.609000 0.212433
N16   N     N_2   0.313186 0.769832 0.356166 -0.485912
H37   H     H_    0.253926 0.758049 0.336546 0.285492
C160  C     C_3   0.458710 0.746001 0.367944 -0.532343
H38   H     H_    0.575597 0.745408 0.350960 0.195560
H39   H     H_    0.405732 0.717155 0.370573 0.224621
H40   H     H_    0.506748 0.755829 0.391329 0.206538
N17   N     N_2   0.095766 0.678999 0.403296 -0.491136
H41   H     H_    0.038503 0.688154 0.424056 0.297283
C161  C     C_3   0.264736 0.657757 0.406338 -0.554321
H42   H     H_    0.358772 0.672024 0.423166 0.213648
H43   H     H_    0.335367 0.656366 0.383268 0.197168
H44   H     H_    0.236487 0.629077 0.415145 0.198145
N18   N     N_2   0.968045 0.320637 0.592897 -0.474777
H45   H     H_    0.887620 0.296828 0.592144 0.288125
C162  C     C_3   0.125826 0.318628 0.571977 -0.562852
H46   H     H_    0.081018 0.308149 0.548566 0.181671
H47   H     H_    0.231071 0.299192 0.581693 0.194956
H48   H     H_    0.189033 0.346681 0.568627 0.225751
N19   N     N_2   0.855380 0.322788 0.900510 -0.503013
H49   H     H_    0.910251 0.322794 0.922865 0.275740
C163  C     C_3   0.674807 0.339993 0.898796 -0.534691
H50   H     H_    0.579706 0.325669 0.915445 0.220763
H51   H     H_    0.617062 0.337414 0.874637 0.200994
H52   H     H_    0.683691 0.369982 0.905423 0.199765
N20   N     N_2   0.786763 0.677861 0.092705 -0.467691
H53   H     H_    0.779105 0.706089 0.088030 0.283660
C164  C     C_3   0.613305 0.658907 0.086955 -0.539287
H54   H     H_    0.558681 0.667229 0.063504 0.201974
H55   H     H_    0.510718 0.666742 0.105246 0.199148
H56   H     H_    0.632565 0.628080 0.087005 0.204920
N21   N     N_2   0.595578 0.820822 0.096656 -0.491107
H57   H     H_    0.537969 0.811673 0.075917 0.297023
C165  C     C_3   0.764544 0.842068 0.093527 -0.553440
H58   H     H_    0.858644 0.827683 0.076791 0.213738
H59   H     H_    0.835097 0.843669 0.116598 0.196874
H60   H     H_    0.736322 0.870673 0.084553 0.197924
N22   N     N_2   0.471048 0.179452 0.907186 -0.474984
H61   H     H_    0.391218 0.203332 0.908025 0.288222
C166  C     C_3   0.629773 0.181333 0.927916 -0.562201
H62   H     H_    0.586250 0.191885 0.951369 0.181533
H63   H     H_    0.735117 0.200651 0.918055 0.195216
H64   H     H_    0.692375 0.153220 0.931215 0.226123
N23   N     N_2   0.353274 0.177787 0.599508 -0.502919
H65   H     H_    0.407615 0.178004 0.577118 0.276102
C167  C     C_3   0.172861 0.160501 0.601239 -0.536041
H66   H     H_    0.077181 0.174961 0.584769 0.220486
H67   H     H_    0.115805 0.162813 0.625463 0.201061
H68   H     H_    0.181722 0.130587 0.594387 0.199316
N24   N     N_2   0.286228 0.822364 0.407252 -0.467413
H69   H     H_    0.278625 0.794145 0.411972 0.283603
C168  C     C_3   0.112592 0.841286 0.412890 -0.538184
H70   H     H_    0.057498 0.832952 0.436305 0.202090
H71   H     H_    0.010394 0.833443 0.394529 0.198635
H72   H     H_    0.131773 0.872115 0.412856 0.204884
N25   N     N_2   0.936079 0.645047 0.498606 -0.474318
H73   H     H_    0.872705 0.650419 0.519910 0.245586
C169  C     C_3   0.113246 0.663617 0.496178 -0.511169
H74   H     H_    0.094516 0.694199 0.499582 0.195747
H75   H     H_    0.174808 0.658929 0.472576 0.210132
H76   H     H_    0.209444 0.652878 0.514532 0.180478
N26   N     N_2   0.594484 0.388071 0.533861 -0.459171
H77   H     H_    0.467733 0.395714 0.524701 0.244530
C170  C     C_3   0.656538 0.352458 0.521617 -0.509197
H78   H     H_    0.548377 0.330936 0.525805 0.194809
H79   H     H_    0.785158 0.343373 0.533696 0.225370
H80   H     H_    0.682580 0.354625 0.495853 0.163375
N27   N     N_2   0.079649 0.358028 0.996124 -0.517673
H81   H     H_    0.022020 0.339581 0.980268 0.276280
C171  C     C_3   0.253005 0.345887 0.009741 -0.490347
H82   H     H_    0.242717 0.315936 0.016578 0.184813
H83   H     H_    0.285291 0.362454 0.031199 0.192963
H84   H     H_    0.366948 0.349160 0.992383 0.219651
N28   N     N_2   0.130338 0.639756 0.002066 -0.516539
H85   H     H_    0.237509 0.652006 0.014273 0.289154
C172  C     C_3   0.975484 0.664032 0.995105 -0.491858
H86   H     H_    0.890833 0.668773 0.016581 0.226345
H87   H     H_    0.887287 0.651409 0.976489 0.182202
H88   H     H_    0.027310 0.691428 0.986405 0.190129
N29   N     N_2   0.434273 0.854937 0.001290 -0.474187
H89   H     H_    0.370641 0.849632 0.979992 0.245505
C173  C     C_3   0.611051 0.836221 0.003687 -0.510805
H90   H     H_    0.591656 0.805661 0.000241 0.195635
H91   H     H_    0.672794 0.840811 0.027294 0.210073
H92   H     H_    0.707417 0.846919 0.985343 0.180437
N30   N     N_2   0.098156 0.112408 0.966620 -0.459926
H93   H     H_    0.971511 0.104933 0.975919 0.244485
C174  C     C_3   0.162017 0.147916 0.978823 -0.509126
H94   H     H_    0.054481 0.169596 0.974777 0.194850
H95   H     H_    0.290468 0.156834 0.966606 0.225361
H96   H     H_    0.189039 0.145679 0.004555 0.163436
N31   N     N_2   0.573828 0.142674 0.503463 -0.517631
H97   H     H_    0.516641 0.161094 0.519381 0.276387
C175  C     C_3   0.746777 0.154861 0.489725 -0.490594
H98   H     H_    0.736223 0.184817 0.482918 0.184893
H99   H     H_    0.778525 0.138324 0.468232 0.192839
H100  H     H_    0.861201 0.151592 0.506997 0.219779
N32   N     N_2   0.633772 0.861177 0.497819 -0.516586
H101  H     H_    0.740481 0.849050 0.485422 0.289156
C176  C     C_3   0.480733 0.836647 0.505315 -0.492349
H102  H     H_    0.394197 0.831632 0.484096 0.226148
H103  H     H_    0.393867 0.849208 0.524138 0.182636
H104  H     H_    0.534637 0.809399 0.513968 0.190181
N33   N     N_2   0.266449 0.369340 0.707560 -0.528485
H105  H     H_    0.240119 0.354705 0.727851 0.262512
C177  C     C_3   0.462627 0.371573 0.700967 -0.512817
H106  H     H_    0.517967 0.343378 0.695126 0.204115
H107  H     H_    0.536406 0.382319 0.722056 0.184427
H108  H     H_    0.489934 0.390952 0.680983 0.218159
N34   N     N_2   0.832639 0.623723 0.291566 -0.523238
H109  H     H_    0.814067 0.640113 0.271856 0.253134
C178  C     C_3   0.971254 0.594481 0.288149 -0.549249
H110  H     H_    0.085924 0.604253 0.272875 0.203443
H111  H     H_    0.905742 0.569160 0.278000 0.199250
H112  H     H_    0.034105 0.586087 0.311006 0.236245
N35   N     N_2   0.018696 0.625339 0.210231 -0.523079
H113  H     H_    0.026534 0.642292 0.229767 0.252173
C179  C     C_3   0.898008 0.593018 0.213836 -0.553196
H114  H     H_    0.778051 0.600120 0.228957 0.203448
H115  H     H_    0.977510 0.569541 0.224279 0.197623
H116  H     H_    0.841352 0.582968 0.191013 0.240331
N36   N     N_2   0.227773 0.372879 0.792434 -0.518144
H117  H     H_    0.308634 0.355587 0.778858 0.266810
C180  C     C_3   0.087039 0.393237 0.775144 -0.569903
H118  H     H_    0.988833 0.373346 0.763938 0.188097
H119  H     H_    0.153333 0.410761 0.756725 0.221726
H120  H     H_    0.008595 0.412276 0.790961 0.220580
N37   N     N_2   0.763004 0.130452 0.792124 -0.528340
H121  H     H_    0.736007 0.145165 0.771893 0.262072
C181  C     C_3   0.959472 0.127934 0.798389 -0.514572
H122  H     H_    0.016198 0.156045 0.804146 0.204575
H123  H     H_    0.031589 0.117095 0.777173 0.184670
H124  H     H_    0.987249 0.108506 0.818319 0.217716
N38   N     N_2   0.332888 0.876267 0.208361 -0.523277
H125  H     H_    0.314139 0.859888 0.228071 0.253134
C182  C     C_3   0.471634 0.905495 0.211789 -0.549010
H126  H     H_    0.586081 0.895738 0.227120 0.203459
H127  H     H_    0.406159 0.930845 0.221879 0.199132
H128  H     H_    0.534793 0.913830 0.188944 0.236375
N39   N     N_2   0.518019 0.874717 0.289700 -0.523142
H129  H     H_    0.526044 0.857733 0.270187 0.252097
C183  C     C_3   0.396891 0.906958 0.286062 -0.552775
H130  H     H_    0.277200 0.899789 0.270894 0.203360
H131  H     H_    0.476159 0.930495 0.275658 0.197536
H132  H     H_    0.339812 0.916956 0.308866 0.240402
N40   N     N_2   0.727302 0.127072 0.707204 -0.518187
H133  H     H_    0.807769 0.144312 0.720907 0.266941
C184  C     C_3   0.586636 0.106522 0.724354 -0.571728
H134  H     H_    0.487857 0.126282 0.735562 0.188888
H135  H     H_    0.652935 0.088974 0.742757 0.221673
H136  H     H_    0.508754 0.087494 0.708439 0.218644
N41   N     N_2   0.122202 0.424050 0.665215 -0.479519
H137  H     H_    0.218803 0.431451 0.681937 0.286778
C185  C     C_3   0.944324 0.441268 0.671046 -0.587335
H138  H     H_    0.963224 0.471680 0.675373 0.187847
H139  H     H_    0.878360 0.428452 0.692136 0.195814
H140  H     H_    0.851681 0.437917 0.650355 0.224849
N42   N     N_2   0.691025 0.588633 0.347154 -0.474318
H141  H     H_    0.681526 0.576186 0.325339 0.292406
C186  C     C_3   0.512209 0.591243 0.362113 -0.570916
H142  H     H_    0.443097 0.563505 0.361615 0.212537
H143  H     H_    0.423873 0.611318 0.348947 0.198157
H144  H     H_    0.526994 0.599867 0.387111 0.212107
N43   N     N_2   0.180721 0.593247 0.155011 -0.485436
H145  H     H_    0.197160 0.581414 0.176978 0.292315
C187  C     C_3   0.357127 0.599510 0.139798 -0.572822
H146  H     H_    0.444540 0.574096 0.142133 0.218589
H147  H     H_    0.430237 0.623374 0.151080 0.201690
H148  H     H_    0.338047 0.605219 0.114315 0.209967
N44   N     N_2   0.252219 0.415668 0.847880 -0.499102
H149  H     H_    0.258574 0.428969 0.826351 0.290780
C188  C     C_3   0.426620 0.416975 0.864477 -0.517452
H150  H     H_    0.477982 0.446273 0.865025 0.219163
H151  H     H_    0.530312 0.399278 0.852203 0.215707
H152  H     H_    0.409825 0.407288 0.889174 0.208323
N45   N     N_2   0.619362 0.075898 0.834673 -0.479679
H153  H     H_    0.715027 0.068390 0.817837 0.286614
C189  C     C_3   0.440710 0.058895 0.829043 -0.586705
H154  H     H_    0.458482 0.028463 0.824684 0.187557
H155  H     H_    0.374262 0.071801 0.808035 0.195687
H156  H     H_    0.349043 0.062344 0.849843 0.225357
N46   N     N_2   0.191760 0.911351 0.152724 -0.474805
H157  H     H_    0.182178 0.923812 0.174531 0.292319
C190  C     C_3   0.013047 0.908784 0.137707 -0.570337
H158  H     H_    0.944313 0.936556 0.138127 0.212722
H159  H     H_    0.924322 0.888780 0.150878 0.198184
H160  H     H_    0.027907 0.900079 0.112731 0.212074
N47   N     N_2   0.679575 0.907031 0.344890 -0.485816
H161  H     H_    0.695862 0.918833 0.322908 0.292314
C191  C     C_3   0.856053 0.900943 0.360136 -0.572146
H162  H     H_    0.942826 0.926459 0.357837 0.218947
H163  H     H_    0.929803 0.877171 0.348851 0.201709
H164  H     H_    0.837023 0.895181 0.385611 0.209809
N48   N     N_2   0.750507 0.084541 0.651566 -0.492602
H165  H     H_    0.757175 0.071126 0.673041 0.290683
C192  C     C_3   0.924413 0.083172 0.634833 -0.515722
H166  H     H_    0.975009 0.053828 0.634111 0.217011
H167  H     H_    0.028880 0.100681 0.647118 0.214610
H168  H     H_    0.907224 0.093042 0.610193 0.207430
N49   N     N_2   0.385164 0.495157 0.597361 -0.467639
H169  H     H_    0.500672 0.509008 0.589175 0.255629
C193  C     C_3   0.335497 0.503699 0.629687 -0.459669
H170  H     H_    0.371852 0.533113 0.635338 0.151604
H171  H     H_    0.413982 0.485061 0.645809 0.220793
H172  H     H_    0.185196 0.499657 0.634074 0.191670
N50   N     N_2   0.888857 0.488559 0.385939 -0.469176
H173  H     H_    0.952433 0.463029 0.382601 0.272273
C194  C     C_3   0.719007 0.493470 0.368233 -0.459258
H174  H     H_    0.655223 0.465839 0.363196 0.158948
H175  H     H_    0.750735 0.507291 0.345435 0.225704
H176  H     H_    0.616844 0.510795 0.381266 0.187485
N51   N     N_2   0.975901 0.493037 0.120817 -0.478376
H177  H     H_    0.903238 0.468688 0.124994 0.238025
C195  C     C_3   0.141735 0.497325 0.139651 -0.451184
H178  H     H_    0.102834 0.507021 0.163585 0.209328
H179  H     H_    0.238100 0.518151 0.129158 0.203687
H180  H     H_    0.214355 0.470043 0.141780 0.161202
N52   N     N_2   0.867123 0.506499 0.882433 -0.468511
H181  H     H_    0.759489 0.525342 0.881336 0.272941
C196  C     C_3   0.013845 0.513680 0.859930 -0.472826
H182  H     H_    0.954035 0.515662 0.835886 0.192279
H183  H     H_    0.117456 0.490735 0.860097 0.222539
H184  H     H_    0.085303 0.540321 0.865315 0.161343
N53   N     N_2   0.882957 0.004460 0.902181 -0.467716
H185  H     H_    0.998417 0.990479 0.910222 0.255590
C197  C     C_3   0.831651 0.995997 0.869911 -0.460133
H186  H     H_    0.866966 0.966552 0.864198 0.151628
H187  H     H_    0.909929 0.014568 0.853705 0.220738
H188  H     H_    0.681272 0.000195 0.865709 0.191717
N54   N     N_2   0.392981 0.011318 0.114136 -0.469224
H189  H     H_    0.457321 0.036773 0.117479 0.272255
C198  C     C_3   0.223363 0.006537 0.131926 -0.459242
H190  H     H_    0.160195 0.034215 0.136981 0.158804
H191  H     H_    0.255241 0.992708 0.154715 0.225530
H192  H     H_    0.120639 0.989272 0.118952 0.187704
N55   N     N_2   0.470740 0.007196 0.378808 -0.478275
H193  H     H_    0.397063 0.031405 0.374590 0.238001
C199  C     C_3   0.636521 0.003119 0.359939 -0.451648
H194  H     H_    0.597651 0.993438 0.335995 0.209033
H195  H     H_    0.733417 0.982361 0.370380 0.203846
H196  H     H_    0.708495 0.030479 0.357840 0.161285
N56   N     N_2   0.362980 0.993942 0.617058 -0.471935
H197  H     H_    0.251506 0.976039 0.618511 0.271134
C200  C     C_3   0.507873 0.987441 0.640101 -0.463434
H198  H     H_    0.470912 0.001637 0.662476 0.220214
H199  H     H_    0.643720 0.998476 0.631977 0.192669
H200  H     H_    0.521581 0.957048 0.645011 0.154977
N57   N     N_2   0.305914 0.552403 0.552298 -0.515818
H201  H     H_    0.437141 0.547441 0.543744 0.257270
C201  C     C_3   0.298665 0.578502 0.578389 -0.571662
H202  H     H_    0.292024 0.607477 0.568973 0.197023
H203  H     H_    0.425887 0.576141 0.592900 0.189232
H204  H     H_    0.175061 0.573661 0.593467 0.199297
N58   N     N_2   0.858155 0.438333 0.437152 -0.530583
H205  H     H_    0.923895 0.420731 0.452844 0.263038
C202  C     C_3   0.689513 0.423865 0.423243 -0.558811
H206  H     H_    0.630698 0.401432 0.438380 0.180019
H207  H     H_    0.721654 0.411490 0.399914 0.205756
H208  H     H_    0.583215 0.446103 0.420299 0.205953
N59   N     N_2   0.133295 0.444780 0.075015 -0.541073
H209  H     H_    0.090846 0.432928 0.095930 0.258920
C203  C     C_3   0.332473 0.445996 0.071679 -0.547728
H210  H     H_    0.391879 0.418354 0.078116 0.188412
H211  H     H_    0.391915 0.467707 0.087441 0.199639
H212  H     H_    0.371689 0.452266 0.046908 0.213559
N60   N     N_2   0.835459 0.557504 0.933059 -0.529071
H213  H     H_    0.762850 0.568036 0.952000 0.266262
C204  C     C_3   0.920622 0.585381 0.912794 -0.571644
H214  H     H_    0.917182 0.613218 0.924425 0.188801
H215  H     H_    0.841975 0.587717 0.890436 0.207007
H216  H     H_    0.067441 0.578495 0.907765 0.196852
N61   N     N_2   0.804029 0.947281 0.947316 -0.515860
H217  H     H_    0.935700 0.952103 0.955739 0.257206
C205  C     C_3   0.795131 0.921214 0.921216 -0.571910
H218  H     H_    0.788137 0.892237 0.930618 0.197038
H219  H     H_    0.921848 0.923469 0.906571 0.189219
H220  H     H_    0.671067 0.926185 0.906273 0.199354
N62   N     N_2   0.363005 0.061656 0.062994 -0.530581
H221  H     H_    0.428949 0.079199 0.047279 0.263030
C206  C     C_3   0.195205 0.076320 0.077035 -0.559103
H222  H     H_    0.136833 0.098872 0.061975 0.180051
H223  H     H_    0.228326 0.088593 0.100365 0.205747
H224  H     H_    0.088195 0.054220 0.080005 0.205959
N63   N     N_2   0.626201 0.055907 0.424468 -0.541126
H225  H     H_    0.582772 0.067630 0.403559 0.258898
C207  C     C_3   0.825497 0.055092 0.427694 -0.548475
H226  H     H_    0.883488 0.082836 0.421181 0.188448
H227  H     H_    0.885621 0.033462 0.411936 0.199597
H228  H     H_    0.865518 0.048956 0.452453 0.213616
N64   N     N_2   0.338119 0.942645 0.566917 -0.528816
H229  H     H_    0.266839 0.931137 0.548233 0.265716
C208  C     C_3   0.424665 0.916105 0.588245 -0.569366
H230  H     H_    0.439200 0.888456 0.576557 0.187483
H231  H     H_    0.335867 0.912144 0.609304 0.204871
H232  H     H_    0.564477 0.925619 0.595618 0.204605

loop_
_geom_bond_atom_site_label_1
_geom_bond_atom_site_label_2
_ccdc_geom_bond_type
C25   N42   S    
C183  H132  S    
C41   N9    S    
C189  H154  S    
C150  H6    S    
N45   H153  S    
C155  H18   S    
C10   O22   S    
C20   C92   A    
C174  H94   S    
C155  H20   S    
C21   C93   A    
O15   V4    S    
C168  H70   S    
O16   V3    S    
C19   C91   A    
C130  C138  A    
C45   N13   S    
C15   O27   S    
C185  H139  S    
C184  H135  S    
C168  H72   S    
C147  H3    S    
C163  H50   S    
C145  H1    S    
C66   C90   A    
C194  H174  S    
C207  H228  S    
C198  H191  S    
C113  C146  A    
N20   H53   S    
C129  N57   S    
C201  H203  S    
N22   C166  S    
C11   C75   A    
C148  H4    S    
C154  H15   S    
N51   C195  S    
N43   C187  S    
C68   C92   A    
N15   H33   S    
N56   C200  S    
C88   N32   S    
C85   N29   S    
C82   C146  A    
N33   C177  S    
O13   V3    S    
N58   C202  S    
C178  H112  S    
C75   C83   A    
C69   C93   A    
C195  H178  S    
N16   H37   S    
C116  C147  A    
C180  H120  S    
C53   C61   A    
C72   C80   A    
C196  H182  S    
C6    C99   S    
C113  C121  A    
N10   H13   S    
C156  H22   S    
C90   C137  A    
C27   N44   S    
C197  H187  S    
C106  C122  A    
O10   V2    S    
N12   H21   S    
C190  H160  S    
O12   C4    A    
C80   C88   A    
O13   C5    A    
C199  H195  S    
C119  C152  A    
N52   C196  S    
C32   N47   S    
C196  H183  S    
N63   C207  S    
C11   N3    A    
N39   H129  S    
C194  H176  S    
C12   O24   S    
C117  C125  A    
N38   H125  S    
C174  H96   S    
C135  C143  A    
C159  H36   S    
C136  C144  A    
O1    C4    A    
C81   N25   S    
O2    C3    A    
C161  H43   S    
C42   C50   A    
C54   N22   S    
C29   C61   A    
O7    C6    A    
C43   C51   A    
C89   C138  A    
C115  C123  A    
C180  H119  S    
N53   H185  S    
C42   C98   A    
N35   H113  S    
C34   C98   A    
N59   H209  S    
C33   C97   A    
O10   C2    A    
C111  C127  A    
C96   C143  A    
C82   N26   S    
C119  C127  A    
C179  H116  S    
C120  C128  A    
C192  H166  S    
C37   C101  A    
N48   C192  S    
C69   C126  A    
N1    C57   S    
C42   N10   S    
C43   N11   S    
C13   C77   A    
C176  H104  S    
C54   C62   A    
C49   C57   A    
N34   H109  S    
N50   C194  S    
N57   C201  S    
C186  H142  S    
C28   N43   S    
C182  H127  S    
O17   V3    S    
C140  N52   S    
C171  H83   S    
O18   V4    S    
C176  H102  S    
C110  C117  A    
O12   V1    S    
O19   V1    S    
C29   C37   A    
N44   H149  S    
C166  H64   S    
C31   C39   A    
N41   H137  S    
C167  H67   S    
N51   H177  S    
C189  H155  S    
C208  H230  S    
C105  C121  A    
C1    C104  S    
O8    V1    S    
C65   C73   A    
C2    C103  S    
C156  H24   S    
C191  H163  S    
C160  H38   S    
C205  H220  S    
C130  N58   S    
C170  H79   S    
N46   C190  S    
C23   O36   S    
C110  C126  A    
O1    V3    S    
N1    C17   A    
O2    V4    S    
C117  C150  A    
C66   C121  A    
C172  H87   S    
C115  C148  A    
N4    C20   A    
N5    C21   A    
C39   C103  A    
C187  H146  S    
C40   C104  A    
N54   H189  S    
N7    C23   A    
C187  H147  S    
C134  N62   S    
C108  C115  A    
N55   H193  S    
C11   O23   S    
N13   H25   S    
C12   N4    A    
C193  H172  S    
C13   N5    A    
C86   C150  A    
C203  H212  S    
C164  H54   S    
C165  H60   S    
N29   C173  S    
C131  C139  A    
C172  H86   S    
C72   C96   A    
C129  C137  A    
C55   C63   A    
C198  H190  S    
C120  C151  A    
N31   C175  S    
N2    C58   S    
C108  C124  A    
C109  C125  A    
C45   C101  A    
C181  H124  S    
N49   C193  S    
C154  H14   S    
C72   C127  A    
N4    C60   S    
N30   H93   S    
N28   C172  S    
C56   N24   S    
C192  H168  S    
C28   C60   A    
N23   H65   S    
C50   N18   S    
C162  H47   S    
N46   H157  S    
C84   C148  A    
C133  N61   S    
C206  H222  S    
N14   C158  S    
C186  H144  S    
N61   C205  S    
C142  N54   S    
C105  C114  A    
C84   N28   S    
C177  H107  S    
C188  H152  S    
N26   C170  S    
O14   C6    A    
C157  H28   S    
C70   C94   A    
C27   C35   A    
C176  H103  S    
N60   H213  S    
C12   C76   A    
N17   H41   S    
N30   C174  S    
C183  H131  S    
C31   C63   A    
N9    C153  S    
C26   N41   S    
C3    C102  S    
C158  H32   S    
C110  C134  A    
C4    C101  S    
C114  C122  A    
C87   C151  A    
C160  H40   S    
C91   C140  A    
C155  H19   S    
C8    C97   S    
N21   C165  S    
C9    C73   A    
C169  H76   S    
C26   C58   A    
C175  H99   S    
C32   C40   A    
C107  C123  A    
C184  H134  S    
C15   C79   A    
C34   N33   S    
N42   C186  S    
C173  H92   S    
C14   O26   S    
C193  H170  S    
C153  H12   S    
C73   C81   A    
C152  H8    S    
N49   H169  S    
C164  H56   S    
N64   H229  S    
C44   C52   A    
C51   C59   A    
N19   H49   S    
C44   N12   S    
C77   C85   A    
N47   H161  S    
C203  H210  S    
C79   C87   A    
C163  H52   S    
C48   C56   A    
N43   H145  S    
C194  H175  S    
C7    C98   S    
C149  H5    S    
N14   H29   S    
N26   H77   S    
C83   C147  A    
C131  N59   S    
C43   C99   A    
N33   H105  S    
C32   C64   A    
C69   C77   A    
C181  H122  S    
C154  H16   S    
C41   C97   A    
C178  H111  S    
O11   C3    A    
C188  H150  S    
C30   C38   A    
N44   C188  S    
C202  H207  S    
C208  H232  S    
C38   C102  A    
C204  H214  S    
C70   C125  A    
C83   N27   S    
C9    N1    A    
N36   H117  S    
C146  H2    S    
C206  H224  S    
N27   C171  S    
C87   N31   S    
C174  H95   S    
C114  C145  A    
C15   N7    A    
C185  H138  S    
O11   V2    S    
N5    C61   S    
C16   N8    A    
C195  H180  S    
C157  H26   S    
C27   C59   A    
C41   C49   A    
C132  C140  A    
C159  H35   S    
C35   N36   S    
C133  C141  A    
N50   H173  S    
O7    V2    S    
N63   H225  S    
C18   O29   S    
N45   C189  S    
C134  C142  A    
C81   C145  A    
C112  C128  A    
C22   O33   S    
N47   C191  S    
C68   C123  A    
C105  C129  A    
C111  C135  A    
C169  H74   S    
N2    C18   A    
C185  H140  S    
N8    C64   S    
N9    H9    S    
C151  H7    S    
C184  H136  S    
C158  H31   S    
N32   H101  S    
N19   C163  S    
C29   N46   S    
C173  H91   S    
N28   H85   S    
C39   N40   S    
C173  H90   S    
C88   C152  A    
C153  H10   S    
C14   N6    A    
C205  H218  S    
C201  H204  S    
C46   N14   S    
C179  H115  S    
C52   N20   S    
C107  C116  A    
C17   O30   S    
C168  H71   S    
C137  N49   S    
C48   N16   S    
O4    C1    A    
C16   C80   A    
C136  N64   S    
C20   O31   S    
N15   C159  S    
C21   O34   S    
C28   C36   A    
C167  H66   S    
C24   O35   S    
C118  C126  A    
C204  H215  S    
C182  H126  S    
N62   C206  S    
N53   C197  S    
C76   C84   A    
N6    C62   S    
O14   V4    S    
C36   N35   S    
N60   C204  S    
C204  H216  S    
N40   H133  S    
C30   C62   A    
N6    C22   A    
C37   N38   S    
C86   N30   S    
N11   C155  S    
C9    O21   S    
C68   C76   A    
N35   C179  S    
C156  H23   S    
C197  H188  S    
C205  H219  S    
C71   C95   A    
C170  H78   S    
C106  C113  A    
C18   C90   A    
C74   C82   A    
O20   V2    S    
C199  H196  S    
O3    V4    S    
O4    V3    S    
C181  H123  S    
C25   C57   A    
C171  H82   S    
C14   C78   A    
C208  H231  S    
N25   H73   S    
C200  H200  S    
N13   C157  S    
N39   C183  S    
C112  C119  A    
C166  H63   S    
C35   C99   A    
C71   C128  A    
C5    C100  S    
C40   N39   S    
C201  H202  S    
C193  H171  S    
C26   C34   A    
C175  H98   S    
C203  H211  S    
C144  N56   S    
N64   C208  S    
N29   H89   S    
C179  H114  S    
C191  H162  S    
C161  H44   S    
C53   N21   S    
C183  H130  S    
C200  H199  S    
N31   H97   S    
C132  N60   S    
C202  H206  S    
C207  H226  S    
C66   C74   A    
C55   N23   S    
C17   C89   A    
N20   C164  S    
C158  H30   S    
N10   C154  S    
C141  N53   S    
N16   C160  S    
N62   H221  S    
C106  C130  A    
N7    C63   S    
C118  C149  A    
C25   C33   A    
O3    C2    A    
N57   H201  S    
C192  H167  S    
C16   O28   S    
C46   C54   A    
C206  H223  S    
C177  H106  S    
C109  C118  A    
C31   N48   S    
N36   C180  S    
N56   H197  S    
C186  H143  S    
N61   H217  S    
O9    V1    S    
N23   C167  S    
C182  H128  S    
C207  H227  S    
C171  H84   S    
C85   C149  A    
C188  H151  S    
C47   N15   S    
C157  H27   S    
C45   C53   A    
C95   C144  A    
N41   C185  S    
C107  C131  A    
C167  H68   S    
O5    V1    S    
C36   C100  A    
N3    C59   S    
C189  H156  S    
C10   N2    A    
N37   C181  S    
C46   C102  A    
C135  N63   S    
C33   N34   S    
C49   N17   S    
C199  H194  S    
C67   C91   A    
C191  H164  S    
N59   C203  S    
C197  H186  S    
C160  H39   S    
N24   H69   S    
C170  H80   S    
C65   C89   A    
N25   C169  S    
N21   H57   S    
C198  H192  S    
C47   C55   A    
N17   C161  S    
C23   C95   A    
C172  H88   S    
C138  N50   S    
C139  N51   S    
N32   C176  S    
N11   H17   S    
N38   C182  S    
N52   H181  S    
N42   H141  S    
N8    C24   A    
O8    C5    A    
C187  H148  S    
C19   O32   S    
N34   C178  S    
C70   C78   A    
N24   C168  S    
C67   C75   A    
N37   H121  S    
C71   C79   A    
O9    C1    A    
C153  H11   S    
C164  H55   S    
N22   H61   S    
N3    C19   A    
C94   C141  A    
C161  H42   S    
C165  H58   S    
C52   C60   A    
C166  H62   S    
C162  H46   S    
C163  H51   S    
C38   N37   S    
C202  H208  S    
O6    V2    S    
C30   N45   S    
C51   N19   S    
C159  H34   S    
N54   C198  S    
C10   C74   A    
C190  H159  S    
C178  H110  S    
C143  N55   S    
N58   H205  S    
C200  H198  S    
C111  C120  A    
C22   C94   A    
C56   C64   A    
C116  C124  A    
C169  H75   S    
N48   H165  S    
N55   C199  S    
N12   C156  S    
N18   C162  S    
C180  H118  S    
N40   C184  S    
O5    C8    A    
N18   H45   S    
O6    C7    A    
O15   C7    A    
C108  C132  A    
C50   C58   A    
C109  C133  A    
N27   H81   S    
C162  H48   S    
C196  H184  S    
C92   C139  A    
C112  C136  A    
C93   C142  A    
C177  H108  S    
C67   C124  A    
C44   C100  A    
O16   C8    A    
C190  H158  S    
C175  H100  S    
C195  H179  S    
C65   C122  A    
C24   C96   A    
C78   C86   A    
C47   C103  A    
C13   O25   S    
C48   C104  A    
C165  H59   S    
