data_mof_unit_56789.cif
_audit_creation_date              2012-12-11T14:38:32-0500
_audit_creation_method            fapswitch 2.2
_symmetry_space_group_name_H-M    P1
_symmetry_Int_Tables_number       1
_space_group_crystal_system       triclinic
_cell_length_a                    19.528909
_cell_length_b                    11.036957
_cell_length_c                    19.703165
_cell_angle_alpha                 89.887816
_cell_angle_beta                  96.281394
_cell_angle_gamma                 89.799592
_cell_volume                      4221.28172292

loop_
_atom_site_label
_atom_site_type_symbol
_atom_type_description
_atom_site_fract_x
_atom_site_fract_y
_atom_site_fract_z
_atom_type_partial_charge
C1    C     C_R   0.708305 0.994815 0.366465 0.552099
C2    C     C_R   0.291700 0.995121 0.633383 0.550192
C3    C     C_R   0.208305 0.494815 0.366465 0.552098
C4    C     C_R   0.791701 0.495121 0.633383 0.550193
C5    C     C_3   0.686436 0.458634 0.457112 -0.238019
C6    C     C_3   0.313488 0.457805 0.542756 -0.237291
C7    C     C_3   0.186436 0.958634 0.457112 -0.238019
C8    C     C_3   0.813488 0.957805 0.542756 -0.237291
C9    C     C_3   0.830000 0.524530 0.518074 -0.240627
C10   C     C_3   0.169841 0.524923 0.481438 -0.239822
C11   C     C_3   0.330000 0.024530 0.518074 -0.240627
C12   C     C_3   0.669841 0.024923 0.481438 -0.239822
C13   C     C_3   0.786872 0.323957 0.551716 -0.235033
C14   C     C_3   0.213442 0.323802 0.448561 -0.235940
C15   C     C_3   0.286872 0.823957 0.551716 -0.235033
C16   C     C_3   0.713442 0.823802 0.448561 -0.235940
C17   C     C_3   0.776943 0.461049 0.560816 0.056393
C18   C     C_3   0.223057 0.460785 0.439041 0.055347
C19   C     C_3   0.276943 0.961049 0.560816 0.056393
C20   C     C_3   0.723057 0.960785 0.439041 0.055346
C21   C     C_3   0.752848 0.408449 0.431486 0.054059
C22   C     C_3   0.247055 0.408558 0.568487 0.056606
C23   C     C_3   0.252848 0.908449 0.431486 0.054059
C24   C     C_3   0.747055 0.908558 0.568487 0.056606
C25   C     C_3   0.809592 0.505599 0.440796 -0.240118
C26   C     C_3   0.190294 0.506416 0.558798 -0.241668
C27   C     C_3   0.309592 0.005600 0.440796 -0.240118
C28   C     C_3   0.690294 0.006416 0.558798 -0.241668
C29   C     C_3   0.779584 0.297582 0.475964 -0.230883
C30   C     C_3   0.220368 0.297845 0.524378 -0.229369
C31   C     C_3   0.279584 0.797582 0.475964 -0.230883
C32   C     C_3   0.720368 0.797845 0.524378 -0.229369
C33   C     C_3   0.495134 0.303411 0.961289 -0.265093
C34   C     C_3   0.522400 0.302435 0.035411 -0.265988
C35   C     C_3   0.995061 0.803412 0.961301 -0.265107
C36   C     C_3   0.022327 0.802446 0.035422 -0.265997
C37   C     C_3   0.429322 0.104893 0.970722 -0.044145
C38   C     C_3   0.568806 0.087011 0.029908 -0.041120
C39   C     C_3   0.929328 0.604826 0.970724 -0.044149
C40   C     C_3   0.068819 0.587075 0.029901 -0.041122
C41   C     C_3   0.558148 0.108911 0.951413 -0.233587
C42   C     C_3   0.441664 0.131705 0.048289 -0.229607
C43   C     C_3   0.058150 0.609000 0.951410 -0.233561
C44   C     C_3   0.941671 0.631605 0.048297 -0.229613
C45   C     C_R   0.535700 0.180285 0.338574 0.535391
C46   C     C_R   0.464255 0.180236 0.661397 0.531098
C47   C     C_R   0.035701 0.680286 0.338574 0.535390
C48   C     C_R   0.964255 0.680236 0.661397 0.531105
C49   C     C_3   0.487416 0.171008 0.933640 0.014726
C50   C     C_3   0.516996 0.172158 0.065352 0.013314
C51   C     C_3   0.987396 0.671014 0.933644 0.014712
C52   C     C_3   0.016985 0.672152 0.065355 0.013300
C53   C     C_1   0.754296 0.408568 0.899096 0.015118
C54   C     C_1   0.240234 0.425215 0.096560 0.016406
C55   C     C_1   0.254292 0.908561 0.899093 0.015104
C56   C     C_1   0.740225 0.925228 0.096554 0.016420
C57   C     C_1   0.731719 0.356715 0.025033 -0.012362
C58   C     C_1   0.254630 0.403182 0.966684 -0.018013
C59   C     C_1   0.231712 0.856707 0.025031 -0.012326
C60   C     C_1   0.754617 0.903202 0.966677 -0.018071
C61   C     C_1   0.740792 0.381632 0.955769 0.007927
C62   C     C_1   0.249418 0.413178 0.037403 -0.000412
C63   C     C_1   0.240785 0.881623 0.955765 0.007935
C64   C     C_1   0.749404 0.913197 0.037396 -0.000443
C65   C     C_1   0.727157 0.336959 0.084883 -0.009578
C66   C     C_1   0.257883 0.389270 0.906431 -0.003151
C67   C     C_1   0.227154 0.836954 0.084882 -0.009558
C68   C     C_1   0.757876 0.889287 0.906426 -0.003177
C69   C     C_R   0.740110 0.364847 0.360489 0.544451
C70   C     C_R   0.259800 0.364927 0.639557 0.533572
C71   C     C_R   0.240110 0.864847 0.360489 0.544452
C72   C     C_R   0.759800 0.864927 0.639557 0.533570
C73   C     C_R   0.722706 0.953523 0.163550 0.538296
C74   C     C_R   0.276642 0.951408 0.835809 0.544429
C75   C     C_R   0.222707 0.453520 0.163552 0.538290
C76   C     C_R   0.776643 0.451409 0.835810 0.544424
C77   C     C_R   0.535985 0.179402 0.139282 0.540616
C78   C     C_R   0.466412 0.178753 0.859857 0.543670
C79   C     C_R   0.035991 0.679401 0.139282 0.540617
C80   C     C_R   0.966400 0.678755 0.859861 0.543689
C81   C     C_R   0.722482 0.310279 0.156070 0.550724
C82   C     C_R   0.264304 0.357160 0.836900 0.543421
C83   C     C_R   0.222482 0.810279 0.156070 0.550725
C84   C     C_R   0.764302 0.857167 0.836898 0.543416
C85   C     C_1   0.485668 0.172946 0.594279 -0.030670
C86   C     C_1   0.514169 0.172906 0.405649 -0.030000
C87   C     C_1   0.985668 0.672946 0.594279 -0.030670
C88   C     C_1   0.014170 0.672906 0.405649 -0.030000
C89   C     C_1   0.504013 0.169980 0.464844 -0.070585
C90   C     C_1   0.495758 0.170003 0.535070 -0.070808
C91   C     C_1   0.004014 0.669980 0.464844 -0.070585
C92   C     C_1   0.995758 0.670003 0.535070 -0.070808
C93   C     C_3   0.699845 0.486106 0.533322 -0.228865
C94   C     C_3   0.300073 0.485452 0.466515 -0.229299
C95   C     C_3   0.199845 0.986106 0.533322 -0.228865
C96   C     C_3   0.800073 0.985452 0.466515 -0.229299
Cr1   Cr    Cr6+3 0.765780 0.160710 0.267420 1.016478
Cr2   Cr    Cr6+3 0.234220 0.160710 0.732580 1.019726
Cr3   Cr    Cr6+3 0.265780 0.660710 0.267420 1.016478
Cr4   Cr    Cr6+3 0.734220 0.660710 0.732580 1.019716
Cr5   Cr    Cr6+3 0.612200 0.009560 0.248850 1.042937
Cr6   Cr    Cr6+3 0.387800 0.009560 0.751150 1.043646
Cr7   Cr    Cr6+3 0.112200 0.509560 0.248850 1.042938
Cr8   Cr    Cr6+3 0.887800 0.509560 0.751150 1.043646
Cr9   Cr    Cr6+3 0.616030 0.323720 0.248510 1.014982
Cr10  Cr    Cr6+3 0.383970 0.323720 0.751490 1.012513
Cr11  Cr    Cr6+3 0.116030 0.823720 0.248510 1.014978
Cr12  Cr    Cr6+3 0.883970 0.823720 0.751490 1.012513
H1    H     H_    0.682419 0.577795 0.543706 0.124157
H2    H     H_    0.317170 0.577125 0.455952 0.124776
H3    H     H_    0.182419 0.077795 0.543706 0.124157
H4    H     H_    0.817170 0.077125 0.455952 0.124776
H5    H     H_    0.831617 0.271451 0.462598 0.135927
H6    H     H_    0.168212 0.272718 0.537618 0.136121
H7    H     H_    0.331617 0.771451 0.462598 0.135927
H8    H     H_    0.668211 0.772718 0.537618 0.136121
H9    H     H_    0.881355 0.481411 0.531594 0.131663
H10   H     H_    0.118595 0.482027 0.468119 0.131790
H11   H     H_    0.381355 0.981411 0.531594 0.131663
H12   H     H_    0.618594 0.982028 0.468119 0.131790
H13   H     H_    0.855716 0.476524 0.416363 0.132812
H14   H     H_    0.144207 0.478190 0.583424 0.130546
H15   H     H_    0.355716 0.976524 0.416363 0.132813
H16   H     H_    0.644207 0.978189 0.583424 0.130545
H17   H     H_    0.444084 0.350218 0.955191 0.150309
H18   H     H_    0.577071 0.332758 0.041391 0.137845
H19   H     H_    0.943992 0.850150 0.955205 0.150283
H20   H     H_    0.076983 0.832854 0.041404 0.137890
H21   H     H_    0.531221 0.357199 0.933128 0.153473
H22   H     H_    0.491814 0.369962 0.061586 0.160919
H23   H     H_    0.031122 0.857262 0.933147 0.153512
H24   H     H_    0.991709 0.869909 0.061607 0.160902
H25   H     H_    0.378313 0.144465 0.951356 0.081463
H26   H     H_    0.622400 0.114836 0.048312 0.063529
H27   H     H_    0.878309 0.644365 0.951368 0.081463
H28   H     H_    0.122405 0.614943 0.048305 0.063497
H29   H     H_    0.406359 0.205914 0.060851 0.096945
H30   H     H_    0.599672 0.169377 0.936726 0.090478
H31   H     H_    0.906336 0.705751 0.060877 0.096955
H32   H     H_    0.099649 0.669524 0.936729 0.090479
H33   H     H_    0.563347 0.025394 0.921201 0.201877
H34   H     H_    0.428835 0.054650 0.080808 0.206043
H35   H     H_    0.063377 0.525507 0.921187 0.201890
H36   H     H_    0.928882 0.554509 0.080803 0.206055
H37   H     H_    0.665825 0.427028 0.560883 0.131802
H38   H     H_    0.334301 0.426311 0.439095 0.132485
H39   H     H_    0.165825 0.927028 0.560883 0.131802
H40   H     H_    0.834301 0.926311 0.439095 0.132485
H41   H     H_    0.644124 0.391070 0.448681 0.138201
H42   H     H_    0.355773 0.389639 0.551322 0.139024
H43   H     H_    0.144124 0.891070 0.448681 0.138201
H44   H     H_    0.855773 0.889639 0.551322 0.139023
H45   H     H_    0.669395 0.542503 0.428566 0.123089
H46   H     H_    0.330559 0.541441 0.571106 0.122273
H47   H     H_    0.169395 0.042502 0.428566 0.123089
H48   H     H_    0.830559 0.041441 0.571106 0.122273
H49   H     H_    0.340459 0.120486 0.530257 0.092127
H50   H     H_    0.659242 0.120866 0.468701 0.091787
H51   H     H_    0.840459 0.620486 0.530257 0.092126
H52   H     H_    0.159242 0.620866 0.468701 0.091788
H53   H     H_    0.291087 0.090871 0.415674 0.111575
H54   H     H_    0.708820 0.091691 0.583426 0.109272
H55   H     H_    0.791087 0.590871 0.415674 0.111575
H56   H     H_    0.208820 0.591691 0.583426 0.109272
H57   H     H_    0.838623 0.291565 0.573980 0.139926
H58   H     H_    0.161890 0.291488 0.426165 0.140459
H59   H     H_    0.338623 0.791565 0.573980 0.139926
H60   H     H_    0.661890 0.791488 0.426165 0.140459
H61   H     H_    0.748074 0.273752 0.577500 0.121249
H62   H     H_    0.252601 0.273330 0.423273 0.122384
H63   H     H_    0.248074 0.773752 0.577500 0.121249
H64   H     H_    0.752601 0.773330 0.423273 0.122385
H65   H     H_    0.744813 0.222091 0.465111 0.118323
H66   H     H_    0.254965 0.221797 0.535812 0.119007
H67   H     H_    0.244813 0.722091 0.465111 0.118323
H68   H     H_    0.754965 0.721797 0.535812 0.119007
O1    O     O_R   0.783100 0.287550 0.345460 -0.533184
O2    O     O_R   0.216900 0.287550 0.654540 -0.537258
O3    O     O_R   0.283100 0.787550 0.345460 -0.533183
O4    O     O_R   0.716900 0.787550 0.654540 -0.537259
O5    O     O_R   0.554710 0.081900 0.170950 -0.459832
O6    O     O_R   0.445290 0.081900 0.829050 -0.457613
O7    O     O_R   0.054710 0.581900 0.170950 -0.459815
O8    O     O_R   0.945290 0.581900 0.829050 -0.457623
O9    O     O_R   0.545650 0.284910 0.163740 -0.536377
O10   O     O_R   0.454350 0.284910 0.836260 -0.530699
O11   O     O_R   0.045650 0.784910 0.163740 -0.536384
O12   O     O_R   0.954350 0.784910 0.836260 -0.530702
O13   O     O_R   0.677950 0.374280 0.185410 -0.490438
O14   O     O_R   0.322050 0.374280 0.814590 -0.500828
O15   O     O_R   0.177950 0.874280 0.185410 -0.490446
O16   O     O_R   0.822050 0.874280 0.814590 -0.500823
O17   O     O_3   0.664670 0.164660 0.254930 -0.301385
O18   O     O_3   0.335330 0.164660 0.745070 -0.276868
O19   O     O_3   0.164670 0.664660 0.254930 -0.301385
O20   O     O_3   0.835330 0.664660 0.745070 -0.276872
O21   O     O_R   0.760020 0.037400 0.337700 -0.508934
O22   O     O_R   0.239980 0.037400 0.662300 -0.510815
O23   O     O_R   0.260020 0.537400 0.337700 -0.508935
O24   O     O_R   0.739980 0.537400 0.662300 -0.510813
O25   O     O_R   0.666600 0.921990 0.332020 -0.522150
O26   O     O_R   0.333400 0.921990 0.667980 -0.526114
O27   O     O_R   0.166600 0.421990 0.332020 -0.522150
O28   O     O_R   0.833400 0.421990 0.667980 -0.526114
O29   O     O_R   0.557260 0.082670 0.312540 -0.507295
O30   O     O_R   0.442740 0.082670 0.687460 -0.511683
O31   O     O_R   0.057260 0.582670 0.312540 -0.507297
O32   O     O_R   0.942740 0.582670 0.687460 -0.511678
O33   O     O_R   0.548410 0.285740 0.316480 -0.508401
O34   O     O_R   0.451590 0.285740 0.683520 -0.509373
O35   O     O_R   0.048410 0.785740 0.316480 -0.508400
O36   O     O_R   0.951590 0.785740 0.683520 -0.509370
O37   O     O_R   0.680500 0.375040 0.327000 -0.500136
O38   O     O_R   0.319500 0.375040 0.673000 -0.504724
O39   O     O_R   0.180500 0.875040 0.327000 -0.500137
O40   O     O_R   0.819500 0.875040 0.673000 -0.504725
O41   O     O_R   0.780350 0.286720 0.192720 -0.485285
O42   O     O_R   0.219650 0.286720 0.807280 -0.497200
O43   O     O_R   0.280350 0.786720 0.192720 -0.485277
O44   O     O_R   0.719650 0.786720 0.807280 -0.497212
O45   O     O_R   0.757470 0.036630 0.196110 -0.514851
O46   O     O_R   0.242530 0.036630 0.803890 -0.497095
O47   O     O_R   0.257470 0.536630 0.196110 -0.514853
O48   O     O_R   0.742530 0.536630 0.803890 -0.497096
O49   O     O_R   0.663840 0.921160 0.179280 -0.478368
O50   O     O_R   0.336160 0.921160 0.820720 -0.479990
O51   O     O_R   0.163840 0.421160 0.179280 -0.478359
O52   O     O_R   0.836160 0.421160 0.820720 -0.480008
C97   C     C_2   0.564474 0.951116 0.044638 0.619282
O53   O     O_2   0.600558 0.880846 0.016309 -0.524766
O54   O     O_R   0.519575 0.904428 0.088655 -0.658819
H69   H     H_    0.522213 0.812902 0.092741 0.344249
C98   C     C_2   0.423271 0.967767 0.960191 0.611093
O55   O     O_2   0.384767 0.910429 0.992980 -0.527017
O56   O     O_R   0.461845 0.905152 0.915785 -0.660966
H70   H     H_    0.452854 0.814716 0.915292 0.344151
C99   C     C_2   0.064526 0.451167 0.044611 0.619243
O57   O     O_2   0.100603 0.380946 0.016242 -0.524778
O58   O     O_R   0.019671 0.404411 0.088649 -0.658827
H71   H     H_    0.022335 0.312885 0.092715 0.344253
C100  C     C_2   0.923309 0.467707 0.960173 0.611116
O59   O     O_2   0.884803 0.410327 0.992938 -0.527034
O60   O     O_R   0.961913 0.405143 0.915777 -0.660958
H72   H     H_    0.952937 0.314705 0.915262 0.344160

loop_
_geom_bond_atom_site_label_1
_geom_bond_atom_site_label_2
_ccdc_geom_bond_type
C94   H38   S    
C39   C51   S    
C29   H65   S    
C58   C62   S    
C8    C24   S    
Cr4   O44   S    
C47   O35   A    
C76   O52   A    
C77   O9    A    
C14   C18   S    
C43   H35   S    
C35   C36   S    
C8    C96   S    
C14   H62   S    
C11   H11   S    
Cr11  O19   S    
C9    C25   S    
Cr10  O18   S    
C31   H67   S    
C93   H1    S    
C76   O48   A    
C67   C83   S    
C100  O60   S    
C40   H28   S    
C11   C19   S    
C97   O53   D    
C79   O11   A    
C48   O32   A    
C12   C28   S    
C11   H49   S    
Cr7   O7    S    
Cr8   O28   S    
C13   C29   S    
C16   C20   S    
C8    H44   S    
O58   H71   S    
C10   C18   S    
C73   O45   A    
C36   H24   S    
C16   H60   S    
C7    C23   S    
C4    O28   A    
Cr11  O35   S    
C9    H51   S    
Cr7   O51   S    
O60   H72   S    
C6    C22   S    
Cr3   O19   S    
Cr6   O50   S    
C86   C89   T    
C5    H41   S    
C49   C78   S    
Cr2   O18   S    
C3    C18   S    
Cr5   O49   S    
C100  O59   D    
C95   H3    S    
Cr1   O17   S    
C37   C42   S    
C51   C80   S    
C21   C25   S    
C84   O44   A    
C59   C67   T    
C43   C51   S    
C12   H12   S    
C55   C74   S    
Cr1   O1    S    
C58   C66   T    
C40   C43   S    
C48   O36   A    
Cr1   O45   S    
C6    C94   S    
C55   C63   T    
C42   H34   S    
C77   O5    A    
O56   H70   S    
C56   C64   T    
C93   H37   S    
C78   O10   A    
Cr8   O32   S    
C23   C27   S    
Cr2   O2    S    
C52   C79   S    
C22   C30   S    
C98   O55   D    
C75   O47   A    
C36   C52   S    
C34   H18   S    
C46   C85   S    
C69   O1    A    
C44   C52   S    
C7    H47   S    
C13   H61   S    
C20   C96   S    
C1    O25   A    
Cr3   O23   S    
C99   O57   D    
C82   O14   A    
C42   H29   S    
C15   H59   S    
Cr12  O20   S    
C36   H20   S    
Cr7   O19   S    
C14   C30   S    
Cr10  O38   S    
Cr6   O18   S    
C31   H7    S    
Cr12  O36   S    
Cr5   O17   S    
Cr8   O52   S    
C38   C97   S    
Cr4   O20   S    
C80   O12   A    
C96   H40   S    
Cr3   O47   S    
C34   C50   S    
Cr9   O37   S    
Cr2   O22   S    
C28   H54   S    
C68   C84   S    
Cr1   O21   S    
C95   H39   S    
Cr10  O10   S    
C38   C41   S    
C84   O16   A    
C57   C65   T    
C91   C92   S    
C33   H21   S    
C27   H15   S    
C70   O2    A    
C39   H27   S    
C54   C62   T    
C46   O34   A    
C21   C29   S    
C15   C31   S    
C94   H2    S    
C45   O33   A    
C21   C69   S    
C78   O6    A    
Cr6   O6    S    
C15   C19   S    
C24   C32   S    
Cr3   O3    S    
C40   C99   S    
C10   H10   S    
C23   C71   S    
C66   C82   S    
C32   H68   S    
C16   H64   S    
C65   C81   S    
C82   O42   A    
C88   C91   T    
C11   C27   S    
C44   H36   S    
C81   O41   A    
C12   C20   S    
C33   H17   S    
C33   C34   S    
Cr8   O20   S    
C48   C87   S    
C69   O37   A    
C43   H32   S    
Cr12  O40   S    
C13   H57   S    
C32   H8    S    
C3    O23   A    
C57   C61   S    
Cr6   O30   S    
C81   O13   A    
C37   C49   S    
C6    H46   S    
C22   C26   S    
Cr5   O29   S    
C42   C50   S    
C7    H43   S    
C4    C17   S    
Cr4   O24   S    
C9    C17   S    
C72   O40   A    
Cr3   O43   S    
C44   H31   S    
Cr2   O42   S    
C35   C51   S    
C15   H63   S    
C37   H25   S    
C53   C76   S    
C17   C93   S    
Cr10  O14   S    
Cr9   O33   S    
Cr11  O15   S    
Cr4   O4    S    
C50   C77   S    
C10   H52   S    
C35   H19   S    
C19   C95   S    
C24   C72   S    
C30   H6    S    
C83   O15   A    
C46   O30   A    
C29   H5    S    
C1    C20   S    
C45   O29   A    
C56   C73   S    
Cr9   O17   S    
Cr8   O8    S    
C2    C19   S    
C2    O22   A    
C53   C61   T    
Cr12  O12   S    
C1    O21   A    
C24   C28   S    
C80   O8    A    
Cr7   O31   S    
Cr11  O39   S    
C5    C93   S    
C85   C90   T    
C28   H16   S    
C37   C98   S    
C39   C44   S    
C38   C50   S    
C47   O31   A    
C16   C32   S    
C41   C49   S    
C7    C95   S    
C41   H33   S    
C74   O46   A    
C59   C63   S    
C6    H42   S    
C13   C17   S    
C60   C64   S    
C60   C68   T    
C47   C88   S    
C72   O4    A    
C99   O58   S    
C45   C86   S    
Cr6   O26   S    
C35   H23   S    
C97   O54   S    
C40   C52   S    
C27   H53   S    
C73   O49   A    
C10   C26   S    
C25   H13   S    
C30   H66   S    
C25   H55   S    
C71   O39   A    
Cr2   O46   S    
C75   O51   A    
C2    O26   A    
C96   H4    S    
Cr9   O13   S    
C79   O7    A    
C41   H30   S    
C70   O38   A    
Cr1   O41   S    
C38   H26   S    
C8    H48   S    
Cr5   O5    S    
Cr7   O27   S    
C26   H56   S    
Cr9   O9    S    
C71   O3    A    
C54   C75   S    
C5    H45   S    
C4    O24   A    
C5    C21   S    
C34   H22   S    
C74   O50   A    
C14   H58   S    
C83   O43   A    
C98   O56   S    
O54   H69   S    
C18   C94   S    
Cr4   O48   S    
C3    O27   A    
Cr12  O16   S    
Cr11  O11   S    
Cr5   O25   S    
C26   H14   S    
C12   H50   S    
C89   C90   S    
C87   C92   T    
C33   C49   S    
C22   C70   S    
C9    H9    S    
C23   C31   S    
C39   C100  S    
Cr10  O34   S    
