data_mof_unit_11389.cif
_audit_creation_date              2012-10-26T20:06:11-0400
_audit_creation_method            fapswitch 2.2
_symmetry_space_group_name_H-M    P1
_symmetry_Int_Tables_number       1
_space_group_crystal_system       triclinic
_cell_length_a                    9.5196
_cell_length_b                    10.831709
_cell_length_c                    13.424201
_cell_angle_alpha                 90.272493
_cell_angle_beta                  72.444971
_cell_angle_gamma                 89.990921
_cell_volume                      1319.7339194

loop_
_atom_site_label
_atom_site_type_symbol
_atom_type_description
_atom_site_fract_x
_atom_site_fract_y
_atom_site_fract_z
_atom_type_partial_charge
C1    C     C_R   0.500198 0.737914 0.499580 0.563484
C2    C     C_R   0.370951 0.503275 0.815262 -0.000596
C3    C     C_R   0.630075 0.936068 0.493856 -0.143918
C4    C     C_R   0.420807 0.504398 0.700308 0.583574
C5    C     C_R   0.629908 0.063789 0.494302 -0.144930
C6    C     C_R   0.500249 0.128195 0.499410 0.018964
C7    C     C_R   0.370798 0.063855 0.503988 -0.143769
C8    C     C_R   0.370888 0.936138 0.503755 -0.147698
C9    C     C_R   0.500477 0.871744 0.498793 0.013209
C10   C     C_R   0.899937 0.581342 0.560913 0.010025
C11   C     C_R   0.048472 0.580924 0.561322 0.004394
C12   C     C_R   0.432714 0.505663 0.979375 -0.006332
C13   C     C_R   0.100555 0.419250 0.438363 0.011201
C14   C     C_R   0.951656 0.419171 0.438502 0.005753
C15   C     C_R   0.500043 0.262066 0.499846 0.545599
C16   C     C_R   0.578781 0.501388 0.299841 0.540810
C17   C     C_R   0.775772 0.618904 0.031793 -0.133582
C18   C     C_R   0.623079 0.517705 0.186521 -0.001117
C19   C     C_R   0.238118 0.443165 0.865351 -0.151201
C20   C     C_R   0.200167 0.417309 0.971127 -0.145784
C21   C     C_R   0.297496 0.444555 0.027221 -0.118934
C22   C     C_3   0.488590 0.804876 0.780735 -0.131520
C23   C     C_R   0.461475 0.546561 0.874780 0.025655
C24   C     C_R   0.539385 0.528899 0.032059 0.016773
C25   C     C_R   0.668076 0.597532 0.981664 0.000934
C26   C     C_R   0.684100 0.650175 0.884419 -0.119096
C27   C     C_R   0.577770 0.631669 0.833921 0.266696
C28   C     C_R   0.521839 0.486990 0.133847 -0.118294
C29   C     C_R   0.753042 0.579679 0.134115 -0.134756
Cu1   Cu    Cu3+1 0.359340 0.499980 0.500000 0.931393
Cu2   Cu    Cu3+1 0.640660 0.500020 0.500000 0.963982
H1    H     H_    0.832664 0.603926 0.173978 0.127559
H2    H     H_    0.874538 0.670727 0.993457 0.107387
H3    H     H_    0.427769 0.433357 0.176071 0.109510
H4    H     H_    0.165575 0.411899 0.821867 0.134327
H5    H     H_    0.261810 0.418149 0.108160 0.099888
H6    H     H_    0.097260 0.370937 0.009026 0.120379
H7    H     H_    0.731355 0.887970 0.490051 0.133142
H8    H     H_    0.516009 0.859457 0.842907 0.113199
H9    H     H_    0.371659 0.774358 0.808005 0.111539
H10   H     H_    0.501001 0.867168 0.713452 0.145760
H11   H     H_    0.731174 0.111805 0.490549 0.126636
H12   H     H_    0.269409 0.111922 0.508040 0.127245
H13   H     H_    0.269510 0.888124 0.507817 0.126867
H14   H     H_    0.823951 0.647186 0.609102 0.163569
H15   H     H_    0.083679 0.645776 0.610484 0.104660
H16   H     H_    0.177585 0.354584 0.388947 0.103128
H17   H     H_    0.916484 0.354468 0.389219 0.103390
H18   H     H_    0.776239 0.710719 0.849191 0.110772
N1    N     N_R   0.147940 0.499970 0.499970 -0.222499
N2    N     N_R   0.852060 0.500060 0.499990 -0.227975
O1    O     O_R   0.381250 0.680340 0.500010 -0.511519
O2    O     O_R   0.618820 0.680370 0.500010 -0.489731
O3    O     O_R   0.323240 0.499950 0.650980 -0.516251
O4    O     O_R   0.560810 0.499980 0.650980 -0.450122
O5    O     O_R   0.381180 0.319630 0.499990 -0.512252
O6    O     O_R   0.618750 0.319660 0.499990 -0.513152
O7    O     O_R   0.439190 0.500020 0.349020 -0.503885
O8    O     O_R   0.676760 0.500050 0.349020 -0.508013
O9    O     O_3   0.584764 0.703531 0.747754 -0.574474

loop_
_geom_bond_atom_site_label_1
_geom_bond_atom_site_label_2
_ccdc_geom_bond_type
C2    C4    S    
C5    H11   S    
Cu1   O5    S    
C6    C7    A    
C3    C9    A    
C7    H12   S    
C15   O6    A    
C12   C24   A    
C19   C20   A    
C17   C25   A    
C15   O5    A    
Cu2   O6    S    
C10   H14   S    
Cu1   N1    S    
C28   H3    S    
C7    C8    A    
C21   H5    S    
C19   H4    S    
C13   C14   A    
C24   C25   A    
C1    O2    A    
C20   H6    S    
Cu1   O3    S    
C12   C23   A    
C26   C27   A    
C5    C6    A    
C17   H2    S    
C22   H8    S    
Cu1   O7    S    
C25   C26   A    
C29   H1    S    
C4    O3    A    
C27   O9    S    
C4    O4    A    
C22   O9    S    
Cu1   Cu2   S    
C1    O1    A    
C22   H10   S    
C10   C11   A    
C10   N2    A    
C18   C29   A    
C13   N1    A    
C1    C9    S    
C8    H13   S    
C17   C29   A    
C18   C28   A    
C20   C21   A    
C14   N2    A    
C16   C18   S    
C26   H18   S    
Cu2   O8    S    
C2    C23   A    
C11   N1    A    
Cu1   O1    S    
C22   H9    S    
C11   H15   S    
C14   H17   S    
Cu2   O4    S    
C6    C15   S    
C2    C19   A    
C13   H16   S    
C12   C21   A    
Cu2   O2    S    
C23   C27   A    
C24   C28   A    
C3    H7    S    
Cu2   N2    S    
C8    C9    A    
C3    C5    A    
C16   O8    A    
C16   O7    A    
