data_mof_unit_34623.cif
_audit_creation_date              2012-12-11T15:33:45-0500
_audit_creation_method            fapswitch 2.2
_symmetry_space_group_name_H-M    P1
_symmetry_Int_Tables_number       1
_space_group_crystal_system       triclinic
_cell_length_a                    27.145426
_cell_length_b                    7.20105
_cell_length_c                    22.696264
_cell_angle_alpha                 89.999623
_cell_angle_beta                  101.100998
_cell_angle_gamma                 89.999871
_cell_volume                      4353.55394669

loop_
_atom_site_label
_atom_site_type_symbol
_atom_type_description
_atom_site_fract_x
_atom_site_fract_y
_atom_site_fract_z
_atom_type_partial_charge
O1    O     O_R   0.207310 0.594030 0.676830 -0.541993
O2    O     O_R   0.792690 0.405970 0.323170 -0.525644
O3    O     O_R   0.292690 0.094030 0.823170 -0.541994
O4    O     O_R   0.707310 0.905970 0.176830 -0.525648
O5    O     O_R   0.197320 0.262370 0.795700 -0.544243
O6    O     O_R   0.802680 0.737630 0.204300 -0.535772
O7    O     O_R   0.302680 0.762370 0.704300 -0.544242
O8    O     O_R   0.697320 0.237630 0.295700 -0.535771
C1    C     C_R   0.184499 0.432557 0.811725 0.667089
C2    C     C_R   0.815511 0.567586 0.188357 0.667841
C3    C     C_R   0.315501 0.932557 0.688275 0.667085
C4    C     C_R   0.684489 0.067586 0.311643 0.667846
O9    O     O_R   0.201410 0.264250 0.675590 -0.527402
O10   O     O_R   0.798590 0.735750 0.324410 -0.545266
O11   O     O_R   0.298590 0.764250 0.824410 -0.527399
O12   O     O_R   0.701410 0.235750 0.175590 -0.545266
O13   O     O_R   0.296810 0.094940 0.702210 -0.532000
O14   O     O_R   0.703190 0.905060 0.297790 -0.540142
O15   O     O_R   0.203190 0.594940 0.797790 -0.531998
O16   O     O_R   0.796810 0.405060 0.202210 -0.540140
C5    C     C_R   0.189885 0.432833 0.653321 0.742673
C6    C     C_R   0.810150 0.567063 0.346648 0.741926
C7    C     C_R   0.310115 0.932832 0.846679 0.742672
C8    C     C_R   0.689849 0.067064 0.153352 0.741927
O17   O     O_3   0.281300 0.427390 0.758870 -0.374913
O18   O     O_3   0.718700 0.572610 0.241130 -0.374734
O19   O     O_3   0.218700 0.927390 0.741130 -0.374915
O20   O     O_3   0.781300 0.072610 0.258870 -0.374732
V1    V     V_3+5 0.244190 0.152150 0.748350 1.432090
V2    V     V_3+5 0.755810 0.847850 0.251650 1.427916
V3    V     V_3+5 0.255810 0.652150 0.751650 1.432098
V4    V     V_3+5 0.744190 0.347850 0.248350 1.427921
C9    C     C_R   0.655408 0.057649 0.094448 -0.129456
C10   C     C_R   0.344617 0.941502 0.905557 -0.128165
C11   C     C_R   0.844592 0.557642 0.405552 -0.129459
C12   C     C_R   0.155383 0.441508 0.594443 -0.128159
C13   C     C_R   0.642458 0.043754 0.986137 -0.192379
C14   C     C_R   0.358316 0.930495 0.013944 -0.194927
C15   C     C_R   0.857541 0.543695 0.513863 -0.192376
C16   C     C_R   0.141685 0.430549 0.486055 -0.194931
C17   C     C_R   0.674947 0.057452 0.041726 0.368558
C18   C     C_R   0.325519 0.925443 0.958359 0.371274
C19   C     C_R   0.825052 0.557409 0.458273 0.368558
C20   C     C_R   0.174483 0.425483 0.541641 0.371271
C21   C     C_R   0.603222 0.044738 0.090928 -0.261605
C22   C     C_R   0.396442 0.967751 0.909002 -0.261414
C23   C     C_R   0.896778 0.544751 0.409073 -0.261603
C24   C     C_R   0.103557 0.467739 0.590998 -0.261417
C25   C     C_R   0.569310 0.028473 0.034623 0.050331
C26   C     C_R   0.430638 0.974793 0.965323 0.050588
C27   C     C_R   0.930689 0.528467 0.465377 0.050331
C28   C     C_R   0.069362 0.474797 0.534677 0.050588
C29   C     C_R   0.590090 0.031873 0.981754 0.036434
C30   C     C_R   0.410271 0.957493 0.018241 0.037746
C31   C     C_R   0.909909 0.531832 0.518246 0.036433
C32   C     C_R   0.089730 0.457530 0.481759 0.037748
C33   C     C_R   0.515869 0.006909 0.029061 0.028598
C34   C     C_R   0.484076 0.996631 0.970874 0.028768
C35   C     C_R   0.984131 0.506918 0.470939 0.028598
C36   C     C_R   0.015923 0.496620 0.529126 0.028768
C37   C     C_R   0.506762 0.005114 0.920010 -0.253129
C38   C     C_R   0.493411 0.991250 0.079942 -0.253302
C39   C     C_R   0.993237 0.505068 0.579990 -0.253129
C40   C     C_R   0.006590 0.491292 0.420058 -0.253303
C41   C     C_R   0.558828 0.021091 0.924874 0.353909
C42   C     C_R   0.441617 0.965959 0.075116 0.354869
C43   C     C_R   0.941170 0.521030 0.575126 0.353909
C44   C     C_R   0.058384 0.466014 0.424884 0.354870
H1    H     H_    0.408450 0.982244 0.866724 0.116174
H2    H     H_    0.590707 0.047417 0.133129 0.116163
H3    H     H_    0.091549 0.482208 0.633276 0.116173
H4    H     H_    0.909294 0.547457 0.366872 0.116163
H5    H     H_    0.658885 0.040268 0.946268 0.186699
H6    H     H_    0.342503 0.912745 0.053917 0.186147
H7    H     H_    0.841113 0.540183 0.553731 0.186700
H8    H     H_    0.157499 0.412822 0.446082 0.186145
H9    H     H_    0.484986 0.996300 0.875249 0.116064
H10   H     H_    0.515362 0.994777 0.124698 0.116085
H11   H     H_    0.015012 0.496237 0.624751 0.116064
H12   H     H_    0.984640 0.494833 0.375302 0.116085
C45   C     C_R   0.621346 0.886730 0.356542 -0.174440
C46   C     C_R   0.371135 0.118334 0.633258 -0.141364
C47   C     C_R   0.878657 0.386733 0.143462 -0.174440
C48   C     C_R   0.128858 0.618333 0.866733 -0.141371
H13   H     H_    0.630831 0.762199 0.334403 0.130597
H14   H     H_    0.356044 0.245742 0.647861 0.125904
H15   H     H_    0.869174 0.262204 0.165604 0.130598
H16   H     H_    0.143944 0.745742 0.852123 0.125899
C49   C     C_R   0.585510 0.873668 0.393252 -0.148009
C50   C     C_R   0.407048 0.131417 0.596692 -0.143852
C51   C     C_R   0.914493 0.373671 0.106752 -0.148007
C52   C     C_R   0.092945 0.631416 0.903299 -0.143854
H17   H     H_    0.568685 0.739655 0.398235 0.139682
H18   H     H_    0.418126 0.268111 0.584188 0.132694
H19   H     H_    0.931320 0.239660 0.101772 0.139683
H20   H     H_    0.081863 0.768111 0.915797 0.132694
C53   C     C_R   0.571847 0.030667 0.423296 0.020977
C54   C     C_R   0.427978 0.970895 0.576192 0.025525
C55   C     C_R   0.928153 0.530667 0.076704 0.020976
C56   C     C_R   0.072021 0.470894 0.923807 0.025530
C57   C     C_R   0.594672 0.201878 0.414929 -0.137354
C58   C     C_R   0.412329 0.796621 0.594009 -0.141767
C59   C     C_R   0.905326 0.701877 0.085068 -0.137355
C60   C     C_R   0.087677 0.296619 0.905998 -0.141765
H21   H     H_    0.585105 0.326039 0.437186 0.141420
H22   H     H_    0.427736 0.669763 0.579416 0.141771
H23   H     H_    0.914890 0.826036 0.062807 0.141423
H24   H     H_    0.072274 0.169761 0.920598 0.141769
C61   C     C_R   0.630713 0.214837 0.378289 -0.146627
C62   C     C_R   0.376463 0.783560 0.630913 -0.172663
C63   C     C_R   0.869285 0.714836 0.121708 -0.146638
C64   C     C_R   0.123542 0.283558 0.869094 -0.172663
H25   H     H_    0.647926 0.348328 0.373619 0.130059
H26   H     H_    0.365450 0.647189 0.643711 0.124291
H27   H     H_    0.852069 0.848325 0.126374 0.130066
H28   H     H_    0.134560 0.147186 0.856304 0.124290
C65   C     C_R   0.644917 0.056917 0.349012 -0.043605
C66   C     C_R   0.354905 0.944292 0.650561 -0.039276
C67   C     C_R   0.855083 0.556918 0.150988 -0.043606
C68   C     C_R   0.145095 0.444291 0.849438 -0.039268
N1    N     N_R   0.517363 0.168647 0.487971 -0.277037
N2    N     N_R   0.482697 0.832496 0.511809 -0.277629
N3    N     N_R   0.982632 0.668645 0.012023 -0.277038
N4    N     N_R   0.017308 0.332497 0.988197 -0.277629
N5    N     N_R   0.483813 0.154438 0.523660 -0.282104
N6    N     N_R   0.516165 0.846746 0.475999 -0.282290
N7    N     N_R   0.016182 0.654435 0.976333 -0.282104
N8    N     N_R   0.983840 0.346747 0.024007 -0.282290
C69   C     C_R   0.465707 0.986082 0.536459 0.515846
C70   C     C_R   0.534283 0.015126 0.463227 0.516845
C71   C     C_R   0.034292 0.486081 0.963540 0.515845
C72   C     C_R   0.965717 0.515126 0.036773 0.516846
O21   O     O_3   0.580050 0.026412 0.874103 -0.644540
H29   H     H_    0.553322 0.017712 0.837671 0.294789
O22   O     O_3   0.420747 0.949163 0.125922 -0.644357
H30   H     H_    0.447476 0.958242 0.162342 0.294777
O23   O     O_3   0.919947 0.526316 0.625897 -0.644539
H31   H     H_    0.946675 0.517607 0.662329 0.294789
O24   O     O_3   0.079255 0.449250 0.374077 -0.644357
H32   H     H_    0.052527 0.458338 0.337657 0.294777
O25   O     O_3   0.275011 0.891076 0.955741 -0.556636
C73   C     C_3   0.251484 0.056567 0.969182 0.082474
H33   H     H_    0.247884 0.154758 0.930700 0.128892
H34   H     H_    0.272402 0.126004 0.010419 0.125105
C74   C     C_3   0.199297 0.010886 0.980095 -0.673791
H35   H     H_    0.202010 0.914188 0.018706 0.232048
H36   H     H_    0.180230 0.140073 0.990280 0.189642
H37   H     H_    0.176691 0.944680 0.939676 0.207939
O26   O     O_3   0.726240 0.052462 0.044464 -0.558833
C75   C     C_3   0.743052 0.231689 0.032661 0.075579
H38   H     H_    0.743574 0.322881 0.072365 0.133329
H39   H     H_    0.719192 0.296982 0.992486 0.124290
C76   C     C_3   0.796111 0.217083 0.020639 -0.663768
H40   H     H_    0.795908 0.136907 0.978795 0.225070
H41   H     H_    0.811319 0.358049 0.015447 0.192807
H42   H     H_    0.820662 0.144890 0.058480 0.216129
O27   O     O_3   0.224991 0.391130 0.544258 -0.556639
C77   C     C_3   0.248515 0.556630 0.530818 0.082476
H43   H     H_    0.252113 0.654817 0.569301 0.128895
H44   H     H_    0.227596 0.626067 0.489582 0.125102
C78   C     C_3   0.300703 0.510964 0.519905 -0.673784
H45   H     H_    0.297992 0.414273 0.481294 0.232045
H46   H     H_    0.319768 0.640158 0.509722 0.189647
H47   H     H_    0.323310 0.444757 0.560324 0.207934
O28   O     O_3   0.773758 0.552403 0.455535 -0.558831
C79   C     C_3   0.756943 0.731622 0.467340 0.075579
H48   H     H_    0.756420 0.822824 0.427638 0.133327
H49   H     H_    0.780801 0.796910 0.507517 0.124293
C80   C     C_3   0.703884 0.716998 0.479359 -0.663772
H50   H     H_    0.704086 0.636804 0.521200 0.225074
H51   H     H_    0.688674 0.857959 0.484557 0.192808
H52   H     H_    0.679334 0.644817 0.441515 0.216120

loop_
_geom_bond_atom_site_label_1
_geom_bond_atom_site_label_2
_ccdc_geom_bond_type
O17   V3    S    
C55   C59   A    
O1    C5    A    
O27   C77   S    
N3    C72   A    
O19   V1    S    
C9    C21   A    
C80   H50   S    
O3    C7    A    
C10   C18   A    
C56   C60   A    
N1    C70   A    
C11   C23   A    
C62   C66   A    
C78   H45   S    
C56   C71   S    
C61   C65   A    
O22   H30   S    
C5    C12   S    
C39   H11   S    
O7    C3    A    
C6    C11   S    
C35   C40   A    
O28   C79   S    
C55   C72   S    
C36   C39   A    
C40   C44   A    
O2    V4    S    
C63   C67   A    
C53   C70   S    
C14   C18   A    
C13   C17   A    
O16   V4    S    
O4    C8    A    
C17   O26   S    
N6    C70   A    
C57   C61   A    
C45   C65   A    
C60   H24   S    
O1    V3    S    
O13   V1    S    
C31   C43   A    
C59   C63   A    
C47   C67   A    
O3    V1    S    
C22   H1    S    
C2    C67   S    
C28   C36   A    
C77   C78   S    
C78   H46   S    
N1    N5    A    
C1    O15   A    
C15   C31   A    
C37   H9    S    
C16   C32   A    
C75   C76   S    
O2    C6    A    
C50   H18   S    
C10   C22   A    
C15   H7    S    
C76   H41   S    
C11   C19   A    
C62   H26   S    
N2    C69   A    
C27   C31   A    
C48   C68   A    
N4    N8    A    
C13   C29   A    
C34   C37   A    
O11   C7    A    
O15   V3    S    
C35   C36   A    
O12   C8    A    
C79   H49   S    
C20   O27   S    
C40   H12   S    
C73   C74   S    
C79   H48   S    
O10   V2    S    
N8    C72   A    
C74   H36   S    
C74   H35   S    
O5    V1    S    
C19   O28   S    
C52   H20   S    
C57   H21   S    
C39   C43   A    
O7    V3    S    
C38   C42   A    
C26   C34   A    
C33   C38   A    
C2    O16   A    
C60   C64   A    
O18   V4    S    
C15   C19   A    
C32   C44   A    
O4    V2    S    
C16   H8    S    
N4    C71   A    
C49   C53   A    
O8    V4    S    
N2    N6    A    
O5    C1    A    
C37   C41   A    
C63   H27   S    
N3    N7    A    
C14   C30   A    
C21   C25   A    
O8    C4    A    
C7    C10   S    
C53   C57   A    
C18   O25   S    
O9    C5    A    
C26   C30   A    
C76   H42   S    
O14   V2    S    
O6    V2    S    
C16   C20   A    
C77   H43   S    
C80   H52   S    
C75   H39   S    
C12   C20   A    
C27   C35   A    
C46   C66   A    
C24   H3    S    
C64   H28   S    
C78   H47   S    
C29   C41   A    
C74   H37   S    
C52   C56   A    
C64   C68   A    
C80   H51   S    
O9    V1    S    
C13   H5    S    
C3    O13   A    
C21   H2    S    
C75   H38   S    
C38   H10   S    
C48   H16   S    
C47   H15   S    
O6    C2    A    
C25   C33   A    
C23   C27   A    
O24   H32   S    
O11   V3    S    
C30   C42   A    
C61   H25   S    
O12   V4    S    
C47   C51   A    
O23   H31   S    
C22   C26   A    
C8    C9    S    
C46   C50   A    
C9    C17   A    
O10   C6    A    
N7    C71   A    
O20   V2    S    
C45   C49   A    
C54   C58   A    
O25   C73   S    
C46   H14   S    
C77   H44   S    
C33   C34   A    
O21   H29   S    
C25   C29   A    
C54   C69   S    
C14   H6    S    
C12   C24   A    
C73   H34   S    
C49   H17   S    
C43   O23   S    
C41   O21   S    
C23   H4    S    
C58   C62   A    
C51   H19   S    
C42   O22   S    
N5    C69   A    
C24   C28   A    
C79   C80   S    
C58   H22   S    
C4    O14   A    
C1    C68   S    
C73   H33   S    
C44   O24   S    
C59   H23   S    
C4    C65   S    
C48   C52   A    
C51   C55   A    
C76   H40   S    
O26   C75   S    
C3    C66   S    
C50   C54   A    
C45   H13   S    
C28   C32   A    
