data_mof_unit_30082.cif
_audit_creation_date              2012-12-11T14:21:17-0500
_audit_creation_method            fapswitch 2.2
_symmetry_space_group_name_H-M    P1
_symmetry_Int_Tables_number       1
_space_group_crystal_system       triclinic
_cell_length_a                    21.974375
_cell_length_b                    7.208136
_cell_length_c                    14.91138
_cell_angle_alpha                 89.969975
_cell_angle_beta                  106.869069
_cell_angle_gamma                 89.960394
_cell_volume                      2260.24547739

loop_
_atom_site_label
_atom_site_type_symbol
_atom_type_description
_atom_site_fract_x
_atom_site_fract_y
_atom_site_fract_z
_atom_type_partial_charge
O1    O     O_R   0.584770 0.505770 0.002090 -0.541310
O2    O     O_R   0.415230 0.005770 0.997910 -0.541478
O3    O     O_R   0.467060 0.173340 0.861950 -0.538140
O4    O     O_R   0.532940 0.673340 0.138050 -0.538134
C1    C     C_R   0.455472 0.344562 0.825959 0.675254
C2    C     C_R   0.544560 0.844406 0.174039 0.675297
O5    O     O_R   0.587510 0.175890 0.993210 -0.543262
O6    O     O_R   0.412490 0.675890 0.006790 -0.543222
O7    O     O_R   0.536540 0.008150 0.130100 -0.536171
O8    O     O_R   0.463460 0.508150 0.869900 -0.536130
C3    C     C_R   0.611869 0.344764 0.993300 0.689070
C4    C     C_R   0.388151 0.844893 0.006812 0.688910
O9    O     O_3   0.483140 0.340040 0.044760 -0.377010
O10   O     O_3   0.516860 0.840040 0.955240 -0.376939
V1    V     V_3+5 0.503130 0.064190 0.991700 1.408727
V2    V     V_3+5 0.496870 0.564190 0.008300 1.408988
C5    C     C_2   0.213827 0.736261 0.996359 -0.151700
C6    C     C_2   0.786361 0.236481 0.004457 -0.151304
C7    C     C_2   0.177537 0.889386 0.985919 -0.307359
C8    C     C_2   0.822419 0.389781 0.013962 -0.307902
H1    H     H_    0.194485 0.602748 0.007836 0.140369
H2    H     H_    0.805914 0.102695 0.993841 0.140505
H3    H     H_    0.195504 0.018928 0.966508 0.131890
H4    H     H_    0.804229 0.519736 0.032570 0.132062
C9    C     C_2   0.278366 0.739092 0.983182 -0.156909
C10   C     C_2   0.721852 0.239689 0.017744 -0.157159
C11   C     C_2   0.325977 0.856677 0.026912 -0.049279
C12   C     C_2   0.674023 0.356149 0.973190 -0.048318
H5    H     H_    0.287502 0.634687 0.936147 0.115801
H6    H     H_    0.712932 0.136586 0.065595 0.115103
C13   C     C_R   0.926181 0.886234 0.724369 -0.022184
C14   C     C_R   0.073810 0.384935 0.275605 -0.022474
C15   C     C_R   0.572873 0.853966 0.275403 -0.021431
C16   C     C_R   0.427216 0.354791 0.724588 -0.021753
C17   C     C_R   0.936654 0.863467 0.568293 -0.165119
C18   C     C_R   0.063554 0.347546 0.431169 -0.164975
C19   C     C_R   0.964469 0.873931 0.664667 -0.176537
C20   C     C_R   0.035661 0.362709 0.334975 -0.176483
C21   C     C_R   0.859936 0.889492 0.687927 -0.212075
C22   C     C_R   0.139994 0.392924 0.312201 -0.212167
C23   C     C_R   0.830263 0.880910 0.590095 0.083342
C24   C     C_R   0.169758 0.378427 0.409838 0.083248
C25   C     C_R   0.870192 0.865949 0.530675 0.140257
C26   C     C_R   0.129968 0.354151 0.468907 0.140182
C27   C     C_R   0.762671 0.885075 0.549501 0.061645
C28   C     C_R   0.237318 0.385203 0.450537 0.061575
C29   C     C_R   0.736281 0.868200 0.450099 0.058978
C30   C     C_R   0.263822 0.363084 0.549673 0.058898
C31   C     C_R   0.778356 0.852834 0.394476 -0.189746
C32   C     C_R   0.221877 0.338664 0.604922 -0.189826
C33   C     C_R   0.843752 0.852809 0.434113 -0.204140
C34   C     C_R   0.156506 0.335297 0.565207 -0.204041
C35   C     C_R   0.720646 0.907101 0.604798 -0.193818
C36   C     C_R   0.279203 0.414362 0.395600 -0.193582
C37   C     C_R   0.655215 0.908161 0.565059 -0.206432
C38   C     C_R   0.344608 0.418444 0.435442 -0.206509
C39   C     C_R   0.628733 0.888368 0.468739 0.142416
C40   C     C_R   0.371200 0.395010 0.531544 0.142291
C41   C     C_R   0.668681 0.868498 0.409624 0.082730
C42   C     C_R   0.331394 0.367238 0.590287 0.082661
C43   C     C_R   0.562249 0.890098 0.430914 -0.165611
C44   C     C_R   0.437633 0.401326 0.569565 -0.165429
C45   C     C_R   0.534494 0.873616 0.334665 -0.181097
C46   C     C_R   0.465452 0.382244 0.665687 -0.181441
C47   C     C_R   0.639042 0.850610 0.312132 -0.209881
C48   C     C_R   0.361124 0.346339 0.687619 -0.209941
H7    H     H_    0.874028 0.841322 0.388444 0.123046
H8    H     H_    0.126335 0.316530 0.610588 0.122943
H9    H     H_    0.665572 0.835069 0.262190 0.092089
H10   H     H_    0.334697 0.325639 0.737334 0.092327
H11   H     H_    0.483187 0.877483 0.306326 0.106785
H12   H     H_    0.516684 0.390367 0.694237 0.107595
H13   H     H_    0.624966 0.925230 0.610449 0.121151
H14   H     H_    0.374740 0.441120 0.390329 0.121123
H15   H     H_    0.967173 0.852753 0.522982 0.118034
H16   H     H_    0.033148 0.329262 0.476205 0.118109
H17   H     H_    0.015802 0.871373 0.692768 0.105555
H18   H     H_    0.984390 0.355756 0.306724 0.105829
H19   H     H_    0.833333 0.896786 0.738176 0.090094
H20   H     H_    0.166496 0.407654 0.262143 0.090113
H21   H     H_    0.762563 0.841604 0.319346 0.121214
H22   H     H_    0.237745 0.322138 0.679806 0.121345
H23   H     H_    0.736608 0.925791 0.679568 0.119775
H24   H     H_    0.263154 0.436181 0.321039 0.119819
H25   H     H_    0.531683 0.905658 0.475901 0.117912
H26   H     H_    0.468086 0.423036 0.524876 0.117985
O11   O     O_R   0.036450 0.233070 0.130130 -0.537215
O12   O     O_R   0.963550 0.733070 0.869870 -0.537242
O13   O     O_R   0.912470 0.560570 0.006790 -0.545844
O14   O     O_R   0.087530 0.060570 0.993210 -0.545723
C49   C     C_R   0.887598 0.392186 0.004727 0.733410
C50   C     C_R   0.112393 0.892081 0.995259 0.733321
O15   O     O_R   0.032920 0.562940 0.138050 -0.539735
O16   O     O_R   0.967080 0.062940 0.861950 -0.539675
O17   O     O_R   0.084790 0.730500 0.002090 -0.537163
O18   O     O_R   0.915210 0.230500 0.997910 -0.537113
C51   C     C_R   0.045080 0.394300 0.174381 0.682922
C52   C     C_R   0.954918 0.894491 0.825613 0.682929
O19   O     O_3   0.016820 0.396170 0.955260 -0.378323
O20   O     O_3   0.983180 0.896170 0.044740 -0.378425
V3    V     V_3+5 0.996880 0.672090 0.008300 1.411851
V4    V     V_3+5 0.003120 0.172090 0.991700 1.412126
C53   C     C_3   0.321846 0.987138 0.105360 -0.332185
C54   C     C_3   0.320608 0.879156 0.193695 -0.306643
C55   C     C_3   0.319794 0.010307 0.273664 -0.765271
H27   H     H_    0.362947 0.099103 0.292148 0.224502
H28   H     H_    0.276752 0.099653 0.253110 0.229756
H29   H     H_    0.318976 0.928398 0.336407 0.229202
H30   H     H_    0.277835 0.789321 0.178939 0.210483
H31   H     H_    0.363418 0.788960 0.216537 0.179611
H32   H     H_    0.364176 0.079463 0.124687 0.169002
H33   H     H_    0.280360 0.080943 0.082667 0.174742
C56   C     C_3   0.677816 0.484039 0.893586 -0.333048
C57   C     C_3   0.678638 0.373041 0.805997 -0.306566
C58   C     C_3   0.679260 0.501389 0.724847 -0.765645
H34   H     H_    0.636237 0.590931 0.706080 0.223623
H35   H     H_    0.722446 0.589982 0.744316 0.230107
H36   H     H_    0.679656 0.417325 0.662623 0.229500
H37   H     H_    0.721329 0.282563 0.821199 0.210540
H38   H     H_    0.635733 0.283247 0.784191 0.180133
H39   H     H_    0.635488 0.576582 0.873932 0.168205
H40   H     H_    0.719358 0.577646 0.915165 0.175230

loop_
_geom_bond_atom_site_label_1
_geom_bond_atom_site_label_2
_ccdc_geom_bond_type
C40   C44   A    
O18   V4    S    
C6    C10   S    
O2    C4    A    
C16   C48   A    
C2    O7    A    
C36   H24   S    
O12   V3    S    
C15   C47   A    
C29   C31   A    
O5    C3    A    
C44   H26   S    
C13   C52   S    
C17   H15   S    
C17   C19   A    
C54   H30   S    
C39   C41   A    
O16   C52   A    
C40   C42   A    
C58   H34   S    
C14   C51   S    
C53   H32   S    
C24   C28   A    
C27   C29   A    
C31   H21   S    
C43   C45   A    
O14   V4    S    
C44   C46   A    
C7    C50   S    
C18   H16   S    
C49   O18   A    
C56   H40   S    
C8    H4    S    
C13   C21   A    
C31   C33   A    
O1    C3    A    
C32   C34   A    
C22   H20   S    
C14   C20   A    
O13   C49   A    
C17   C25   A    
C57   H37   S    
C34   H8    S    
O6    C4    A    
C26   C34   A    
C30   C32   A    
C42   C48   A    
O6    V2    S    
C23   C25   A    
C24   C26   A    
C54   C55   S    
C8    C49   S    
C30   C42   A    
C28   C30   A    
C35   C37   A    
C9    H5    S    
C55   H29   S    
C36   C38   A    
C38   H14   S    
C4    C11   S    
C21   C23   A    
C57   C58   S    
O15   V3    S    
C20   H18   S    
C58   H35   S    
C19   H17   S    
C27   C35   A    
C50   O17   A    
C5    H1    S    
C13   C19   A    
C53   H33   S    
C21   H19   S    
O4    V2    S    
C7    H3    S    
O11   V4    S    
C55   H28   S    
O14   C50   A    
C15   C45   A    
C58   H36   S    
C1    C16   S    
C28   C36   A    
C16   C46   A    
O1    V2    S    
C33   H7    S    
O2    V1    S    
C43   H25   S    
O4    C2    A    
C45   H11   S    
C10   H6    S    
C37   C39   A    
C18   C26   A    
O15   C51   A    
C14   C22   A    
O3    V1    S    
C32   H22   S    
C56   C57   S    
O13   V3    S    
C6    H2    S    
C22   C24   A    
O3    C1    A    
C39   C43   A    
C9    C11   D    
C55   H27   S    
C10   C12   D    
C2    C15   S    
C35   H23   S    
C5    C9    S    
C11   C53   S    
C18   C20   A    
O7    V1    S    
C1    O8    A    
O8    V2    S    
C41   C47   A    
C54   H31   S    
C25   C33   A    
C48   H10   S    
C3    C12   S    
C47   H9    S    
O5    V1    S    
O20   V3    S    
C5    C7    D    
C38   C40   A    
C6    C8    D    
C46   H12   S    
O12   C52   A    
C12   C56   S    
C29   C41   A    
C37   H13   S    
O19   V4    S    
C56   H39   S    
O16   V4    S    
O9    V2    S    
C53   C54   S    
C23   C27   A    
O10   V1    S    
C57   H38   S    
O17   V3    S    
O11   C51   A    
