data_mof_unit_64816.cif
_audit_creation_date              2012-12-10T17:06:42-0500
_audit_creation_method            fapswitch 2.2
_symmetry_space_group_name_H-M    P1
_symmetry_Int_Tables_number       1
_space_group_crystal_system       triclinic
_cell_length_a                    14.157376
_cell_length_b                    10.716908
_cell_length_c                    10.028816
_cell_angle_alpha                 91.100721
_cell_angle_beta                  90.11383
_cell_angle_gamma                 90.19798
_cell_volume                      1521.3119489

loop_
_atom_site_label
_atom_site_type_symbol
_atom_type_description
_atom_site_fract_x
_atom_site_fract_y
_atom_site_fract_z
_atom_type_partial_charge
C1    C     C_R   0.501919 0.262493 0.498384 0.922720
C2    C     C_R   0.504842 0.737364 0.501393 0.942060
C3    C     C_R   0.670819 0.499999 0.500099 0.887322
C4    C     C_1   0.227700 0.499987 0.499689 -0.198099
C5    C     C_1   0.142464 0.500020 0.499727 -0.005160
C6    C     C_1   0.042594 0.500057 0.499925 0.014259
C7    C     C_1   0.957365 0.500078 0.500128 0.015377
C8    C     C_1   0.857501 0.500078 0.500311 0.000372
C9    C     C_1   0.607826 0.121867 0.298166 0.212672
C10   C     C_1   0.616274 0.660477 0.864222 0.258554
C11   C     C_1   0.772272 0.500052 0.500328 -0.184249
C12   C     C_2   0.540794 0.929901 0.394774 -0.197310
C13   C     C_2   0.523137 0.868000 0.506148 -0.349992
C14   C     C_2   0.549749 0.064480 0.399089 0.028869
C15   C     C_2   0.502401 0.129830 0.493348 -0.372022
C16   C     C_2   0.554794 0.571711 0.926717 0.004010
C17   C     C_2   0.559177 0.564702 0.076676 -0.158473
C18   C     C_R   0.329178 0.499958 0.499901 0.891437
H1    H     H_    0.525971 0.912530 0.604252 0.164741
H2    H     H_    0.458511 0.085726 0.567505 0.144181
H3    H     H_    0.461630 0.433056 0.896418 0.156977
H4    H     H_    0.613539 0.618599 0.128391 0.162845
H5    H     H_    0.547183 0.881861 0.298706 0.176526
H6    H     H_    0.445745 0.456302 0.100899 0.164293
N1    N     N_2   0.500930 0.501330 0.852150 -0.204807
N2    N     N_2   0.500950 0.501360 0.147810 -0.183854
N3    N     N_1   0.654227 0.167606 0.217609 -0.197178
N4    N     N_1   0.665801 0.731895 0.814388 -0.216930
O1    O     O_R   0.499990 0.319060 0.613040 -0.608337
O2    O     O_R   0.500010 0.319100 0.386900 -0.593993
O3    O     O_R   0.373700 0.499980 0.613090 -0.594545
O4    O     O_R   0.373730 0.500020 0.386960 -0.594168
O5    O     O_R   0.499990 0.680900 0.613100 -0.607598
O6    O     O_R   0.500010 0.680940 0.386960 -0.606913
O7    O     O_R   0.626270 0.499980 0.613040 -0.589791
O8    O     O_R   0.626300 0.500020 0.386910 -0.593070
Zn1   Zn    Zn3+2 0.499980 0.499970 0.650990 0.955583
Zn2   Zn    Zn3+2 0.500020 0.500030 0.349010 0.953690

loop_
_geom_bond_atom_site_label_1
_geom_bond_atom_site_label_2
_ccdc_geom_bond_type
C9    C14   S    
C6    C7    T    
C1    C15   S    
O4    Zn2   S    
C17   H4    S    
C3    O7    A    
C4    C18   S    
C2    O6    A    
C1    O1    A    
C7    C8    S    
C10   C16   S    
C12   H5    S    
C9    N3    T    
C5    C6    S    
C3    O8    A    
C8    C11   T    
C17   N2    D    
C2    O5    A    
O8    Zn2   S    
C1    O2    A    
O7    Zn1   S    
C12   C14   S    
C15   H2    S    
C18   O4    A    
C13   H1    S    
C10   N4    T    
C3    C11   S    
C12   C13   D    
O2    Zn2   S    
O1    Zn1   S    
C16   N1    D    
C2    C13   S    
H3    N1    S    
C14   C15   D    
N2    Zn2   S    
C18   O3    A    
N1    Zn1   S    
O6    Zn2   S    
O5    Zn1   S    
O3    Zn1   S    
C16   C17   S    
H6    N2    S    
C4    C5    T    
