data_mof_unit_9463.cif
_audit_creation_date              2013-03-05T15:49:31-0500
_audit_creation_method            fapswitch 2.2
_symmetry_space_group_name_H-M    P1
_symmetry_Int_Tables_number       1
_space_group_crystal_system       triclinic
_cell_length_a                    10.497996
_cell_length_b                    11.946391
_cell_length_c                    12.816134
_cell_angle_alpha                 94.117519
_cell_angle_beta                  90.192631
_cell_angle_gamma                 84.937127
_cell_volume                      1596.90128998

loop_
_atom_site_label
_atom_site_type_symbol
_atom_site_description
_atom_site_fract_x
_atom_site_fract_y
_atom_site_fract_z
_atom_type_partial_charge
O1    O     O_R   0.506170 0.421700 0.658830 -0.626940
O2    O     O_R   0.493830 0.578300 0.341170 -0.626937
O3    O     O_R   0.491330 0.609310 0.646410 -0.614685
O4    O     O_R   0.508670 0.390690 0.353590 -0.614691
C1    C     C_R   0.495497 0.523113 0.700578 0.891459
C2    C     C_R   0.504504 0.476887 0.299422 0.891462
O5    O     O_R   0.690650 0.406190 0.506220 -0.626612
O6    O     O_R   0.309350 0.593810 0.493780 -0.626614
O7    O     O_R   0.675800 0.593810 0.493800 -0.593489
O8    O     O_R   0.324200 0.406190 0.506200 -0.593484
C3    C     C_R   0.740495 0.496062 0.484285 0.901325
C4    C     C_R   0.259506 0.503938 0.515716 0.901330
Zn1   Zn    Zn3+2 0.509910 0.374730 0.508290 0.935677
Zn2   Zn    Zn3+2 0.490090 0.625270 0.491710 0.935678
C5    C     C_R   0.915662 0.282901 0.479746 -0.186614
C6    C     C_R   0.084338 0.717099 0.520255 -0.186626
C7    C     C_R   0.980268 0.193974 0.527827 -0.099037
C8    C     C_R   0.019732 0.806025 0.472172 -0.099027
C9    C     C_R   0.081319 0.213138 0.596240 0.248707
C10   C     C_R   0.918684 0.786860 0.403758 0.248695
C11   C     C_R   0.123217 0.322684 0.610495 0.193415
C12   C     C_R   0.876785 0.677313 0.389504 0.193410
C13   C     C_R   0.066875 0.409763 0.549554 0.045009
C14   C     C_R   0.933126 0.590236 0.450447 0.045007
C15   C     C_R   0.952843 0.393366 0.496498 0.041943
C16   C     C_R   0.047157 0.606633 0.503503 0.041943
C17   C     C_R   0.122170 0.511375 0.536533 -0.218347
C18   C     C_R   0.877831 0.488625 0.463468 -0.218344
H1    H     H_    0.837590 0.264188 0.427842 0.170369
H2    H     H_    0.162410 0.735812 0.572159 0.170372
H3    H     H_    0.948339 0.110439 0.514047 0.162002
H4    H     H_    0.051661 0.889561 0.485952 0.162002
C19   C     C_R   0.513589 0.461193 0.187825 -0.062702
C20   C     C_R   0.486410 0.538808 0.812174 -0.062693
C21   C     C_R   0.384132 0.620856 0.971113 -0.170080
C22   C     C_R   0.615862 0.379141 0.028886 -0.170076
C23   C     C_R   0.397955 0.620814 0.863122 0.163014
C24   C     C_R   0.602036 0.379179 0.136876 0.163007
C25   C     C_R   0.559999 0.460664 0.867682 -0.287961
C26   C     C_R   0.440003 0.539340 0.132318 -0.287959
C27   C     C_R   0.544389 0.459819 0.974057 0.126294
C28   C     C_R   0.455611 0.540182 0.025943 0.126292
H5    H     H_    0.372264 0.601546 0.172818 0.168045
H6    H     H_    0.627741 0.398459 0.827183 0.168042
H7    H     H_    0.316350 0.682285 0.012261 0.159611
H8    H     H_    0.683639 0.317707 0.987736 0.159616
N1    N     N_R   0.523130 0.207800 0.519340 -0.138338
N2    N     N_R   0.476870 0.792200 0.480660 -0.138333
C29   C     C_R   0.374413 0.955424 0.405778 0.235212
C30   C     C_R   0.625571 0.044576 0.594229 0.235229
C31   C     C_R   0.390004 0.838471 0.413994 -0.088891
C32   C     C_R   0.609985 0.161528 0.586014 -0.088878
C33   C     C_R   0.552654 0.857029 0.541027 -0.023402
C34   C     C_R   0.447349 0.142972 0.458968 -0.023400
C35   C     C_R   0.545772 0.974961 0.534115 -0.093734
C36   C     C_R   0.454222 0.025040 0.465884 -0.093726
H9    H     H_    0.383013 0.184500 0.405148 0.199377
H10   H     H_    0.617003 0.815502 0.594840 0.199364
H11   H     H_    0.669979 0.216057 0.631135 0.175810
H12   H     H_    0.330005 0.783940 0.368881 0.175826
C37   C     C_3   0.856012 0.883970 0.347771 -0.835673
H13   H     H_    0.898239 0.964063 0.370920 0.244799
H14   H     H_    0.868442 0.867239 0.261970 0.247937
H15   H     H_    0.752465 0.895855 0.367038 0.240919
C38   C     C_3   0.143993 0.116025 0.652223 -0.835697
H16   H     H_    0.101762 0.035934 0.629076 0.244797
H17   H     H_    0.247537 0.104137 0.632949 0.240930
H18   H     H_    0.131572 0.132754 0.738024 0.247932
N3    N     N_R   0.276801 0.000685 0.337794 0.192367
O9    O     O_R   0.253687 0.945881 0.249305 -0.400126
O10   O     O_R   0.195563 0.083518 0.372152 -0.429934
N4    N     N_R   0.723162 0.999312 0.662228 0.192345
O11   O     O_R   0.746213 0.054098 0.750756 -0.400104
O12   O     O_R   0.804455 0.916522 0.627852 -0.429948
C39   C     C_3   0.216979 0.347438 0.697483 -0.835104
H19   H     H_    0.178873 0.324081 0.772834 0.233051
H20   H     H_    0.310125 0.297918 0.681245 0.269173
H21   H     H_    0.232328 0.438097 0.708752 0.212384
C40   C     C_3   0.783025 0.652557 0.302515 -0.835104
H22   H     H_    0.821137 0.675907 0.227163 0.233052
H23   H     H_    0.767672 0.561898 0.291249 0.212384
H24   H     H_    0.689881 0.702081 0.318747 0.269166
C41   C     C_3   0.686069 0.296126 0.195663 -0.849920
H25   H     H_    0.755215 0.243967 0.142946 0.244383
H26   H     H_    0.741790 0.341862 0.256127 0.219398
H27   H     H_    0.626445 0.238061 0.233322 0.259915
C42   C     C_3   0.313908 0.703853 0.804332 -0.849941
H28   H     H_    0.244747 0.755996 0.857046 0.244384
H29   H     H_    0.373518 0.761930 0.766676 0.259920
H30   H     H_    0.258205 0.658106 0.743864 0.219391

loop_
_geom_bond_atom_site_label_1
_geom_bond_atom_site_label_2
_geom_bond_distance
_ccdc_geom_bond_type
C35   C36   1.419256 A    
C24   C41   1.509550 S    
C20   C23   1.414236 A    
C27   C28   1.409628 A    
C42   H28   1.111145 S    
C25   C27   1.374541 A    
C15   C18   1.415318 A    
O5    C3    1.284151 A    
C16   C17   1.415318 A    
O1    C1    1.284506 A    
C9    C11   1.416413 A    
C14   C16   1.396632 A    
C12   C40   1.515212 S    
C5    C15   1.410536 A    
C6    H2    1.082378 S    
O4    Zn1   2.005274 S    
N3    O10   1.300561 A    
C10   C37   1.508390 S    
C37   H14   1.109484 S    
C21   C28   1.397059 A    
C30   N4    1.437140 S    
C26   H5    1.086827 S    
C29   C31   1.403779 A    
C30   C32   1.403767 A    
C22   H8    1.085255 S    
C13   C17   1.411549 A    
C37   H13   1.110526 S    
C26   C28   1.374541 A    
C29   N3    1.437157 S    
C22   C27   1.397062 A    
O2    C2    1.284507 A    
C5    H1    1.082380 S    
C33   C35   1.413462 A    
C6    C16   1.410535 A    
N2    C33   1.360107 A    
C34   C36   1.413470 A    
N2    C31   1.356749 A    
C19   C26   1.392404 A    
C4    C17   1.460925 S    
C20   C25   1.392400 A    
O4    C2    1.280131 A    
C40   H23   1.108153 S    
O7    Zn2   1.953103 S    
Zn2   N2    2.001942 S    
C38   H17   1.110085 S    
C37   H15   1.110096 S    
C39   H19   1.109727 S    
C32   H11   1.082262 S    
O7    C3    1.296101 A    
C41   H25   1.111158 S    
O6    C4    1.284151 A    
C38   H18   1.109483 S    
C1    C20   1.431459 S    
C39   H20   1.109523 S    
N1    C32   1.356748 A    
O3    Zn2   2.005274 S    
O8    C4    1.296100 A    
N1    C34   1.360111 A    
N4    O12   1.300616 A    
C41   H26   1.110744 S    
C10   C12   1.416414 A    
C11   C13   1.430730 A    
C7    H3    1.082944 S    
C12   C14   1.430727 A    
O1    Zn1   1.969749 S    
C21   H7    1.085251 S    
Zn1   N1    2.001941 S    
C5    C7    1.390091 A    
O6    Zn2   1.967166 S    
C21   C23   1.392055 A    
C23   C42   1.509536 S    
C14   C18   1.411544 A    
N4    O11   1.301414 A    
O3    C1    1.280131 A    
O8    Zn1   1.953102 S    
C40   H24   1.109522 S    
C33   H10   1.079331 S    
C25   H6    1.086824 S    
C29   C36   1.419043 A    
C11   C39   1.515212 S    
C30   C35   1.419025 A    
C2    C19   1.431462 S    
C22   C24   1.392055 A    
C3    C18   1.460924 S    
C7    C9    1.397967 A    
C9    C38   1.508391 S    
C8    C10   1.397966 A    
C13   C15   1.396633 A    
N3    O9    1.301248 A    
O2    Zn2   1.969749 S    
C39   H21   1.108153 S    
C40   H22   1.109725 S    
O5    Zn1   1.967167 S    
C41   H27   1.110253 S    
C8    H4    1.082946 S    
C6    C8    1.390093 A    
C38   H16   1.110520 S    
C42   H30   1.110732 S    
C42   H29   1.110241 S    
C19   C24   1.414244 A    
C31   H12   1.082261 S    
C34   H9    1.079323 S    
