data_mof_unit_27338.cif
_audit_creation_date              2012-12-10T18:18:20-0500
_audit_creation_method            fapswitch 2.2
_symmetry_space_group_name_H-M    P1
_symmetry_Int_Tables_number       1
_space_group_crystal_system       triclinic
_cell_length_a                    14.017308
_cell_length_b                    15.016325
_cell_length_c                    15.347995
_cell_angle_alpha                 89.849003
_cell_angle_beta                  66.957856
_cell_angle_gamma                 89.907744
_cell_volume                      2972.82043472

loop_
_atom_site_label
_atom_site_type_symbol
_atom_type_description
_atom_site_fract_x
_atom_site_fract_y
_atom_site_fract_z
_atom_type_partial_charge
C1    C     C_R   0.499896 0.673481 0.500095 0.877833
C2    C     C_R   0.499775 0.326495 0.500611 0.904406
C3    C     C_R   0.384813 0.475339 0.108711 -0.202814
C4    C     C_R   0.618634 0.482466 0.889514 -0.207510
C5    C     C_R   0.306348 0.461516 0.074395 0.142048
C6    C     C_R   0.698080 0.478101 0.923607 0.151651
C7    C     C_R   0.580260 0.184777 0.512407 -0.228265
C8    C     C_R   0.416644 0.815139 0.493794 -0.236712
C9    C     C_R   0.498653 0.230650 0.502558 -0.081196
C10   C     C_R   0.499318 0.769268 0.501602 -0.077687
C11   C     C_R   0.415334 0.185334 0.495102 -0.256879
C12   C     C_R   0.581286 0.814521 0.511611 -0.265953
C13   C     C_R   0.412976 0.092711 0.495596 0.095453
C14   C     C_R   0.582007 0.907123 0.514221 0.096385
C15   C     C_R   0.496799 0.046291 0.505010 0.020232
C16   C     C_R   0.498037 0.953564 0.505109 0.020886
C17   C     C_R   0.579884 0.092793 0.513894 0.099681
C18   C     C_R   0.415403 0.907075 0.495383 0.099003
C19   C     C_R   0.329670 0.045265 0.486964 0.172392
C20   C     C_R   0.664286 0.954526 0.524788 0.169694
C21   C     C_R   0.332468 0.952456 0.486939 -0.260843
C22   C     C_R   0.661923 0.047369 0.524019 -0.258151
C23   C     C_R   0.434969 0.501681 0.676755 0.884102
C24   C     C_R   0.565053 0.502374 0.323110 0.886738
C25   C     C_R   0.184818 0.430174 0.539817 -0.060675
C26   C     C_R   0.814588 0.570519 0.461606 -0.064878
C27   C     C_R   0.218082 0.570474 0.461672 -0.073074
C28   C     C_R   0.781154 0.430413 0.540122 -0.069367
C29   C     C_R   0.117244 0.572905 0.462230 0.018226
C30   C     C_R   0.881120 0.428989 0.541644 0.009000
C31   C     C_R   0.049706 0.501000 0.502078 0.083020
C32   C     C_R   0.948577 0.500973 0.501972 0.080698
C33   C     C_R   0.083443 0.428912 0.541585 0.013672
C34   C     C_R   0.915061 0.572804 0.461933 0.012418
C35   C     C_R   0.082764 0.644852 0.423388 -0.217568
C36   C     C_R   0.915013 0.357714 0.581847 -0.204027
C37   C     C_R   0.982606 0.644746 0.423127 -0.200854
C38   C     C_R   0.015337 0.357616 0.581701 -0.190907
C39   C     C_R   0.392279 0.501098 0.779952 -0.177567
C40   C     C_R   0.607779 0.504703 0.219638 -0.181795
C41   C     C_R   0.267456 0.441514 0.927825 0.252937
C42   C     C_R   0.736386 0.453344 0.069293 0.249914
C43   C     C_R   0.300162 0.455703 0.830429 -0.228875
C44   C     C_R   0.702580 0.463425 0.167441 -0.230252
C45   C     C_R   0.452747 0.533437 0.826736 0.104242
C46   C     C_R   0.545624 0.535985 0.173585 0.109651
C47   C     C_R   0.434453 0.498383 0.916918 0.037933
C48   C     C_R   0.566804 0.504075 0.081879 0.037691
C49   C     C_R   0.333462 0.466898 0.974648 -0.017241
C50   C     C_R   0.670056 0.479550 0.023338 -0.008588
C51   C     C_R   0.514097 0.493873 0.950693 0.036319
C52   C     C_R   0.487735 0.494094 0.047875 0.029619
H1    H     H_    0.211855 0.375561 0.570339 0.135158
H2    H     H_    0.787727 0.624961 0.430721 0.134509
H3    H     H_    0.271281 0.624859 0.430697 0.127839
H4    H     H_    0.727982 0.375983 0.570978 0.135151
H5    H     H_    0.133560 0.700812 0.392472 0.140919
H6    H     H_    0.864089 0.301912 0.613095 0.141854
H7    H     H_    0.958139 0.700754 0.392257 0.142037
H8    H     H_    0.039743 0.301671 0.612709 0.146121
H9    H     H_    0.748790 0.436062 0.203542 0.201216
H10   H     H_    0.254760 0.428969 0.793377 0.197151
H11   H     H_    0.367918 0.463583 0.182573 0.166602
H12   H     H_    0.638051 0.471096 0.815080 0.156443
H13   H     H_    0.644221 0.220607 0.519059 0.153573
H14   H     H_    0.353323 0.779356 0.485894 0.152857
H15   H     H_    0.353163 0.223254 0.488191 0.172436
H16   H     H_    0.644034 0.776556 0.517371 0.172674
H17   H     H_    0.269860 0.915165 0.479487 0.142809
H18   H     H_    0.724369 0.084686 0.531726 0.143649
N1    N     N_R   0.249980 0.499930 0.499960 -0.097539
N2    N     N_R   0.750020 0.500070 0.500040 -0.098878
O1    O     O_R   0.419720 0.632140 0.499980 -0.630725
O2    O     O_R   0.580280 0.367860 0.500020 -0.623909
O3    O     O_R   0.580270 0.632160 0.499970 -0.635722
O4    O     O_R   0.419730 0.367840 0.500030 -0.629071
O5    O     O_R   0.373870 0.499980 0.632250 -0.600744
O6    O     O_R   0.626130 0.500020 0.367750 -0.600433
O7    O     O_R   0.534420 0.500000 0.632240 -0.618434
O8    O     O_R   0.465580 0.500000 0.367760 -0.615695
Zn1   Zn    Zn3+2 0.392800 0.499980 0.500010 0.938844
Zn2   Zn    Zn3+2 0.607200 0.500020 0.499990 0.937685
C53   C     C_3   0.194876 0.448108 0.144560 -0.344298
C54   C     C_3   0.169173 0.483909 0.244541 -0.890299
H19   H     H_    0.203238 0.440936 0.283935 0.256142
H20   H     H_    0.197392 0.553387 0.241532 0.266366
H21   H     H_    0.083792 0.483644 0.284332 0.271754
H22   H     H_    0.142689 0.484815 0.118151 0.248212
H23   H     H_    0.176020 0.375996 0.150187 0.249269
C55   C     C_3   0.809994 0.480758 0.852044 -0.347718
C56   C     C_3   0.828949 0.549455 0.772907 -0.884133
H24   H     H_    0.793903 0.527860 0.723008 0.253254
H25   H     H_    0.796707 0.615290 0.803225 0.267170
H26   H     H_    0.913641 0.556784 0.731577 0.264823
H27   H     H_    0.862116 0.501314 0.886955 0.252411
H28   H     H_    0.833210 0.413742 0.820202 0.234665
C57   C     C_3   0.468276 0.612031 0.216721 -0.373888
C58   C     C_3   0.482517 0.688946 0.147240 -0.870279
H29   H     H_    0.565115 0.709726 0.115310 0.266717
H30   H     H_    0.456521 0.669644 0.090384 0.264844
H31   H     H_    0.434964 0.746684 0.185327 0.247091
H32   H     H_    0.386887 0.588901 0.244093 0.201893
H33   H     H_    0.480046 0.641347 0.278160 0.206748
C59   C     C_3   0.524621 0.613508 0.785948 -0.362901
C60   C     C_3   0.505069 0.688841 0.857765 -0.867081
H34   H     H_    0.421109 0.705105 0.890603 0.266548
H35   H     H_    0.532871 0.670355 0.913774 0.264558
H36   H     H_    0.548083 0.749254 0.821440 0.248557
H37   H     H_    0.607512 0.594700 0.757536 0.208021
H38   H     H_    0.510764 0.642862 0.725386 0.207747
Br1   Br    Br    0.145245 0.368592 0.980935 -0.503233
Br2   Br    Br    0.856697 0.378744 0.012586 -0.495251
C61   C     C_3   0.237155 0.090272 0.477409 -0.426679
C62   C     C_3   0.263545 0.123253 0.376388 -0.840724
H39   H     H_    0.194624 0.156310 0.372033 0.251971
H40   H     H_    0.328318 0.171799 0.354476 0.260194
H41   H     H_    0.285852 0.066177 0.326483 0.263570
H42   H     H_    0.171306 0.042855 0.495324 0.206254
H43   H     H_    0.207818 0.145706 0.528801 0.196709
C63   C     C_3   0.755418 0.909359 0.536807 -0.418185
C64   C     C_3   0.725178 0.873328 0.637294 -0.855322
H44   H     H_    0.699418 0.928790 0.689102 0.265170
H45   H     H_    0.661731 0.823756 0.655188 0.256082
H46   H     H_    0.793324 0.840579 0.643511 0.251505
H47   H     H_    0.787588 0.855494 0.483901 0.193475
H48   H     H_    0.820149 0.957282 0.523006 0.205731

loop_
_geom_bond_atom_site_label_1
_geom_bond_atom_site_label_2
_ccdc_geom_bond_type
C59   H38   S    
C8    H14   S    
C27   C29   A    
C34   C37   A    
C26   N2    A    
C54   H21   S    
C57   C58   S    
C28   H4    S    
C27   N1    A    
C55   H27   S    
C47   C49   A    
C40   C46   A    
C12   H16   S    
C19   C21   A    
C54   H20   S    
C36   H6    S    
C59   H37   S    
C5    C53   S    
C27   H3    S    
C56   H25   S    
C19   C61   S    
C15   C16   A    
C18   C21   A    
C15   C17   A    
O1    Zn1   S    
C42   Br2   S    
C64   H46   S    
C61   H43   S    
C24   O8    A    
C31   C32   A    
C7    C17   A    
C31   C33   A    
C25   N1    A    
C40   C44   A    
C57   H32   S    
C2    O2    A    
C39   C45   A    
C48   C50   A    
C53   H22   S    
C26   C34   A    
C41   C43   A    
C5    C49   A    
C28   N2    A    
C42   C44   A    
O2    Zn2   S    
C26   H2    S    
C41   C49   A    
C59   C60   S    
C11   H15   S    
C62   H39   S    
C45   C47   A    
C53   H23   S    
C60   H36   S    
C46   C48   A    
C13   C19   A    
C4    C51   A    
C51   C52   A    
C1    O3    A    
C14   C20   A    
C54   H19   S    
C4    C6    A    
C56   H24   S    
C63   H47   S    
C39   C43   A    
C6    C55   S    
C23   O5    A    
C21   H17   S    
C32   C34   A    
C45   C59   S    
C7    H13   S    
C60   H35   S    
O6    Zn2   S    
C62   H40   S    
C53   C54   S    
O5    Zn1   S    
C16   C18   A    
C37   H7    S    
C6    C50   A    
C9    C11   A    
C64   H44   S    
C57   H33   S    
C10   C12   A    
C42   C50   A    
C38   H8    S    
C24   O6    A    
C46   C57   S    
C12   C14   A    
C58   H30   S    
C13   C15   A    
C14   C16   A    
C20   C63   S    
C2    O4    A    
C63   C64   S    
C61   C62   S    
C7    C9    A    
C4    H12   S    
C35   C37   A    
C1    C10   S    
C33   C38   A    
C20   C22   A    
O8    Zn1   S    
C3    C5    A    
O4    Zn1   S    
O7    Zn2   S    
C47   C51   A    
C3    C52   A    
O3    Zn2   S    
C55   H28   S    
C3    H11   S    
C44   H9    S    
C58   H31   S    
C60   H34   S    
C29   C35   A    
C17   C22   A    
C30   C36   A    
C35   H5    S    
C1    O1    A    
C36   C38   A    
C29   C31   A    
C56   H26   S    
C30   C32   A    
C11   C13   A    
C55   C56   S    
C23   C39   S    
C28   C30   A    
C24   C40   S    
C63   H48   S    
C8    C18   A    
C64   H45   S    
C62   H41   S    
C61   H42   S    
C48   C52   A    
C8    C10   A    
C58   H29   S    
C41   Br1   S    
C23   O7    A    
C2    C9    S    
C22   H18   S    
N2    Zn2   S    
C25   H1    S    
C43   H10   S    
C25   C33   A    
N1    Zn1   S    
