data_mof_unit_41692.cif
_audit_creation_date              2012-10-26T21:00:15-0400
_audit_creation_method            fapswitch 2.2
_symmetry_space_group_name_H-M    P1
_symmetry_Int_Tables_number       1
_space_group_crystal_system       triclinic
_cell_length_a                    19.257319
_cell_length_b                    8.777932
_cell_length_c                    7.50486
_cell_angle_alpha                 103.161688
_cell_angle_beta                  94.625961
_cell_angle_gamma                 93.710479
_cell_volume                      1226.74927017

loop_
_atom_site_label
_atom_site_type_symbol
_atom_type_description
_atom_site_fract_x
_atom_site_fract_y
_atom_site_fract_z
_atom_type_partial_charge
C1    C     C_R   0.496978 0.200481 0.453881 0.532615
C2    C     C_R   0.810113 0.372352 0.389623 0.238514
C3    C     C_R   0.146216 0.498527 0.504045 -0.005630
C4    C     C_R   0.853784 0.501475 0.495954 -0.005631
C5    C     C_R   0.175340 0.369162 0.397586 0.197766
C6    C     C_R   0.824660 0.630838 0.602418 0.197766
C7    C     C_R   0.248127 0.369240 0.396998 -0.058048
C8    C     C_R   0.751873 0.630759 0.603007 -0.058048
C9    C     C_R   0.291832 0.498359 0.503768 -0.053502
C10   C     C_R   0.708168 0.501641 0.496232 -0.053502
C11   C     C_R   0.929845 0.500485 0.497905 0.407337
C12   C     C_R   0.503021 0.799519 0.546119 0.532616
C13   C     C_R   0.070155 0.499517 0.502094 0.407338
C14   C     C_1   0.277738 0.234902 0.289017 0.337810
C15   C     C_1   0.722262 0.765096 0.710993 0.337809
C16   C     C_1   0.449552 0.946810 0.259942 0.299865
C17   C     C_1   0.550449 0.053190 0.740058 0.299863
C18   C     C_2   0.488572 0.033524 0.431146 -0.043523
C19   C     C_2   0.511428 0.966475 0.568854 -0.043523
C20   C     C_R   0.367842 0.499741 0.501419 0.561598
C21   C     C_R   0.632158 0.500259 0.498580 0.561597
C22   C     C_R   0.262639 0.627715 0.609686 0.240169
C23   C     C_R   0.737361 0.372287 0.390310 0.240169
C24   C     C_R   0.189887 0.627651 0.610372 0.238514
Cl1   Cl    Cl    0.316902 0.795002 0.732881 -0.436353
Cl2   Cl    Cl    0.683098 0.205001 0.267111 -0.436352
Cl3   Cl    Cl    0.153661 0.793766 0.737983 -0.338762
Cl4   Cl    Cl    0.846339 0.206239 0.262006 -0.338761
Cl5   Cl    Cl    0.120808 0.203469 0.269604 -0.368533
Cl6   Cl    Cl    0.879192 0.796530 0.730406 -0.368533
Cl7   Cl    Cl    0.415949 0.322681 0.908201 -0.407650
Cl8   Cl    Cl    0.584051 0.677318 0.091799 -0.407651
Cu1   Cu    Cu3+1 0.507710 0.517380 0.684380 1.214067
Cu2   Cu    Cu3+1 0.492290 0.482620 0.315620 1.214068
N1    N     N_R   0.029796 0.485171 0.341512 -0.107994
N2    N     N_1   0.581337 0.121928 0.876395 -0.128491
N3    N     N_R   0.970204 0.514832 0.658487 -0.107993
N4    N     N_R   0.960705 0.485651 0.339428 -0.112614
N5    N     N_R   0.039295 0.514351 0.660571 -0.112614
N6    N     N_2   0.480680 0.456420 0.038530 0.068508
N7    N     N_2   0.519320 0.543580 0.961470 0.068508
N8    N     N_1   0.301289 0.127589 0.202499 -0.139019
N9    N     N_1   0.698711 0.872407 0.797515 -0.139013
N10   N     N_1   0.418665 0.878072 0.123604 -0.128492
O1    O     O_R   0.505010 0.286130 0.619770 -0.493413
O2    O     O_R   0.494990 0.713870 0.380230 -0.493414
O3    O     O_R   0.491990 0.256780 0.308370 -0.471807
O4    O     O_R   0.508010 0.743220 0.691630 -0.471807
O5    O     O_R   0.406650 0.514660 0.655750 -0.439864
O6    O     O_R   0.593350 0.485340 0.344250 -0.439864
O7    O     O_R   0.393640 0.485310 0.344340 -0.493048
O8    O     O_R   0.606360 0.514690 0.655660 -0.493049

loop_
_geom_bond_atom_site_label_1
_geom_bond_atom_site_label_2
_ccdc_geom_bond_type
C11   N4    A    
C2    C4    A    
Cl8   N7    S    
C20   O5    A    
Cu2   O2    S    
C17   N2    T    
C10   C23   A    
C8    C15   S    
Cu1   O1    S    
C16   N10   T    
C9    C20   S    
C3    C13   S    
C24   Cl3   S    
C12   O4    A    
C14   N8    T    
Cu1   N7    S    
C3    C5    A    
Cu1   Cu2   S    
Cu2   O7    S    
C15   N9    T    
N3    N5    A    
C4    C11   S    
C1    O1    A    
C1    C18   S    
Cu2   N6    S    
C12   C19   S    
C16   C18   S    
N6    N7    D    
C17   C19   S    
C13   N1    A    
C20   O7    A    
C5    Cl5   S    
C7    C14   S    
C10   C21   S    
C22   C24   A    
C9    C22   A    
C13   N5    A    
C4    C6    A    
Cu2   O6    S    
Cu1   O5    S    
C7    C9    A    
C21   O8    A    
N1    N4    A    
Cl7   N6    S    
C11   N3    A    
C18   C19   D    
C23   Cl2   S    
C2    C23   A    
C5    C7    A    
Cu1   O4    S    
C2    Cl4   S    
C1    O3    A    
C12   O2    A    
C6    C8    A    
Cu2   O3    S    
C21   O6    A    
C6    Cl6   S    
C8    C10   A    
C3    C24   A    
Cu1   O8    S    
C22   Cl1   S    
