data_mof_unit_33384.cif
_audit_creation_date              2012-12-10T18:23:50-0500
_audit_creation_method            fapswitch 2.2
_symmetry_space_group_name_H-M    P1
_symmetry_Int_Tables_number       1
_space_group_crystal_system       triclinic
_cell_length_a                    22.540346
_cell_length_b                    22.349346
_cell_length_c                    14.67851
_cell_angle_alpha                 90.801415
_cell_angle_beta                  89.97347
_cell_angle_gamma                 90.033634
_cell_volume                      7393.75005834

loop_
_atom_site_label
_atom_site_type_symbol
_atom_type_description
_atom_site_fract_x
_atom_site_fract_y
_atom_site_fract_z
_atom_type_partial_charge
C1    C     C_R   0.420506 0.919280 0.499473 0.825271
C2    C     C_R   0.579859 0.080443 0.500340 0.822717
C3    C     C_R   0.579737 0.919551 0.499639 0.825541
C4    C     C_R   0.419906 0.080263 0.500290 0.822131
C5    C     C_R   0.920506 0.419280 0.499473 0.825267
C6    C     C_R   0.079858 0.580444 0.500340 0.822715
C7    C     C_R   0.079736 0.419551 0.499639 0.825541
C8    C     C_R   0.919906 0.580262 0.500290 0.822133
C9    C     C_1   0.338832 0.163827 0.499861 0.166089
C10   C     C_1   0.662081 0.837802 0.497645 0.087437
C11   C     C_1   0.660178 0.164603 0.500224 0.151108
C12   C     C_1   0.339178 0.836376 0.496093 0.086033
C13   C     C_1   0.838829 0.663825 0.499864 0.166081
C14   C     C_1   0.162082 0.337804 0.497645 0.087425
C15   C     C_1   0.160175 0.664606 0.500225 0.151109
C16   C     C_1   0.839181 0.336373 0.496091 0.086029
C17   C     C_1   0.500803 0.997839 0.194797 0.254689
C18   C     C_1   0.500920 0.000551 0.805376 0.218861
C19   C     C_1   0.000802 0.497839 0.194797 0.254695
C20   C     C_1   0.000920 0.500551 0.805376 0.218869
C21   C     C_3   0.540082 0.041297 0.975139 0.256929
C22   C     C_3   0.464272 0.954868 0.026037 0.333008
C23   C     C_3   0.484744 0.050124 0.035750 0.313079
C24   C     C_3   0.519525 0.945701 0.964949 0.353034
C25   C     C_3   0.040074 0.541302 0.975140 0.256937
C26   C     C_3   0.964278 0.454860 0.026036 0.332991
C27   C     C_3   0.984734 0.550119 0.035749 0.313097
C28   C     C_3   0.019533 0.445703 0.964949 0.353041
C29   C     C_3   0.698771 0.725971 0.508675 0.333840
C30   C     C_3   0.305590 0.278120 0.486995 0.253906
C31   C     C_3   0.301054 0.723939 0.493810 0.341072
C32   C     C_3   0.694895 0.279130 0.498562 0.271885
C33   C     C_3   0.198777 0.225976 0.508688 0.333838
C34   C     C_3   0.805586 0.778118 0.487012 0.253913
C35   C     C_3   0.801057 0.223935 0.493797 0.341068
C36   C     C_3   0.194891 0.779133 0.498556 0.271882
C37   C     C_3   0.242665 0.212848 0.430436 0.318327
C38   C     C_3   0.760836 0.792130 0.565256 0.223535
C39   C     C_3   0.754481 0.218100 0.569881 0.308737
C40   C     C_3   0.242369 0.785792 0.422592 0.238574
C41   C     C_3   0.742666 0.712849 0.430430 0.318326
C42   C     C_3   0.260846 0.292139 0.565246 0.223527
C43   C     C_3   0.254474 0.718108 0.569888 0.308735
C44   C     C_3   0.742368 0.285792 0.422593 0.238581
C45   C     C_1   0.375854 0.125543 0.500481 -0.146235
C46   C     C_1   0.624122 0.874945 0.498801 -0.163582
C47   C     C_1   0.623411 0.126120 0.500783 -0.174602
C48   C     C_1   0.376781 0.873944 0.497848 -0.164363
C49   C     C_1   0.875853 0.625541 0.500482 -0.146233
C50   C     C_1   0.124122 0.374946 0.498800 -0.163582
C51   C     C_1   0.123409 0.626122 0.500784 -0.174606
C52   C     C_1   0.876782 0.373942 0.497847 -0.164366
C53   C     C_3   0.250325 0.224476 0.577084 0.324775
C54   C     C_3   0.753745 0.780421 0.417824 0.242918
C55   C     C_3   0.751557 0.217386 0.422130 0.327853
C56   C     C_3   0.244311 0.786504 0.571196 0.231641
C57   C     C_3   0.750314 0.724466 0.577081 0.324786
C58   C     C_3   0.253742 0.280420 0.417817 0.242921
C59   C     C_3   0.251557 0.717386 0.422137 0.327853
C60   C     C_3   0.744317 0.286496 0.571197 0.231644
C61   C     C_3   0.293994 0.210382 0.499119 -0.227056
C62   C     C_3   0.708912 0.793638 0.496285 -0.292652
C63   C     C_3   0.705285 0.210748 0.498151 -0.231054
C64   C     C_3   0.292038 0.792448 0.495134 -0.297537
C65   C     C_3   0.793990 0.710378 0.499123 -0.227071
C66   C     C_3   0.208916 0.293642 0.496286 -0.292659
C67   C     C_3   0.205282 0.710751 0.498154 -0.231052
C68   C     C_3   0.792042 0.292444 0.495131 -0.297541
C69   C     C_3   0.556433 0.985343 0.032009 0.278252
C70   C     C_3   0.447704 0.010190 0.969817 0.285577
C71   C     C_3   0.056434 0.485351 0.032010 0.278260
C72   C     C_3   0.947701 0.510179 0.969815 0.285559
C73   C     C_3   0.501094 0.994823 0.093158 -0.304206
C74   C     C_3   0.502775 0.001133 0.907389 -0.330536
C75   C     C_3   0.001093 0.494822 0.093158 -0.304201
C76   C     C_3   0.002775 0.501132 0.907389 -0.330541
Cu1   Cu    Cu3+1 0.500000 1.000000 0.590220 0.976897
Cu2   Cu    Cu3+1 0.500000 1.000000 0.409780 0.981549
Cu3   Cu    Cu3+1 1.000000 0.500000 0.590220 0.976896
Cu4   Cu    Cu3+1 1.000000 0.500000 0.409780 0.981543
N1    N     N_1   0.499980 1.000000 0.274190 -0.165378
N2    N     N_1   0.500020 1.000000 0.725810 -0.162733
N3    N     N_1   0.999980 0.500000 0.274190 -0.165380
N4    N     N_1   0.000020 0.500000 0.725810 -0.162734
O1    O     O_R   0.439540 0.939530 0.576170 -0.559431
O2    O     O_R   0.560460 0.060470 0.423830 -0.564177
O3    O     O_R   0.560460 0.939530 0.423830 -0.577036
O4    O     O_R   0.439540 0.060470 0.576170 -0.577406
O5    O     O_R   0.939540 0.439530 0.576170 -0.559433
O6    O     O_R   0.060460 0.560470 0.423830 -0.564175
O7    O     O_R   0.060460 0.439530 0.423830 -0.577040
O8    O     O_R   0.939540 0.560470 0.576170 -0.577405
O9    O     O_R   0.439530 0.939530 0.423800 -0.590225
O10   O     O_R   0.560470 0.060470 0.576200 -0.580477
O11   O     O_R   0.560470 0.939530 0.576200 -0.572069
O12   O     O_R   0.439530 0.060470 0.423800 -0.550318
O13   O     O_R   0.939530 0.439530 0.423800 -0.590224
O14   O     O_R   0.060470 0.560470 0.576200 -0.580478
O15   O     O_R   0.060470 0.439530 0.576200 -0.572064
O16   O     O_R   0.939530 0.560470 0.423800 -0.550319
O17   O     O_3   0.391087 0.024520 0.935285 -0.610147
C77   C     C_3   0.348422 0.023357 0.005693 0.083224
H1    H     H_    0.364869 0.045052 0.069686 0.154360
H2    H     H_    0.335926 0.976316 0.020018 0.189083
C78   C     C_3   0.293011 0.056628 0.974644 -0.353010
H3    H     H_    0.305131 0.103091 0.956063 0.220060
H4    H     H_    0.274203 0.033745 0.913415 0.232686
C79   C     C_3   0.246190 0.058965 0.049702 -0.920414
H5    H     H_    0.233151 0.013007 0.069555 0.261268
H6    H     H_    0.206259 0.082785 0.024876 0.267526
H7    H     H_    0.263784 0.083399 0.110318 0.261085
O18   O     O_3   0.611878 0.967718 0.068369 -0.615572
C80   C     C_3   0.659088 0.992352 0.017861 0.089183
H8    H     H_    0.665939 0.039776 0.039037 0.200523
H9    H     H_    0.650551 0.989761 0.943196 0.129000
C81   C     C_3   0.716286 0.958232 0.037305 -0.376488
H10   H     H_    0.728645 0.964773 0.109866 0.234123
H11   H     H_    0.709462 0.909635 0.024217 0.220481
C82   C     C_3   0.767094 0.980284 0.977702 -0.920613
H12   H     H_    0.756244 0.973331 0.904513 0.250859
H13   H     H_    0.808088 0.954929 0.993429 0.269500
H14   H     H_    0.775433 0.028633 0.990901 0.260739
O19   O     O_3   0.891084 0.524500 0.935277 -0.610166
C83   C     C_3   0.848414 0.523315 0.005674 0.083228
H15   H     H_    0.864847 0.545010 0.069675 0.154302
H16   H     H_    0.835932 0.476267 0.019986 0.189121
C84   C     C_3   0.792993 0.556569 0.974618 -0.353024
H17   H     H_    0.805093 0.603049 0.956099 0.220028
H18   H     H_    0.774215 0.533705 0.913351 0.232709
C85   C     C_3   0.746147 0.558841 0.049643 -0.920369
H19   H     H_    0.733086 0.512864 0.069364 0.261278
H20   H     H_    0.706232 0.582704 0.024848 0.267522
H21   H     H_    0.763730 0.583201 0.110334 0.261050
O20   O     O_3   0.111882 0.467736 0.068372 -0.615571
C86   C     C_3   0.159088 0.492371 0.017858 0.089181
H22   H     H_    0.165936 0.539796 0.039027 0.200513
H23   H     H_    0.150550 0.489775 0.943194 0.128988
C87   C     C_3   0.216289 0.458256 0.037303 -0.376463
H24   H     H_    0.228654 0.464808 0.109860 0.234111
H25   H     H_    0.209466 0.409657 0.024234 0.220487
C88   C     C_3   0.267092 0.480299 0.977682 -0.920631
H26   H     H_    0.256238 0.473330 0.904498 0.250860
H27   H     H_    0.308089 0.454952 0.993416 0.269501
H28   H     H_    0.275427 0.528652 0.990856 0.260736
O21   O     O_3   0.234866 0.167759 0.363167 -0.569678
C89   C     C_3   0.195497 0.187039 0.294768 0.159483
H29   H     H_    0.221873 0.206293 0.238250 0.174455
H30   H     H_    0.163132 0.221443 0.319198 0.165692
C90   C     C_3   0.160544 0.133176 0.258631 -0.329573
H31   H     H_    0.191785 0.097840 0.234905 0.219164
H32   H     H_    0.133142 0.114592 0.314506 0.267076
C91   C     C_3   0.120069 0.150519 0.180000 -0.901602
H33   H     H_    0.087479 0.184824 0.203006 0.272886
H34   H     H_    0.095514 0.110429 0.155141 0.268792
H35   H     H_    0.146659 0.168523 0.122827 0.250191
O22   O     O_3   0.767296 0.829593 0.643078 -0.596640
C92   C     C_3   0.781752 0.888527 0.617960 0.147750
H36   H     H_    0.757043 0.903212 0.556765 0.130133
H37   H     H_    0.830141 0.891531 0.605072 0.220829
C93   C     C_3   0.766364 0.931369 0.696545 -0.412832
H38   H     H_    0.718267 0.928337 0.711941 0.220016
H39   H     H_    0.791561 0.918490 0.758315 0.232939
C94   C     C_3   0.780953 0.996069 0.673248 -0.849728
H40   H     H_    0.829176 0.001124 0.659753 0.273165
H41   H     H_    0.768579 0.025684 0.731511 0.245679
H42   H     H_    0.755510 0.010171 0.612393 0.270361
O23   O     O_3   0.759124 0.178307 0.643399 -0.589628
C95   C     C_3   0.794947 0.203012 0.713130 0.152994
H43   H     H_    0.767490 0.232932 0.757123 0.179343
H44   H     H_    0.833265 0.228776 0.685953 0.181716
C96   C     C_3   0.818759 0.152367 0.771482 -0.361140
H45   H     H_    0.780944 0.127294 0.801119 0.213113
H46   H     H_    0.845154 0.121114 0.728048 0.260025
C97   C     C_3   0.857823 0.176296 0.848655 -0.876905
H47   H     H_    0.896654 0.200550 0.820645 0.277604
H48   H     H_    0.874129 0.138410 0.889872 0.261434
H49   H     H_    0.832056 0.207064 0.893672 0.255503
O24   O     O_3   0.236234 0.815295 0.338528 -0.592592
C98   C     C_3   0.237611 0.878190 0.349293 0.178703
H50   H     H_    0.243940 0.894193 0.420523 0.137483
H51   H     H_    0.194334 0.896175 0.326046 0.189321
C99   C     C_3   0.286940 0.903519 0.289336 -0.413282
H52   H     H_    0.330020 0.882858 0.307915 0.235421
H53   H     H_    0.277610 0.892146 0.216777 0.222013
C100  C     C_3   0.292007 0.971367 0.300117 -0.867115
H54   H     H_    0.249570 0.993138 0.281117 0.258447
H55   H     H_    0.327630 0.988135 0.254800 0.251986
H56   H     H_    0.303318 0.983659 0.371641 0.261165
O25   O     O_3   0.734873 0.667764 0.363153 -0.569680
C101  C     C_3   0.695508 0.687048 0.294750 0.159490
H57   H     H_    0.721888 0.706301 0.238237 0.174462
H58   H     H_    0.663144 0.721453 0.319177 0.165680
C102  C     C_3   0.660553 0.633188 0.258608 -0.329544
H59   H     H_    0.691793 0.597848 0.234893 0.219143
H60   H     H_    0.633142 0.614608 0.314476 0.267076
C103  C     C_3   0.620089 0.650533 0.179963 -0.901625
H61   H     H_    0.587502 0.684844 0.202956 0.272878
H62   H     H_    0.595531 0.610445 0.155102 0.268791
H63   H     H_    0.646689 0.668529 0.122794 0.250191
O26   O     O_3   0.267316 0.329606 0.643062 -0.596622
C104  C     C_3   0.281758 0.388541 0.617930 0.147683
H64   H     H_    0.257009 0.403229 0.556772 0.130107
H65   H     H_    0.330138 0.391546 0.604971 0.220841
C105  C     C_3   0.266420 0.431380 0.696542 -0.412797
H66   H     H_    0.218335 0.428341 0.712023 0.220011
H67   H     H_    0.291665 0.418505 0.758268 0.232951
C106  C     C_3   0.280980 0.496083 0.673220 -0.849676
H68   H     H_    0.329192 0.501145 0.659636 0.273191
H69   H     H_    0.268647 0.525695 0.731507 0.245678
H70   H     H_    0.255487 0.510181 0.612413 0.270330
O27   O     O_3   0.259115 0.678319 0.643412 -0.589630
C107  C     C_3   0.294932 0.703029 0.713146 0.153008
H71   H     H_    0.267470 0.732948 0.757132 0.179345
H72   H     H_    0.333250 0.728794 0.685972 0.181712
C108  C     C_3   0.318745 0.652387 0.771505 -0.361153
H73   H     H_    0.280930 0.627311 0.801137 0.213111
H74   H     H_    0.345147 0.621137 0.728077 0.260022
C109  C     C_3   0.357800 0.676323 0.848684 -0.876912
H75   H     H_    0.396631 0.700580 0.820678 0.277602
H76   H     H_    0.374108 0.638440 0.889905 0.261433
H77   H     H_    0.332028 0.707089 0.893694 0.255504
O28   O     O_3   0.736228 0.315299 0.338534 -0.592590
C110  C     C_3   0.737612 0.378193 0.349302 0.178701
H78   H     H_    0.743943 0.394193 0.420534 0.137482
H79   H     H_    0.694338 0.396184 0.326056 0.189315
C111  C     C_3   0.786944 0.403517 0.289346 -0.413271
H80   H     H_    0.830022 0.382850 0.307922 0.235422
H81   H     H_    0.777613 0.392148 0.216786 0.222011
C112  C     C_3   0.792020 0.471365 0.300132 -0.867098
H82   H     H_    0.749587 0.493142 0.281135 0.258454
H83   H     H_    0.827646 0.488130 0.254817 0.251983
H84   H     H_    0.803333 0.483653 0.371658 0.261155
S1    S     S_3+6 0.628983 0.689692 0.523892 0.054861
O29   O     O_2   0.604643 0.705270 0.616486 -0.254302
O30   O     O_2   0.586184 0.709849 0.452117 -0.295902
O31   O     O_3   0.638782 0.615282 0.515094 -0.508629
H85   H     H_    0.598364 0.598101 0.519094 0.373982
S2    S     S_3+6 0.378122 0.308220 0.469926 0.018961
O32   O     O_2   0.413691 0.301283 0.555698 -0.278310
O33   O     O_2   0.407811 0.274468 0.393297 -0.229812
O34   O     O_3   0.373886 0.381013 0.443429 -0.592088
H86   H     H_    0.415619 0.394337 0.437693 0.387241
S3    S     S_3+6 0.370422 0.685758 0.487926 0.063409
O35   O     O_2   0.396318 0.692579 0.394290 -0.242208
O36   O     O_2   0.412370 0.711884 0.557387 -0.288103
O37   O     O_3   0.359307 0.612857 0.508954 -0.510135
H87   H     H_    0.399478 0.594925 0.509267 0.372797
S4    S     S_3+6 0.623607 0.313611 0.501269 0.027485
O38   O     O_2   0.588496 0.292753 0.419814 -0.260131
O39   O     O_2   0.591991 0.295994 0.586970 -0.246381
O40   O     O_3   0.630985 0.388409 0.499084 -0.587691
H88   H     H_    0.589886 0.404041 0.500686 0.384712
S5    S     S_3+6 0.128991 0.189695 0.523922 0.054858
O41   O     O_2   0.104658 0.205274 0.616520 -0.254318
O42   O     O_2   0.086185 0.209850 0.452155 -0.295891
O43   O     O_3   0.138790 0.115286 0.515124 -0.508628
H89   H     H_    0.098373 0.098104 0.519130 0.373981
S6    S     S_3+6 0.878118 0.808223 0.469964 0.018962
O44   O     O_2   0.913682 0.801272 0.555736 -0.278331
O45   O     O_2   0.907812 0.774486 0.393324 -0.229796
O46   O     O_3   0.873878 0.881021 0.443497 -0.592084
H90   H     H_    0.915611 0.894349 0.437771 0.387238
S7    S     S_3+6 0.870426 0.185755 0.487901 0.063402
O47   O     O_2   0.896315 0.192578 0.394261 -0.242225
O48   O     O_2   0.912378 0.211880 0.557357 -0.288098
O49   O     O_3   0.859312 0.112853 0.508927 -0.510126
H91   H     H_    0.899484 0.094921 0.509230 0.372802
S8    S     S_3+6 0.123604 0.813615 0.501251 0.027482
O50   O     O_2   0.088498 0.792755 0.419791 -0.260138
O51   O     O_2   0.091981 0.795997 0.586948 -0.246367
O52   O     O_3   0.130980 0.888413 0.499066 -0.587699
H92   H     H_    0.089881 0.904044 0.500662 0.384710
O53   O     O_3   0.756263 0.805056 0.329665 -0.596240
C113  C     C_3   0.753789 0.868228 0.332829 0.158178
H93   H     H_    0.792951 0.885689 0.295682 0.194236
H94   H     H_    0.755952 0.887973 0.402672 0.145710
C114  C     C_3   0.697626 0.889414 0.284360 -0.394973
H95   H     H_    0.701283 0.878871 0.210377 0.223868
H96   H     H_    0.658327 0.865205 0.310759 0.239784
C115  C     C_3   0.688162 0.956597 0.298015 -0.863789
H97   H     H_    0.681277 0.967475 0.371317 0.247593
H98   H     H_    0.648312 0.970898 0.259590 0.289446
H99   H     H_    0.727256 0.981857 0.273212 0.245701
O54   O     O_3   0.245960 0.194204 0.660571 -0.555754
C116  C     C_3   0.299163 0.199857 0.711039 0.127461
H100  H     H_    0.289451 0.225550 0.774663 0.164464
H101  H     H_    0.335437 0.224191 0.675246 0.168286
C117  C     C_3   0.321139 0.137518 0.735972 -0.359937
H102  H     H_    0.289278 0.116684 0.783823 0.224232
H103  H     H_    0.323514 0.108755 0.673851 0.238053
C118  C     C_3   0.382371 0.140400 0.779747 -0.907840
H104  H     H_    0.415056 0.160285 0.732248 0.270064
H105  H     H_    0.397385 0.094588 0.796205 0.293304
H106  H     H_    0.380434 0.167863 0.843212 0.242998
O55   O     O_3   0.239550 0.817926 0.655179 -0.605532
C119  C     C_3   0.239768 0.880585 0.643902 0.154095
H107  H     H_    0.196295 0.898371 0.667458 0.200775
H108  H     H_    0.245619 0.895109 0.572511 0.140744
C120  C     C_3   0.288872 0.907963 0.703209 -0.375264
H109  H     H_    0.279314 0.899016 0.776066 0.232425
H110  H     H_    0.331997 0.886679 0.685671 0.241967
C121  C     C_3   0.294050 0.975386 0.690016 -0.872748
H111  H     H_    0.305466 0.985288 0.618131 0.248708
H112  H     H_    0.329687 0.993569 0.734733 0.280198
H113  H     H_    0.251646 0.997869 0.708191 0.260807
O56   O     O_3   0.756990 0.179333 0.344854 -0.545771
C122  C     C_3   0.706403 0.183520 0.288075 0.143703
H114  H     H_    0.718785 0.208887 0.226325 0.177030
H115  H     H_    0.667926 0.206997 0.320382 0.165367
C123  C     C_3   0.686670 0.120507 0.259388 -0.410313
H116  H     H_    0.722532 0.098446 0.219233 0.232396
H117  H     H_    0.678393 0.093582 0.321174 0.240199
C124  C     C_3   0.630057 0.121828 0.202335 -0.814263
H118  H     H_    0.593411 0.143230 0.241513 0.275792
H119  H     H_    0.616536 0.075401 0.184322 0.276172
H120  H     H_    0.637624 0.146870 0.138530 0.260373
O57   O     O_3   0.256251 0.305052 0.329657 -0.596247
C125  C     C_3   0.253786 0.368225 0.332819 0.158182
H121  H     H_    0.292949 0.385680 0.295668 0.194245
H122  H     H_    0.255954 0.387970 0.402662 0.145709
C126  C     C_3   0.197624 0.389417 0.284354 -0.394960
H123  H     H_    0.201279 0.378878 0.210369 0.223870
H124  H     H_    0.158323 0.365211 0.310752 0.239787
C127  C     C_3   0.188166 0.456600 0.298016 -0.863796
H125  H     H_    0.181281 0.467476 0.371318 0.247590
H126  H     H_    0.148316 0.470906 0.259592 0.289446
H127  H     H_    0.227261 0.481858 0.273214 0.245701
O58   O     O_3   0.745941 0.694189 0.660563 -0.555751
C128  C     C_3   0.799140 0.699838 0.711043 0.127461
H128  H     H_    0.789421 0.725525 0.774671 0.164458
H129  H     H_    0.835416 0.724177 0.675263 0.168279
C129  C     C_3   0.821115 0.637497 0.735966 -0.359950
H130  H     H_    0.789250 0.616657 0.783804 0.224234
H131  H     H_    0.823497 0.608741 0.673839 0.238052
C130  C     C_3   0.882342 0.640376 0.779756 -0.907837
H132  H     H_    0.915030 0.660273 0.732273 0.270055
H133  H     H_    0.897357 0.594562 0.796199 0.293315
H134  H     H_    0.880396 0.667828 0.843232 0.243005
O59   O     O_3   0.739560 0.317914 0.655185 -0.605531
C131  C     C_3   0.739777 0.380574 0.643915 0.154090
H135  H     H_    0.696304 0.398357 0.667476 0.200774
H136  H     H_    0.745626 0.395102 0.572525 0.140747
C132  C     C_3   0.788882 0.407950 0.703220 -0.375247
H137  H     H_    0.779327 0.399000 0.776078 0.232419
H138  H     H_    0.832008 0.386668 0.685678 0.241968
C133  C     C_3   0.794059 0.475375 0.690035 -0.872777
H139  H     H_    0.805474 0.485280 0.618150 0.248713
H140  H     H_    0.829697 0.493556 0.734751 0.280204
H141  H     H_    0.751655 0.497857 0.708214 0.260794
O60   O     O_3   0.256993 0.679329 0.344865 -0.545771
C134  C     C_3   0.206409 0.683516 0.288080 0.143707
H142  H     H_    0.218796 0.708879 0.226329 0.177031
H143  H     H_    0.167931 0.706996 0.320380 0.165370
C135  C     C_3   0.186676 0.620502 0.259398 -0.410327
H144  H     H_    0.222537 0.598439 0.219246 0.232393
H145  H     H_    0.178397 0.593580 0.321186 0.240202
C136  C     C_3   0.130062 0.621823 0.202345 -0.814252
H146  H     H_    0.093417 0.643226 0.241520 0.275792
H147  H     H_    0.116541 0.575395 0.184334 0.276175
H148  H     H_    0.137630 0.646862 0.138538 0.260381
O61   O     O_3   0.467673 0.104541 0.078236 -0.586797
C137  C     C_3   0.448109 0.146254 0.013428 0.113703
H149  H     H_    0.399138 0.150366 0.018961 0.150576
H150  H     H_    0.458787 0.133575 0.941760 0.137601
C138  C     C_3   0.476208 0.207045 0.034745 -0.320072
H151  H     H_    0.462536 0.222267 0.104052 0.247326
H152  H     H_    0.525327 0.202678 0.033663 0.238364
C139  C     C_3   0.457524 0.253735 0.965530 -0.920916
H153  H     H_    0.472389 0.240155 0.896081 0.260247
H154  H     H_    0.478150 0.297463 0.983421 0.273543
H155  H     H_    0.408527 0.259094 0.965768 0.257287
O62   O     O_3   0.531754 0.887329 0.931809 -0.563742
C140  C     C_3   0.585949 0.885644 0.884080 0.046720
H156  H     H_    0.623180 0.886459 0.933360 0.164418
H157  H     H_    0.590436 0.923490 0.836071 0.124674
C141  C     C_3   0.589446 0.826848 0.829884 -0.328822
H158  H     H_    0.589331 0.788830 0.877933 0.226185
H159  H     H_    0.549990 0.822490 0.784834 0.254334
C142  C     C_3   0.645432 0.823722 0.771543 -0.794916
H160  H     H_    0.642298 0.856224 0.715275 0.258599
H161  H     H_    0.650160 0.778200 0.741406 0.311734
H162  H     H_    0.685437 0.833525 0.813364 0.242045
O63   O     O_3   0.580646 0.089082 0.965227 -0.618114
C143  C     C_3   0.578723 0.114777 0.878263 0.068461
H163  H     H_    0.585779 0.163651 0.888058 0.176958
H164  H     H_    0.535251 0.110152 0.843251 0.127804
C144  C     C_3   0.629133 0.089757 0.819214 -0.421834
H165  H     H_    0.670957 0.088893 0.859317 0.221759
H166  H     H_    0.618516 0.043200 0.797417 0.205743
C145  C     C_3   0.638978 0.127987 0.735473 -0.768778
H167  H     H_    0.670430 0.104864 0.688663 0.274798
H168  H     H_    0.657909 0.172081 0.755806 0.268260
H169  H     H_    0.596443 0.135507 0.699431 0.267681
O64   O     O_3   0.423705 0.907079 0.037493 -0.579455
C146  C     C_3   0.423000 0.885822 0.127480 0.049077
H170  H     H_    0.383000 0.857153 0.134134 0.169654
H171  H     H_    0.416705 0.922493 0.178229 0.125775
C147  C     C_3   0.477545 0.846972 0.147567 -0.349536
H172  H     H_    0.479113 0.808906 0.098085 0.247174
H173  H     H_    0.518946 0.873333 0.139929 0.237697
C148  C     C_3   0.475280 0.822601 0.244109 -0.827196
H174  H     H_    0.475749 0.860009 0.294630 0.272410
H175  H     H_    0.514635 0.793896 0.256104 0.264574
H176  H     H_    0.434562 0.795393 0.253874 0.277761
O65   O     O_3   0.967656 0.604535 0.078234 -0.586781
C149  C     C_3   0.948070 0.646238 0.013427 0.113681
H177  H     H_    0.899096 0.650309 0.018937 0.150577
H178  H     H_    0.958776 0.633575 0.941763 0.137607
C150  C     C_3   0.976117 0.707049 0.034771 -0.320035
H179  H     H_    0.962429 0.722248 0.104081 0.247340
H180  H     H_    0.025239 0.702724 0.033692 0.238344
C151  C     C_3   0.957395 0.753735 0.965572 -0.920929
H181  H     H_    0.972278 0.740181 0.896121 0.260257
H182  H     H_    0.977980 0.797480 0.983485 0.273547
H183  H     H_    0.908393 0.759049 0.965803 0.257269
O66   O     O_3   0.031773 0.387332 0.931809 -0.563737
C152  C     C_3   0.085968 0.385657 0.884078 0.046714
H184  H     H_    0.123198 0.386470 0.933357 0.164415
H185  H     H_    0.090451 0.423511 0.836079 0.124661
C153  C     C_3   0.089468 0.326869 0.829863 -0.328786
H186  H     H_    0.089355 0.288845 0.877900 0.226195
H187  H     H_    0.050012 0.322515 0.784811 0.254331
C154  C     C_3   0.145454 0.323755 0.771523 -0.794941
H188  H     H_    0.142321 0.356267 0.715269 0.258582
H189  H     H_    0.150183 0.278238 0.741366 0.311750
H190  H     H_    0.185458 0.333550 0.813350 0.242047
O67   O     O_3   0.080630 0.589095 0.965232 -0.618088
C155  C     C_3   0.078706 0.614788 0.878266 0.068473
H191  H     H_    0.085753 0.663663 0.888061 0.176959
H192  H     H_    0.035236 0.610156 0.843252 0.127794
C156  C     C_3   0.129121 0.589775 0.819222 -0.421834
H193  H     H_    0.170944 0.588919 0.859328 0.221760
H194  H     H_    0.118512 0.543216 0.797428 0.205738
C157  C     C_3   0.138961 0.628004 0.735478 -0.768765
H195  H     H_    0.170418 0.604884 0.688673 0.274802
H196  H     H_    0.157885 0.672101 0.755808 0.268257
H197  H     H_    0.096426 0.635515 0.699434 0.267678
O68   O     O_3   0.923722 0.407062 0.037492 -0.579465
C158  C     C_3   0.923016 0.385809 0.127481 0.049076
H198  H     H_    0.883021 0.357135 0.134134 0.169655
H199  H     H_    0.916714 0.422481 0.178225 0.125771
C159  C     C_3   0.977567 0.346969 0.147576 -0.349527
H200  H     H_    0.979141 0.308900 0.098099 0.247171
H201  H     H_    0.018964 0.373336 0.139936 0.237694
C160  C     C_3   0.975303 0.322603 0.244121 -0.827206
H202  H     H_    0.975766 0.360015 0.294637 0.272414
H203  H     H_    0.014663 0.293905 0.256123 0.264564
H204  H     H_    0.934589 0.295389 0.253888 0.277769

loop_
_geom_bond_atom_site_label_1
_geom_bond_atom_site_label_2
_ccdc_geom_bond_type
O67   C155  S    
C136  H146  S    
C128  H129  S    
C118  H104  S    
C28   O66   S    
C144  C145  S    
O21   C89   S    
C110  C111  S    
C96   H46   S    
C92   H36   S    
C7    O15   A    
C32   S4    S    
Cu3   O15   S    
C153  H186  S    
C94   H41   S    
O52   H92   S    
O62   C140  S    
S7    O48   D    
C113  H93   S    
C31   C59   S    
C99   H52   S    
C4    O12   A    
C110  H78   S    
Cu1   O4    S    
Cu2   O12   S    
C127  H125  S    
C70   C74   S    
C106  H70   S    
C129  C130  S    
C8    O8    A    
C15   C51   T    
C43   O27   S    
C125  C126  S    
C141  C142  S    
C33   C53   S    
C36   S8    S    
Cu4   N3    S    
C27   C75   S    
C18   N2    T    
C139  H153  S    
S4    O39   D    
C154  H190  S    
S2    O33   D    
C93   C94   S    
C142  H160  S    
C131  H135  S    
C88   H28   S    
C130  H133  S    
C145  H168  S    
C3    O3    A    
C99   C100  S    
C108  H73   S    
C112  H82   S    
C38   C57   S    
C82   H12   S    
O56   C122  S    
C115  H97   S    
C97   H49   S    
C29   S1    S    
C87   H25   S    
C83   C84   S    
C95   H43   S    
S8    O51   D    
C34   C54   S    
C136  H148  S    
C149  H178  S    
C138  C139  S    
C28   C71   S    
C144  H165  S    
C6    O14   A    
C53   O54   S    
C89   H29   S    
C86   H23   S    
O54   C116  S    
Cu3   N4    S    
C153  C154  S    
C103  H61   S    
C100  H56   S    
C87   C88   S    
C143  H164  S    
C1    C48   S    
C2    C47   S    
C3    C46   S    
C79   H7    S    
C41   O25   S    
C25   C76   S    
O66   C152  S    
C140  H157  S    
C85   H19   S    
C116  H101  S    
C138  H151  S    
C44   C55   S    
C14   C50   T    
Cu1   N2    S    
C127  H127  S    
C39   C60   S    
C151  H182  S    
C69   O18   S    
C81   H11   S    
O60   C134  S    
O64   C146  S    
C130  H132  S    
C107  H71   S    
C27   O65   S    
C126  H123  S    
C30   C61   S    
C33   S5    S    
C3    O11   A    
C150  H179  S    
O65   C149  S    
C139  H155  S    
C5    O5    A    
C93   H39   S    
C80   H9    S    
Cu2   O3    S    
C101  H57   S    
Cu4   O13   S    
C134  H142  S    
C131  C132  S    
C148  H174  S    
C100  H54   S    
C70   O17   S    
O19   C83   S    
C156  H194  S    
C79   H5    S    
C78   H4    S    
C31   C43   S    
C9    C61   S    
C151  H181  S    
C118  H105  S    
C112  H84   S    
C11   C63   S    
C90   H32   S    
C42   C53   S    
O46   H90   S    
C12   C64   S    
C124  H119  S    
C137  H149  S    
Cu1   O10   S    
O31   H85   S    
O34   H86   S    
C97   H47   S    
C125  H122  S    
C59   C67   S    
C133  H140  S    
C95   C96   S    
C55   C63   S    
C56   C64   S    
C25   C71   S    
C96   H45   S    
S1    O29   D    
C22   O64   S    
S3    O37   S    
C86   H22   S    
Cu1   O1    S    
C114  H95   S    
C17   C73   S    
C104  H65   S    
C23   C70   S    
C160  H202  S    
C30   S2    S    
C103  H63   S    
C19   N3    T    
C152  H185  S    
C141  H159  S    
C33   C66   S    
C4    C45   S    
C82   H13   S    
C57   O58   S    
C14   C66   S    
C121  H112  S    
C2    O10   A    
C129  H130  S    
C108  C109  S    
C142  H162  S    
C6    O6    A    
C21   C69   S    
C117  H103  S    
C160  H204  S    
C84   H18   S    
C120  H110  S    
C109  H76   S    
C156  H193  S    
C107  C108  S    
C126  C127  S    
C15   C67   S    
C26   C75   S    
C150  C151  S    
C123  H117  S    
C158  C159  S    
C1    O9    A    
C5    O13   A    
C102  H59   S    
C20   N4    T    
C147  H173  S    
C44   O28   S    
C148  H176  S    
C155  H191  S    
C133  H141  S    
C83   H16   S    
O37   H87   S    
C29   C41   S    
C151  H183  S    
C7    C50   S    
C91   H34   S    
O58   C128  S    
C144  H166  S    
S5    O43   S    
C110  H79   S    
O20   C86   S    
C4    O4    A    
C21   O63   S    
C135  H145  S    
C122  C123  S    
C25   O67   S    
C58   O57   S    
C132  H138  S    
S6    O44   D    
C8    O16   A    
C119  H108  S    
C60   O59   S    
C79   H6    S    
C113  H94   S    
C77   H1    S    
C120  C121  S    
C99   H53   S    
Cu3   O5    S    
C105  H66   S    
C92   H37   S    
C135  H144  S    
C114  C115  S    
C106  H69   S    
C38   C62   S    
C159  H200  S    
C22   C70   S    
C9    C45   T    
O17   C77   S    
C86   C87   S    
C113  C114  S    
C26   C72   S    
C11   C47   T    
C115  H99   S    
C12   C48   T    
C71   O20   S    
C139  H154  S    
C157  H195  S    
O40   H88   S    
C154  H189  S    
Cu1   Cu2   S    
S2    O34   S    
C109  H77   S    
C26   O68   S    
C31   S3    S    
C131  H136  S    
C88   H27   S    
C146  C147  S    
S3    O35   D    
C92   C93   S    
C34   S6    S    
C77   C78   S    
C128  H128  S    
C35   S7    S    
O68   C158  S    
C101  C102  S    
C29   C62   S    
C69   C73   S    
C155  C156  S    
C72   C76   S    
C98   C99   S    
C95   H44   S    
C136  H147  S    
C10   C62   S    
O24   C98   S    
C89   H30   S    
C96   C97   S    
C134  C135  S    
C122  H114  S    
C94   H42   S    
C103  H62   S    
O23   C95   S    
C54   C62   S    
C33   C37   S    
C106  H68   S    
C35   C39   S    
C158  H198  S    
C117  C118  S    
C116  H100  S    
C36   C56   S    
C89   C90   S    
C157  H196  S    
O59   C131  S    
C105  C106  S    
C7    O7    A    
C29   C57   S    
C21   C23   S    
C72   O19   S    
C22   C24   S    
C140  C141  S    
C85   H21   S    
C32   C60   S    
C84   H17   S    
C28   C76   S    
O55   C119  S    
S4    O38   D    
C80   H8    S    
S2    O32   D    
C101  H58   S    
C16   C52   T    
C57   C65   S    
C130  H134  S    
C146  H170  S    
C134  H143  S    
C127  H126  S    
C145  H167  S    
C78   H3    S    
Cu4   O7    S    
C158  H199  S    
C112  H83   S    
C90   H31   S    
C117  H102  S    
C102  C103  S    
C128  C129  S    
Cu2   N1    S    
C124  H118  S    
S5    O41   D    
C137  H150  S    
C19   C75   S    
C153  H187  S    
C17   N1    T    
O25   C101  S    
C97   H48   S    
C108  H74   S    
C100  H55   S    
C87   H24   S    
C98   H50   S    
S8    O50   D    
C60   C68   S    
C123  H116  S    
C149  H177  S    
C30   C42   S    
C88   H26   S    
C8    C49   S    
C27   C72   S    
C123  C124  S    
S7    O49   S    
C132  H137  S    
C104  H64   S    
Cu3   O14   S    
C85   H20   S    
C94   H40   S    
C38   O22   S    
C120  H109  S    
C143  H163  S    
C145  H169  S    
C152  H184  S    
C109  H75   S    
C36   C67   S    
C13   C65   S    
C121  H113  S    
C137  C138  S    
O22   C92   S    
C115  H98   S    
C24   O62   S    
C116  C117  S    
C138  H152  S    
C142  H161  S    
Cu2   O9    S    
C81   H10   S    
C20   C76   S    
C160  H203  S    
C111  C112  S    
C58   C66   S    
O27   C107  S    
O26   C104  S    
S3    O36   D    
C149  C150  S    
C10   C46   T    
C91   H35   S    
C5    C52   S    
C16   C68   S    
C6    C51   S    
C150  H180  S    
C37   C58   S    
S4    O40   S    
C80   C81   S    
Cu2   O2    S    
C18   C74   S    
C40   C59   S    
Cu4   O16   S    
C39   O23   S    
C147  C148  S    
O57   C125  S    
C53   C61   S    
C23   C73   S    
C34   C65   S    
O18   C80   S    
C148  H175  S    
C155  H192  S    
C24   C69   S    
C156  C157  S    
C119  C120  S    
C1    O1    A    
C78   C79   S    
C35   C55   S    
C36   C40   S    
C118  H106  S    
C90   C91   S    
C154  H188  S    
S5    O42   D    
C124  H120  S    
C41   C65   S    
C126  H124  S    
C21   C74   S    
Cu1   O11   S    
C122  H115  S    
S6    O45   D    
C125  H121  S    
S1    O31   S    
S8    O52   S    
O43   H89   S    
C102  H60   S    
O53   C113  S    
C32   C44   S    
C91   H33   S    
C77   H2    S    
S1    O30   D    
Cu3   O8    S    
C13   C49   T    
C40   O24   S    
C56   O55   S    
C43   C67   S    
C105  H67   S    
C111  H80   S    
C111  H81   S    
C114  H96   S    
C104  C105  S    
C44   C68   S    
S6    O46   S    
C159  H201  S    
C23   O61   S    
C143  C144  S    
C152  C153  S    
C141  H158  S    
C82   H14   S    
C121  H111  S    
C119  H107  S    
C34   C38   S    
C31   C64   S    
C32   C63   S    
C107  H72   S    
C37   C61   S    
C59   O60   S    
C25   C27   S    
C135  C136  S    
C39   C63   S    
O61   C137  S    
C26   C28   S    
C40   C64   S    
C81   C82   S    
C93   H38   S    
C159  C160  S    
C42   O26   S    
C84   C85   S    
C140  H156  S    
C71   C75   S    
C146  H171  S    
C24   C74   S    
C133  H139  S    
C35   C68   S    
C54   O53   S    
S7    O47   D    
C30   C58   S    
C2    O2    A    
Cu4   O6    S    
O28   C110  S    
C55   O56   S    
C41   C54   S    
C157  H197  S    
O49   H91   S    
Cu3   Cu4   S    
C43   C56   S    
C129  H131  S    
C132  C133  S    
C42   C66   S    
C147  H172  S    
C22   C73   S    
C37   O21   S    
O63   C143  S    
C83   H15   S    
C98   H51   S    
