data_mof_unit_21439.cif
_audit_creation_date              2012-12-10T17:32:57-0500
_audit_creation_method            fapswitch 2.2
_symmetry_space_group_name_H-M    P1
_symmetry_Int_Tables_number       1
_space_group_crystal_system       triclinic
_cell_length_a                    12.368958
_cell_length_b                    13.214312
_cell_length_c                    14.283672
_cell_angle_alpha                 93.726655
_cell_angle_beta                  107.539038
_cell_angle_gamma                 116.749814
_cell_volume                      1931.88416546

loop_
_atom_site_label
_atom_site_type_symbol
_atom_type_description
_atom_site_fract_x
_atom_site_fract_y
_atom_site_fract_z
_atom_type_partial_charge
C1    C     C_R   0.649061 0.714302 0.506363 0.791441
C2    C     C_R   0.843509 0.491740 0.916874 0.090626
C3    C     C_R   0.785405 0.496020 0.987743 0.165731
C4    C     C_R   0.952840 0.473476 0.944516 0.065048
C5    C     C_R   0.010457 0.471332 0.046332 0.066893
C6    C     C_R   0.948015 0.473812 0.114273 -0.221513
C7    C     C_R   0.837320 0.485324 0.085049 -0.226868
C8    C     C_R   0.004605 0.454663 0.873307 -0.221546
C9    C     C_R   0.114341 0.441752 0.902213 -0.227565
C10   C     C_R   0.177914 0.448950 0.002992 0.164726
C11   C     C_R   0.127572 0.465006 0.076297 0.091343
C12   C     C_R   0.617911 0.516262 0.686605 0.790824
C13   C     C_R   0.292297 0.441082 0.031391 -0.195597
C14   C     C_R   0.359139 0.451288 0.132352 -0.169192
C15   C     C_R   0.198714 0.477959 0.177773 -0.256734
C16   C     C_R   0.163145 0.958691 0.393233 -0.192030
C17   C     C_R   0.254938 0.161417 0.472398 -0.056802
C18   C     C_R   0.711108 0.926088 0.549276 0.260057
C19   C     C_R   0.801656 0.043014 0.565049 -0.202135
C20   C     C_R   0.910301 0.074698 0.539848 -0.228620
C21   C     C_R   0.929418 0.989738 0.493006 0.082756
C22   C     C_R   0.830694 0.871186 0.466557 0.033194
C23   C     C_R   0.346899 0.285097 0.487424 0.825978
C24   C     C_R   0.042523 0.018918 0.469947 0.089564
C25   C     C_R   0.050761 0.931453 0.414265 0.163344
C26   C     C_R   0.945336 0.818697 0.377622 -0.234236
C27   C     C_R   0.835558 0.789845 0.400823 -0.180706
C28   C     C_R   0.148207 0.132699 0.500831 -0.257249
C29   C     C_R   0.264972 0.073271 0.422321 -0.170259
C30   C     C_R   0.728717 0.837960 0.504773 -0.153003
C31   C     C_R   0.254334 0.687172 0.662107 -0.314107
C32   C     C_R   0.659208 0.342056 0.361821 0.336523
C33   C     C_R   0.739999 0.310141 0.333791 -0.263377
C34   C     C_R   0.381382 0.482828 0.313280 0.811215
C35   C     C_R   0.873009 0.369691 0.386140 -0.248015
C36   C     C_R   0.929688 0.464090 0.468672 -0.001594
C37   C     C_R   0.844058 0.495571 0.496412 0.249904
C38   C     C_R   0.068508 0.528180 0.524118 -0.026473
C39   C     C_R   0.119657 0.622910 0.606368 0.171759
C40   C     C_R   0.036323 0.653102 0.632530 -0.282145
C41   C     C_R   0.902226 0.591264 0.578978 -0.187120
C42   C     C_R   0.159840 0.502622 0.501706 0.003728
C43   C     C_R   0.338313 0.657578 0.636502 0.072130
C44   C     C_R   0.678185 0.516963 0.792298 -0.049918
C45   C     C_R   0.312805 0.470409 0.206065 -0.047138
C46   C     C_R   0.675012 0.510200 0.960237 -0.194164
C47   C     C_R   0.620792 0.519381 0.862638 -0.192846
C48   C     C_R   0.790842 0.507270 0.820819 -0.252944
Cu1   Cu    Cu3+1 0.416420 0.526630 0.522910 0.940643
Cu2   Cu    Cu3+1 0.583580 0.473370 0.477090 0.945782
H1    H     H_    0.792457 0.486496 0.139394 0.149216
H2    H     H_    0.330676 0.428062 0.975540 0.132371
H3    H     H_    0.349144 0.093048 0.402923 0.179431
H4    H     H_    0.947116 0.752599 0.329962 0.145069
H5    H     H_    0.170760 0.891915 0.352005 0.141253
H6    H     H_    0.149827 0.201718 0.546479 0.150485
H7    H     H_    0.974750 0.167109 0.555073 0.143344
H8    H     H_    0.788531 0.110531 0.598660 0.147561
H9    H     H_    0.753433 0.703768 0.363468 0.175098
H10   H     H_    0.442099 0.707262 0.679569 0.139292
H11   H     H_    0.169230 0.497358 0.236973 0.150318
H12   H     H_    0.075339 0.725893 0.695531 0.157039
H13   H     H_    0.294549 0.760042 0.725289 0.144556
H14   H     H_    0.129622 0.432076 0.440461 0.124681
H15   H     H_    0.928753 0.339731 0.359585 0.146893
H16   H     H_    0.699143 0.237966 0.269881 0.174967
H17   H     H_    0.847929 0.622101 0.605241 0.205712
H18   H     H_    0.447761 0.445864 0.152738 0.167436
H19   H     H_    0.150775 0.427685 0.845259 0.145037
H20   H     H_    0.629550 0.512501 0.013848 0.131825
H21   H     H_    0.533362 0.526807 0.841965 0.152115
H22   H     H_    0.836450 0.513266 0.766566 0.151648
H23   H     H_    0.979648 0.463458 0.190207 0.143764
H24   H     H_    0.960692 0.446098 0.793584 0.149958
N1    N     N_R   0.290690 0.566960 0.557640 -0.178175
N2    N     N_R   0.709100 0.433710 0.442970 -0.217625
O1    O     O_R   0.545970 0.684450 0.528810 -0.538394
O2    O     O_R   0.687130 0.639470 0.490120 -0.611984
O3    O     O_R   0.519670 0.535100 0.660030 -0.586230
O4    O     O_R   0.660830 0.490120 0.621340 -0.601532
O5    O     O_R   0.312870 0.360530 0.509880 -0.592490
O6    O     O_R   0.454030 0.315550 0.471190 -0.556577
O7    O     O_R   0.339170 0.509880 0.378660 -0.595712
O8    O     O_R   0.480330 0.464900 0.339970 -0.564855
N3    N     N_2   0.602934 0.898727 0.578975 -0.418069
H25   H     H_    0.625965 0.953361 0.645375 0.239708
C49   C     C_3   0.489056 0.885887 0.499609 -0.639173
H26   H     H_    0.406906 0.857720 0.526562 0.224007
H27   H     H_    0.459084 0.818809 0.431901 0.238338
H28   H     H_    0.509749 0.970370 0.478467 0.213514
I1    I     I_    0.459959 0.237191 0.266211 -0.423130

loop_
_geom_bond_atom_site_label_1
_geom_bond_atom_site_label_2
_ccdc_geom_bond_type
C49   H26   S    
C23   O6    A    
C17   C29   A    
C35   C36   A    
C4    C8    A    
C28   H6    S    
Cu2   O8    S    
C41   H17   S    
N3    H25   S    
C42   N1    A    
C17   C23   S    
C31   C43   A    
C36   C37   A    
C9    H19   S    
C5    C11   A    
C3    C7    A    
C5    C6    A    
C32   I1    S    
C35   H15   S    
C12   O3    A    
C26   H4    S    
C40   H12   S    
C18   C19   A    
Cu1   O5    S    
C11   C15   A    
C19   C20   A    
Cu1   O1    S    
C8    C9    A    
Cu1   N1    S    
C18   C30   A    
C23   O5    A    
C9    C10   A    
C44   C47   A    
C21   C22   A    
C1    O2    A    
C15   H11   S    
C34   O8    A    
C48   H22   S    
Cu2   O2    S    
C33   H16   S    
C14   C45   A    
N3    C49   S    
C19   H8    S    
C43   N1    A    
C18   N3    S    
C31   H13   S    
C24   C25   A    
C39   C40   A    
C2    C48   A    
C16   C29   A    
Cu1   O3    S    
C2    C4    A    
Cu2   N2    S    
C13   H2    S    
C8    H24   S    
C26   C27   A    
C34   C45   S    
C47   H21   S    
C43   H10   S    
C40   C41   A    
C37   N2    A    
C22   C27   A    
C49   H27   S    
C49   H28   S    
C34   O7    A    
C15   C45   A    
C42   H14   S    
Cu2   O6    S    
C6    H23   S    
C16   C25   A    
C46   C47   A    
C22   C30   A    
C17   C28   A    
C24   C28   A    
C4    C5    A    
C10   C13   A    
Cu2   O4    S    
C32   N2    A    
C38   C42   A    
C6    C7    A    
C3    C46   A    
C32   C33   A    
Cu1   O7    S    
C36   C38   A    
C2    C3    A    
C25   C26   A    
C16   H5    S    
C7    H1    S    
C12   C44   S    
C27   H9    S    
C38   C39   A    
C29   H3    S    
C12   O4    A    
C1    C30   S    
C33   C35   A    
C31   C39   A    
C37   C41   A    
C46   H20   S    
C10   C11   A    
C20   C21   A    
Cu1   Cu2   S    
C21   C24   A    
C14   H18   S    
C1    O1    A    
C20   H7    S    
C13   C14   A    
C44   C48   A    
