data_mof_unit_53140.cif
_audit_creation_date              2012-10-26T20:31:41-0400
_audit_creation_method            fapswitch 2.2
_symmetry_space_group_name_H-M    P1
_symmetry_Int_Tables_number       1
_space_group_crystal_system       triclinic
_cell_length_a                    15.872385
_cell_length_b                    10.835669
_cell_length_c                    9.576741
_cell_angle_alpha                 90.913408
_cell_angle_beta                  90.418435
_cell_angle_gamma                 90.724213
_cell_volume                      1646.69642777

loop_
_atom_site_label
_atom_site_type_symbol
_atom_type_description
_atom_site_fract_x
_atom_site_fract_y
_atom_site_fract_z
_atom_type_partial_charge
C1    C     C_R   0.497278 0.262542 0.499030 0.544684
C2    C     C_R   0.487044 0.129666 0.496670 -0.025461
C3    C     C_R   0.489614 0.062513 0.370093 -0.168490
C4    C     C_R   0.340380 0.500351 0.499501 0.527753
C5    C     C_R   0.490350 0.933854 0.371102 -0.152026
C6    C     C_R   0.489130 0.871010 0.498785 -0.008367
C7    C     C_R   0.474178 0.938699 0.621033 -0.064279
C8    C     C_3   0.517041 0.935854 0.760163 -0.156479
C9    C     C_3   0.513536 0.075893 0.761280 0.457936
C10   C     C_R   0.573793 0.504548 0.074683 0.077694
C11   C     C_R   0.428849 0.469878 0.071836 0.357029
C12   C     C_3   0.951976 0.500471 0.649766 0.132755
C13   C     C_R   0.428420 0.475763 0.923511 -0.027395
C14   C     C_R   0.573981 0.502941 0.927954 0.172390
C15   C     C_3   0.644090 0.597029 0.927278 0.099537
C16   C     C_R   0.498302 0.737776 0.500474 0.551791
C17   C     C_3   0.643340 0.597521 0.086791 -0.248914
C18   C     C_R   0.659640 0.500029 0.500319 0.552868
C19   C     C_3   0.049890 0.512323 0.648683 0.151344
C20   C     C_3   0.046382 0.388622 0.408282 0.216893
C21   C     C_3   0.948614 0.381827 0.417201 0.147711
C22   C     C_1   0.749162 0.499818 0.500622 -0.005509
C23   C     C_3   0.916995 0.499919 0.496806 0.068699
C24   C     C_3   0.083324 0.502905 0.494791 -0.001859
C25   C     C_3   0.906111 0.723173 0.213951 0.081521
C26   C     C_3   0.899230 0.704576 0.056544 -0.394365
C27   C     C_3   0.350220 0.299681 0.121339 -0.009707
C28   C     C_3   0.291556 0.247945 0.231766 -0.343158
C29   C     C_3   0.107733 0.475448 0.869269 -0.014611
C30   C     C_3   0.130170 0.372585 0.968087 -0.359306
C31   C     C_3   0.100280 0.224708 0.547551 0.075885
C32   C     C_3   0.115415 0.086707 0.533483 -0.393035
C33   C     C_3   0.140495 0.727106 0.268160 -0.008626
C34   C     C_3   0.950122 0.618472 0.418204 0.416164
C35   C     C_3   0.177794 0.722312 0.122477 -0.370659
C36   C     C_3   0.050350 0.621983 0.420997 0.110541
C37   C     C_1   0.824632 0.499674 0.499288 0.045234
C38   C     C_1   0.175480 0.502462 0.495634 0.004649
C39   C     C_1   0.250921 0.501460 0.497689 -0.026495
C40   C     C_R   0.472111 0.066017 0.619906 0.036095
Cu1   Cu    Cu3+1 0.500000 0.499980 0.640670 0.988321
Cu2   Cu    Cu3+1 0.500000 0.500020 0.359330 0.985442
H1    H     H_    0.066023 0.608128 0.686630 0.021609
H2    H     H_    0.622968 0.685590 0.136488 0.152147
H3    H     H_    0.057543 0.413005 0.297610 0.164053
H4    H     H_    0.922828 0.381330 0.308219 0.116248
H5    H     H_    0.071362 0.704008 0.485245 0.059121
H6    H     H_    0.925724 0.413245 0.820955 0.323887
H7    H     H_    0.958045 0.790641 0.236453 0.171629
H8    H     H_    0.845617 0.761543 0.251925 0.173550
H9    H     H_    0.848648 0.636092 0.030465 0.149088
H10   H     H_    0.884132 0.793481 0.006597 0.112744
H11   H     H_    0.959925 0.671019 0.014842 0.144805
H12   H     H_    0.926182 0.581927 0.707161 0.062708
H13   H     H_    0.455574 0.211774 0.849672 0.342430
H14   H     H_    0.626750 0.102285 0.684940 0.308016
H15   H     H_    0.412160 0.253220 0.133153 0.157265
H16   H     H_    0.323726 0.276052 0.016391 0.115497
H17   H     H_    0.230099 0.295414 0.229174 0.182002
H18   H     H_    0.280776 0.147696 0.212083 0.098600
H19   H     H_    0.320163 0.260683 0.337184 0.160733
H20   H     H_    0.053483 0.526014 0.914316 0.126711
H21   H     H_    0.162892 0.539253 0.861001 0.130864
H22   H     H_    0.183885 0.319459 0.925912 0.145896
H23   H     H_    0.496305 0.108617 0.271279 0.151590
H24   H     H_    0.147892 0.412935 0.071535 0.136071
H25   H     H_    0.075212 0.309418 0.980838 0.163592
H26   H     H_    0.567522 0.736040 0.916986 0.318582
H27   H     H_    0.045034 0.237042 0.616077 0.269749
H28   H     H_    0.157724 0.266892 0.595913 0.168590
H29   H     H_    0.171403 0.069577 0.467285 0.142097
H30   H     H_    0.126686 0.047268 0.638208 0.094237
H31   H     H_    0.059528 0.039972 0.484971 0.179830
H32   H     H_    0.861909 0.257082 0.450639 0.324524
H33   H     H_    0.193047 0.720919 0.345191 0.130926
H34   H     H_    0.496849 0.884600 0.272537 0.145780
H35   H     H_    0.108336 0.817004 0.282807 0.124450
H36   H     H_    0.126898 0.728677 0.042818 0.133525
H37   H     H_    0.222659 0.800691 0.109546 0.103692
H38   H     H_    0.212038 0.634485 0.106642 0.175403
H39   H     H_    0.947769 0.742894 0.572701 0.281908
H40   H     H_    0.476604 0.892254 0.840339 0.140033
H41   H     H_    0.582155 0.900617 0.751779 0.170100
H42   H     H_    0.370288 0.456905 0.867434 0.127500
H43   H     H_    0.703208 0.561063 0.881328 0.154142
H44   H     H_    0.701354 0.557834 0.132592 0.121756
N1    N     N_R   0.500530 0.500930 0.147930 -0.227171
N2    N     N_R   0.500530 0.500890 0.852020 -0.255435
O1    O     O_R   0.500000 0.319640 0.618810 -0.479745
O2    O     O_3   0.920588 0.607960 0.276879 -0.538193
O3    O     O_3   0.459689 0.121747 0.864735 -0.700507
O4    O     O_3   0.593273 0.134862 0.764300 -0.652944
O5    O     O_3   0.357013 0.429429 0.138012 -0.546376
O6    O     O_3   0.087738 0.424083 0.736461 -0.561150
O7    O     O_3   0.620192 0.709831 0.870419 -0.689149
O8    O     O_3   0.088011 0.272804 0.413289 -0.573717
O9    O     O_3   0.921223 0.272294 0.480419 -0.639514
O10   O     O_3   0.082425 0.628154 0.282447 -0.556141
O11   O     O_3   0.916855 0.725517 0.484199 -0.730711
O12   O     O_R   0.500010 0.319680 0.381230 -0.508736
O13   O     O_R   0.379430 0.499990 0.618840 -0.529550
O14   O     O_R   0.379440 0.500030 0.381260 -0.431570
O15   O     O_R   0.499990 0.680320 0.618770 -0.470486
O16   O     O_R   0.500000 0.680360 0.381190 -0.515572
O17   O     O_R   0.620560 0.499970 0.618740 -0.463922
O18   O     O_R   0.620570 0.500010 0.381160 -0.507498
O19   O     O_3   0.925418 0.393406 0.719373 -0.623789

loop_
_geom_bond_atom_site_label_1
_geom_bond_atom_site_label_2
_ccdc_geom_bond_type
Cu1   O1    S    
C29   H21   S    
C30   H22   S    
C8    H41   S    
Cu1   Cu2   S    
C9    O3    S    
C34   O2    S    
C7    C8    S    
C32   H30   S    
C13   H42   S    
C25   O2    S    
C24   C36   S    
Cu1   O17   S    
C8    H40   S    
C1    C2    S    
Cu2   O12   S    
C15   O7    S    
C5    C6    A    
H6    O19   S    
C10   C17   S    
C31   O8    S    
C35   H38   S    
C1    O12   A    
C36   H5    S    
C33   O10   S    
C25   H8    S    
H13   O3    S    
C33   H33   S    
C31   H28   S    
C20   C24   S    
C11   N1    A    
C8    C9    S    
C4    O14   A    
C24   C38   S    
C7    C40   A    
C32   H29   S    
C13   N2    A    
C30   H25   S    
C15   H43   S    
C28   H19   S    
C11   O5    S    
C20   O8    S    
C3    H23   S    
Cu2   O14   S    
C9    O4    S    
C19   H1    S    
H32   O9    S    
C28   H18   S    
C10   N1    A    
H26   O7    S    
C17   H44   S    
C27   H15   S    
C32   H31   S    
H39   O11   S    
C25   C26   S    
C23   C37   S    
C22   C37   T    
C9    C40   S    
Cu1   O15   S    
C18   O18   A    
C29   C30   S    
C26   H10   S    
C21   O9    S    
C16   O15   A    
C31   C32   S    
C12   C23   S    
C4    C39   S    
C31   H27   S    
C23   C34   S    
C4    O13   A    
C34   O11   S    
Cu2   O18   S    
C30   H24   S    
C19   O6    S    
C16   O16   A    
C21   C23   S    
C10   C14   A    
C29   O6    S    
C27   O5    S    
C26   H11   S    
C21   H4    S    
C28   H17   S    
C15   C17   S    
Cu1   N2    S    
C29   H20   S    
C1    O1    A    
C18   C22   S    
C20   H3    S    
C3    C5    A    
C27   H16   S    
Cu2   O16   S    
C12   O19   S    
C6    C7    A    
C35   H36   S    
C5    H34   S    
C2    C3    A    
C18   O17   A    
C14   N2    A    
C26   H9    S    
C11   C13   A    
C33   H35   S    
C38   C39   T    
C12   C19   S    
C35   H37   S    
C33   C35   S    
Cu1   O13   S    
C19   C24   S    
C34   C36   S    
C25   H7    S    
C17   H2    S    
C6    C16   S    
C2    C40   A    
H14   O4    S    
C20   C21   S    
C27   C28   S    
C14   C15   S    
C36   O10   S    
Cu2   N1    S    
C12   H12   S    
