data_mof_unit_19160.cif
_audit_creation_date              2013-03-05T16:03:41-0500
_audit_creation_method            fapswitch 2.2
_symmetry_space_group_name_H-M    P1
_symmetry_Int_Tables_number       1
_space_group_crystal_system       triclinic
_cell_length_a                    14.914451
_cell_length_b                    14.008842
_cell_length_c                    19.203392
_cell_angle_alpha                 90.241116
_cell_angle_beta                  89.576845
_cell_angle_gamma                 88.914233
_cell_volume                      4011.37736726

loop_
_atom_site_label
_atom_site_type_symbol
_atom_site_description
_atom_site_fract_x
_atom_site_fract_y
_atom_site_fract_z
_atom_type_partial_charge
O1    O     O_R   0.367850 0.580280 0.500020 -0.606740
O2    O     O_R   0.632150 0.419720 0.499980 -0.607791
O3    O     O_R   0.632150 0.580280 0.499980 -0.624641
O4    O     O_R   0.367850 0.419720 0.500020 -0.607131
C1    C     C_R   0.326634 0.500816 0.498546 0.963067
C2    C     C_R   0.673059 0.499324 0.501947 0.963425
O5    O     O_R   0.499990 0.580300 0.398140 -0.587921
O6    O     O_R   0.500010 0.419700 0.601860 -0.591798
O7    O     O_R   0.500010 0.580300 0.601860 -0.561325
O8    O     O_R   0.499990 0.419700 0.398140 -0.566209
C3    C     C_R   0.498667 0.499791 0.365363 0.994113
C4    C     C_R   0.499448 0.500266 0.634713 0.990895
Zn1   Zn    Zn3+2 0.500000 0.607200 0.500000 1.074347
Zn2   Zn    Zn3+2 0.500000 0.392800 0.500000 1.082570
C5    C     C_R   0.441220 0.572864 0.256334 0.271782
C6    C     C_R   0.534610 0.424911 0.748617 0.275107
C7    C     C_R   0.448773 0.576110 0.745921 0.265793
C8    C     C_R   0.528377 0.422472 0.250599 0.269676
C9    C     C_R   0.432930 0.572486 0.183645 -0.027361
C10   C     C_R   0.527305 0.423398 0.821470 -0.009543
C11   C     C_R   0.440568 0.575000 0.818597 -0.011316
C12   C     C_R   0.519081 0.420433 0.178031 -0.011406
C13   C     C_R   0.472770 0.496573 0.145232 -0.038440
C14   C     C_R   0.480124 0.498620 0.855636 -0.032675
C15   C     C_R   0.490373 0.499013 0.289524 -0.288153
C16   C     C_R   0.495095 0.500928 0.710897 -0.295722
N1    N     N_R   0.546123 0.530063 0.035806 -0.172064
N2    N     N_R   0.402342 0.470568 0.964898 -0.172012
N3    N     N_R   0.548103 0.530204 0.966844 -0.169260
N4    N     N_R   0.400279 0.470598 0.033992 -0.185601
C17   C     C_R   0.476442 0.500114 0.930719 0.302133
C18   C     C_R   0.472298 0.500218 0.070096 0.304535
C19   C     C_R   0.812924 0.460653 0.444798 -0.185068
C20   C     C_R   0.184938 0.562327 0.540646 -0.192507
C21   C     C_R   0.768529 0.499603 0.501954 -0.176416
C22   C     C_R   0.230784 0.504185 0.493609 -0.170790
C23   C     C_R   0.813618 0.547138 0.554834 0.266662
C24   C     C_R   0.186326 0.453405 0.441691 0.285893
C25   C     C_R   0.905454 0.564711 0.546193 -0.028046
C26   C     C_R   0.092829 0.467036 0.434171 -0.027977
C27   C     C_R   0.952197 0.518031 0.490332 -0.012153
C28   C     C_R   0.045691 0.518774 0.487606 -0.008053
C29   C     C_R   0.905286 0.467921 0.438494 0.010534
C30   C     C_R   0.092257 0.567743 0.540355 -0.000384
C31   C     C_R   0.951954 0.627705 0.590847 0.017333
C32   C     C_R   0.044664 0.432267 0.375531 0.001300
C33   C     C_R   0.045913 0.621842 0.591669 0.297312
C34   C     C_R   0.950503 0.428358 0.380274 0.296530
H1    H     H_    0.774222 0.424533 0.405561 0.234057
H2    H     H_    0.222763 0.600159 0.579368 0.237385
C35   C     C_R   0.571399 0.796198 0.472378 0.063198
C36   C     C_R   0.429184 0.203724 0.528134 0.106403
C37   C     C_R   0.428148 0.799591 0.526496 0.124009
C38   C     C_R   0.571242 0.200752 0.472144 0.109408
N5    N     N_R   0.500000 0.750030 0.500000 -0.128213
N6    N     N_R   0.500000 0.249970 0.500000 -0.135276
C39   C     C_R   0.425487 0.900523 0.526259 -0.117239
C40   C     C_R   0.574423 0.099804 0.472335 -0.117884
C41   C     C_R   0.573335 0.897072 0.470541 -0.117494
C42   C     C_R   0.427183 0.102992 0.529129 -0.110922
C43   C     C_R   0.499892 0.949508 0.499115 0.021680
C44   C     C_R   0.500654 0.050659 0.500394 0.016118
C45   C     C_R   0.351193 0.953106 0.553404 0.213471
C46   C     C_R   0.647944 0.047373 0.443593 0.215527
C47   C     C_R   0.647115 0.946302 0.442164 0.200877
C48   C     C_R   0.352636 0.053915 0.555991 0.223150
H3    H     H_    0.626914 0.753537 0.452346 0.174727
H4    H     H_    0.374017 0.246269 0.548895 0.183452
H5    H     H_    0.373574 0.759618 0.548431 0.196358
H6    H     H_    0.624870 0.241144 0.449282 0.195058
N7    N     N_R   0.397676 0.647079 0.296643 0.216519
O9    O     O_R   0.330075 0.627344 0.336911 -0.390175
O10   O     O_R   0.428537 0.733296 0.296003 -0.368264
N8    N     N_R   0.584203 0.350285 0.713099 0.210821
O11   O     O_R   0.658110 0.369645 0.680122 -0.331325
O12   O     O_R   0.549577 0.266287 0.705989 -0.372969
N9    N     N_R   0.407541 0.652636 0.707641 0.214177
O13   O     O_R   0.447237 0.734213 0.702326 -0.367432
O14   O     O_R   0.333294 0.638788 0.674413 -0.405348
N10   N     N_R   0.578657 0.348019 0.284649 0.215108
O15   O     O_R   0.546815 0.262404 0.288839 -0.367224
O16   O     O_R   0.655088 0.366575 0.313384 -0.364003
C49   C     C_3   0.381335 0.652814 0.147366 -0.389464
C50   C     C_3   0.444569 0.730957 0.122347 -0.296646
C51   C     C_3   0.392778 0.811987 0.086992 -0.822583
H7    H     H_    0.357254 0.784726 0.040576 0.250910
H8    H     H_    0.343277 0.844941 0.123781 0.281649
H9    H     H_    0.440133 0.867606 0.069909 0.258802
H10   H     H_    0.481737 0.760499 0.167203 0.273059
H11   H     H_    0.494397 0.700838 0.084704 0.233591
H12   H     H_    0.343189 0.624383 0.102647 0.201307
H13   H     H_    0.329507 0.684904 0.182576 0.239526
C52   C     C_3   0.572213 0.342851 0.862447 -0.386923
C53   C     C_3   0.672629 0.360771 0.871437 -0.306990
C54   C     C_3   0.716480 0.284992 0.917511 -0.808407
H14   H     H_    0.686786 0.287906 0.970705 0.253390
H15   H     H_    0.707255 0.212731 0.894941 0.274161
H16   H     H_    0.789422 0.298333 0.921398 0.270647
H17   H     H_    0.706764 0.359847 0.819836 0.277024
H18   H     H_    0.682343 0.432025 0.895565 0.245076
H19   H     H_    0.540458 0.334330 0.914464 0.202735
H20   H     H_    0.562620 0.273283 0.835993 0.248361
C55   C     C_3   0.387500 0.654365 0.855923 -0.384651
C56   C     C_3   0.287093 0.632589 0.857060 -0.304986
C57   C     C_3   0.233499 0.709732 0.896316 -0.768467
H21   H     H_    0.255031 0.712872 0.951495 0.239695
H22   H     H_    0.243114 0.780439 0.871670 0.283045
H23   H     H_    0.161079 0.692883 0.895047 0.272518
H24   H     H_    0.261537 0.628080 0.802994 0.290268
H25   H     H_    0.276080 0.562777 0.882689 0.236471
H26   H     H_    0.411247 0.664677 0.910053 0.201927
H27   H     H_    0.398374 0.724062 0.830242 0.252416
C58   C     C_3   0.559452 0.337549 0.135668 -0.348903
C59   C     C_3   0.487983 0.263758 0.118796 -0.330952
C60   C     C_3   0.526929 0.182100 0.074536 -0.814451
H28   H     H_    0.551309 0.209539 0.023783 0.251132
H29   H     H_    0.583238 0.145988 0.102092 0.284735
H30   H     H_    0.474153 0.129023 0.064474 0.259224
H31   H     H_    0.460523 0.234061 0.167913 0.271203
H32   H     H_    0.431746 0.297959 0.090038 0.235398
H33   H     H_    0.590599 0.363580 0.086832 0.203193
H34   H     H_    0.615389 0.301842 0.163848 0.256339
N11   N     N_R   0.769849 0.561523 0.621079 0.189528
O17   O     O_R   0.799976 0.516730 0.675596 -0.340712
O18   O     O_R   0.700022 0.618046 0.627396 -0.400359
N12   N     N_R   0.234900 0.381643 0.402636 0.189501
O19   O     O_R   0.220242 0.291903 0.414596 -0.339741
O20   O     O_R   0.300622 0.404966 0.361554 -0.408322
C61   C     C_3   0.904701 0.709923 0.630222 -0.348852
C62   C     C_3   0.854122 0.777188 0.580269 -0.337080
C63   C     C_3   0.804466 0.857018 0.619827 -0.710141
H35   H     H_    0.754345 0.826568 0.656143 0.273793
H36   H     H_    0.852482 0.900491 0.649755 0.271672
H37   H     H_    0.768749 0.904202 0.582407 0.264902
H38   H     H_    0.902830 0.809361 0.543530 0.273584
H39   H     H_    0.804465 0.737827 0.549085 0.245814
H40   H     H_    0.860116 0.683746 0.671852 0.263994
H41   H     H_    0.953397 0.754716 0.658194 0.246304
C64   C     C_3   0.089781 0.411387 0.304972 -0.339560
C65   C     C_3   0.133248 0.501075 0.274918 -0.336356
C66   C     C_3   0.185965 0.478275 0.208265 -0.774104
H42   H     H_    0.242071 0.427379 0.219227 0.284723
H43   H     H_    0.141426 0.446908 0.168486 0.261659
H44   H     H_    0.214329 0.544883 0.187040 0.245203
H45   H     H_    0.079962 0.555093 0.263194 0.239600
H46   H     H_    0.179351 0.533307 0.312977 0.276620
H47   H     H_    0.137895 0.350712 0.307856 0.266041
H48   H     H_    0.041149 0.387575 0.265493 0.238227
N13   N     N_R   0.093876 0.666987 0.646953 0.189791
O21   O     O_R   0.141575 0.741695 0.634371 -0.276707
O22   O     O_R   0.080776 0.640671 0.711059 -0.370953
N14   N     N_R   0.900347 0.384601 0.325602 0.192682
O23   O     O_R   0.851269 0.436966 0.284410 -0.356569
O24   O     O_R   0.906675 0.292870 0.315290 -0.290280
N15   N     N_R   0.273313 0.904634 0.577729 0.242259
O25   O     O_R   0.226447 0.854946 0.534237 -0.318024
O26   O     O_R   0.243238 0.919370 0.640706 -0.253760
N16   N     N_R   0.722994 0.096237 0.414267 0.242007
O27   O     O_R   0.771818 0.150316 0.453400 -0.327124
O28   O     O_R   0.746665 0.081135 0.349753 -0.246808
N17   N     N_R   0.721954 0.894288 0.412246 0.214137
O29   O     O_R   0.802942 0.909878 0.433673 -0.332020
O30   O     O_R   0.710284 0.838781 0.358709 -0.346304
N18   N     N_R   0.276735 0.105994 0.584050 0.226984
O31   O     O_R   0.197613 0.095403 0.557334 -0.264833
O32   O     O_R   0.285372 0.158271 0.639673 -0.347037

loop_
_geom_bond_atom_site_label_1
_geom_bond_atom_site_label_2
_geom_bond_distance
_ccdc_geom_bond_type
C40   C44   1.413459 A    
Zn2   N6    2.000884 S    
C10   C52   1.525656 S    
C31   C61   1.532653 S    
C52   C53   1.534116 S    
N15   O26   1.301070 A    
C27   C28   1.395246 A    
C9    C13   1.411063 A    
C54   H14   1.110654 S    
C63   H37   1.110577 S    
C37   H5    1.080610 S    
N17   O29   1.301003 A    
C54   H16   1.110304 S    
N11   O17   1.301319 A    
C25   C27   1.424835 A    
C51   H7    1.110333 S    
C26   C32   1.428956 A    
C49   H13   1.110560 S    
C57   H22   1.110874 S    
C64   H47   1.103797 S    
N12   O19   1.301191 A    
C50   H11   1.109259 S    
O1    C1    1.282112 A    
C7    C16   1.413681 A    
C55   H26   1.110386 S    
N18   O31   1.301032 A    
C21   C23   1.395795 A    
C61   C62   1.539011 S    
N13   O22   1.300993 A    
C56   H24   1.110605 S    
C5    C15   1.413400 A    
N1    N3    1.324440 A    
C43   C44   1.417382 A    
C3    C15   1.462526 S    
C19   H1    1.082252 S    
C60   H28   1.110438 S    
C1    C22   1.433276 S    
C2    C21   1.423952 S    
C42   C44   1.414194 A    
C31   C33   1.402398 A    
O7    Zn1   1.993581 S    
C36   C42   1.412217 A    
N17   O30   1.301140 A    
C23   N11   1.437231 S    
N16   O28   1.301036 A    
C12   C58   1.526700 S    
C58   H34   1.110033 S    
C33   N13   1.435789 S    
N2    N4    1.326961 A    
C60   H29   1.110836 S    
C46   N16   1.435829 S    
O6    Zn2   1.990468 S    
N4    C18   1.353554 A    
C29   C34   1.407633 A    
C35   N5    1.361714 A    
C59   H31   1.111089 S    
C36   H4    1.079694 S    
C30   C33   1.409582 A    
O6    C4    1.290543 A    
C25   C31   1.421512 A    
O3    C2    1.278417 A    
C51   H8    1.110824 S    
C45   C48   1.413464 A    
C42   C48   1.413650 A    
C40   C46   1.415498 A    
C27   C29   1.412886 A    
O2    C2    1.281819 A    
C8    C15   1.411996 A    
C28   C30   1.414784 A    
C9    C49   1.524963 S    
C56   C57   1.525318 S    
C24   N12   1.433869 S    
C61   H40   1.104362 S    
C39   C45   1.414011 A    
C32   C34   1.408761 A    
C37   N5    1.360182 A    
C6    C16   1.412471 A    
C57   H23   1.110368 S    
C38   N6    1.360600 A    
C64   H48   1.107817 S    
C20   H2    1.079941 S    
C41   C43   1.413404 A    
N8    O11   1.300796 A    
C61   H41   1.109034 S    
C19   C29   1.387655 A    
C10   C14   1.412568 A    
C20   C30   1.382991 A    
C65   C66   1.526647 S    
N10   O16   1.300308 A    
O8    Zn2   1.993585 S    
C66   H44   1.109679 S    
C65   H46   1.107818 S    
N7    O10   1.300722 A    
C37   C39   1.413764 A    
O4    C1    1.281946 A    
N9    O13   1.301012 A    
C7    C11   1.400266 A    
C4    C16   1.463925 S    
C55   H27   1.109821 S    
C66   H43   1.110673 S    
C65   H45   1.111853 S    
O1    Zn1   2.013703 S    
C5    C9    1.402243 A    
O5    C3    1.289825 A    
C49   C50   1.534767 S    
C38   H6    1.080152 S    
C53   H18   1.111141 S    
C6    C10   1.402725 A    
C60   H30   1.110406 S    
C7    N9    1.433927 S    
N9    O14   1.299455 A    
C48   N18   1.435432 S    
C35   H3    1.079484 S    
C50   C51   1.525497 S    
N8    O12   1.301045 A    
C8    N10   1.435648 S    
C62   H38   1.111819 S    
N14   O24   1.300942 A    
C34   N14   1.435670 S    
N16   O27   1.301205 A    
C6    N8    1.436132 S    
C35   C41   1.414557 A    
C50   H10   1.110539 S    
C52   H19   1.110196 S    
C63   H35   1.110854 S    
C55   C56   1.533942 S    
C5    N7    1.435990 S    
C56   H25   1.111129 S    
C58   C59   1.534202 S    
C38   C40   1.414095 A    
C51   H9    1.110444 S    
N12   O20   1.301081 A    
N1    C18   1.352679 A    
C8    C12   1.401680 A    
N2    C17   1.353655 A    
C62   H39   1.109226 S    
N10   O15   1.300895 A    
C63   H36   1.110715 S    
O3    Zn1   1.999663 S    
C52   H20   1.109283 S    
C64   C65   1.537337 S    
C54   H15   1.110851 S    
C39   C43   1.413296 A    
C49   H12   1.110267 S    
C57   H21   1.110431 S    
C13   C18   1.444054 S    
N18   O32   1.301106 A    
C62   C63   1.526217 S    
C14   C17   1.442545 S    
C45   N15   1.432825 S    
N7    O9    1.300688 A    
N3    C17   1.351588 A    
C66   H42   1.110923 S    
C41   C47   1.416522 A    
C24   C26   1.412430 A    
C53   H17   1.110610 S    
C46   C47   1.416324 A    
C22   C24   1.400488 A    
C19   C21   1.382515 A    
C20   C22   1.382182 A    
C59   C60   1.525688 S    
O4    Zn2   1.999665 S    
C53   C54   1.525668 S    
O2    Zn2   2.013701 S    
O7    C4    1.288946 A    
N11   O18   1.300911 A    
O8    C3    1.288676 A    
C11   C55   1.525748 S    
O5    Zn1   1.990472 S    
C58   H33   1.109569 S    
N14   O23   1.301051 A    
C23   C25   1.404965 A    
C11   C14   1.409801 A    
C47   N17   1.436325 S    
N15   O25   1.301088 A    
C26   C28   1.426992 A    
C12   C13   1.412678 A    
N13   O21   1.299076 A    
C59   H32   1.109896 S    
C36   N6    1.359255 A    
C32   C64   1.532987 S    
Zn1   N5    2.000883 S    
