data_mof_unit_50579.cif
_audit_creation_date              2012-12-11T14:36:00-0500
_audit_creation_method            fapswitch 2.2
_symmetry_space_group_name_H-M    P1
_symmetry_Int_Tables_number       1
_space_group_crystal_system       triclinic
_cell_length_a                    14.095276
_cell_length_b                    16.658252
_cell_length_c                    7.057131
_cell_angle_alpha                 89.400173
_cell_angle_beta                  79.916199
_cell_angle_gamma                 89.871111
_cell_volume                      1631.34692843

loop_
_atom_site_label
_atom_site_type_symbol
_atom_type_description
_atom_site_fract_x
_atom_site_fract_y
_atom_site_fract_z
_atom_type_partial_charge
O1    O     O_R   0.337460 0.413110 0.524760 -0.537562
O2    O     O_R   0.662540 0.913110 0.475240 -0.530392
O3    O     O_R   0.348690 0.587910 0.191230 -0.530557
O4    O     O_R   0.651310 0.087910 0.808770 -0.533097
O5    O     O_R   0.166530 0.586890 0.082470 -0.524695
O6    O     O_R   0.833470 0.086890 0.917530 -0.536715
C1    C     C_R   0.372728 0.615181 0.352010 0.628270
C2    C     C_R   0.629413 0.116385 0.646526 0.635696
O7    O     O_R   0.348700 0.413830 0.191250 -0.540611
O8    O     O_R   0.651300 0.913830 0.808750 -0.538817
O9    O     O_R   0.166530 0.411570 0.082490 -0.563667
O10   O     O_R   0.833470 0.911570 0.917510 -0.545167
C3    C     C_R   0.374079 0.388008 0.352486 0.747992
C4    C     C_R   0.628156 0.886036 0.647652 0.768537
O11   O     O_R   0.337460 0.588430 0.524740 -0.552834
O12   O     O_R   0.662540 0.088430 0.475260 -0.551900
O13   O     O_3   0.192230 0.499460 0.407330 -0.382506
O14   O     O_3   0.807770 0.999460 0.592670 -0.389549
V1    V     V_3+5 0.263080 0.500100 0.108540 1.404308
V2    V     V_3+5 0.736920 0.000100 0.891460 1.410658
O15   O     O_R   0.155290 0.412090 0.756570 -0.517603
O16   O     O_R   0.844710 0.912090 0.243430 -0.524917
C5    C     C_R   0.129951 0.385168 0.936966 0.756300
C6    C     C_R   0.873161 0.887629 0.063021 0.758390
O17   O     O_R   0.155290 0.586170 0.756550 -0.556494
O18   O     O_R   0.844710 0.086170 0.243450 -0.551415
C7    C     C_R   0.132605 0.614663 0.933291 0.748767
C8    C     C_R   0.866630 0.115061 0.065437 0.723792
V3    V     V_3+5 0.240910 0.499900 0.616030 1.392582
V4    V     V_3+5 0.759090 0.999900 0.383970 1.401023
O19   O     O_3   0.311760 0.500540 0.867100 -0.378093
O20   O     O_3   0.688240 0.000540 0.132900 -0.374611
C9    C     C_3   0.102971 0.749153 0.103239 0.335365
C10   C     C_3   0.888444 0.258663 0.932555 0.335002
H1    H     H_    0.103539 0.718124 0.244013 0.084737
H2    H     H_    0.870872 0.235415 0.795129 0.091027
C11   C     C_3   0.031911 0.822914 0.144404 0.072465
C12   C     C_3   0.964781 0.328270 0.882689 0.102368
H3    H     H_    0.997029 0.818624 0.296388 0.132579
H4    H     H_    0.990815 0.324375 0.725185 0.172647
C13   C     C_3   0.959836 0.663833 0.061057 0.205675
C14   C     C_3   0.032055 0.167281 0.890291 0.239239
C15   C     C_3   0.061937 0.730984 0.774850 -0.402671
C16   C     C_3   0.956069 0.216964 0.223006 -0.343759
C17   C     C_3   0.064743 0.687836 0.968081 -0.157915
C18   C     C_3   0.935057 0.187685 0.027860 -0.205947
H5    H     H_    0.040145 0.688109 0.672141 0.146462
H6    H     H_    0.984738 0.166694 0.297133 0.164302
H7    H     H_    0.137730 0.743465 0.709000 0.203174
H8    H     H_    0.886140 0.225198 0.317903 0.198111
C19   C     C_3   0.947995 0.817900 0.021829 -0.147741
C20   C     C_3   0.057355 0.314136 0.979472 -0.176112
C21   C     C_3   0.890371 0.738301 0.075769 0.231407
C22   C     C_3   0.106574 0.237755 0.881537 0.239653
C23   C     C_3   0.998374 0.809884 0.801028 0.514854
C24   C     C_3   0.024236 0.292299 0.204784 0.513045
H9    H     H_    0.932255 0.620181 0.966178 0.027528
H10   H     H_    0.064111 0.113572 0.950330 0.010331
H11   H     H_    0.842170 0.733252 0.970339 0.078751
H12   H     H_    0.161714 0.218915 0.961363 0.061481
H13   H     H_    0.559849 0.814252 0.358585 0.195313
H14   H     H_    0.450776 0.320083 0.638805 0.193424
H15   H     H_    0.425496 0.698638 0.642857 0.138970
H16   H     H_    0.579103 0.202732 0.353825 0.142337
C25   C     C_2   0.444971 0.682600 0.339739 0.271037
C26   C     C_2   0.560750 0.185651 0.656909 0.272948
C27   C     C_2   0.461628 0.719677 0.502482 -0.216388
C28   C     C_2   0.544767 0.224054 0.494248 -0.202766
H17   H     H_    0.526610 0.794164 0.798707 0.178032
H18   H     H_    0.476027 0.297809 0.201233 0.178926
C29   C     C_2   0.556795 0.819088 0.658469 -0.390203
C30   C     C_2   0.448117 0.323317 0.340838 -0.407830
C31   C     C_2   0.529900 0.788519 0.498072 -0.112981
C32   C     C_2   0.478340 0.293939 0.499755 -0.120809
N1    N     N_2   0.924658 0.810435 0.678873 -0.543604
H19   H     H_    0.919319 0.860862 0.595305 0.287537
C33   C     C_3   0.882375 0.738704 0.617009 -0.513162
H20   H     H_    0.806237 0.751036 0.606782 0.231546
H21   H     H_    0.884316 0.684876 0.708043 0.138489
H22   H     H_    0.926592 0.722212 0.482384 0.286610
N2    N     N_2   0.107007 0.273589 0.301943 -0.475083
H23   H     H_    0.140034 0.320407 0.359059 0.297445
C34   C     C_3   0.161945 0.198456 0.287774 -0.536905
H24   H     H_    0.237898 0.210417 0.220853 0.154158
H25   H     H_    0.133156 0.150583 0.208008 0.132307
H26   H     H_    0.161174 0.170816 0.428784 0.272036
O21   O     O_3   0.491613 0.711740 0.162264 -0.565572
C35   C     C_3   0.541587 0.649524 0.052033 -0.289095
H27   H     H_    0.495138 0.621841 0.958986 0.173391
H28   H     H_    0.570465 0.602810 0.141085 0.110298
H29   H     H_    0.604168 0.676068 0.954452 0.144011
O22   O     O_3   0.516995 0.214522 0.834706 -0.560835
C36   C     C_3   0.448950 0.157937 0.924989 -0.292643
H30   H     H_    0.484666 0.109495 0.995717 0.162642
H31   H     H_    0.405122 0.131781 0.824013 0.115953
H32   H     H_    0.398391 0.188785 0.039154 0.148824
O23   O     O_3   0.197576 0.772484 0.013058 -0.556999
C37   C     C_3   0.259960 0.783460 0.146747 -0.230929
H33   H     H_    0.254431 0.734692 0.256458 0.118175
H34   H     H_    0.247520 0.842623 0.216831 0.149212
H35   H     H_    0.335008 0.783586 0.066790 0.195489
O24   O     O_3   0.803679 0.284392 0.056967 -0.564375
C38   C     C_3   0.728388 0.300451 0.953999 -0.256368
H36   H     H_    0.704498 0.244283 0.893294 0.168021
H37   H     H_    0.750203 0.345813 0.837915 0.152420
H38   H     H_    0.666134 0.325038 0.054858 0.173380
N3    N     N_2   0.086531 0.898028 0.121563 -0.515749
H39   H     H_    0.142278 0.906224 0.007663 0.326179
C39   C     C_3   0.043329 0.971040 0.201965 -0.604217
H40   H     H_    0.101752 0.013376 0.217945 0.171674
H41   H     H_    0.998192 0.959413 0.344612 0.222481
H42   H     H_    0.000018 0.998639 0.102746 0.173648
N4    N     N_2   0.919198 0.406292 0.919870 -0.516969
H43   H     H_    0.884606 0.419886 0.056002 0.309421
C40   C     C_3   0.952328 0.473134 0.794051 -0.587660
H44   H     H_    0.005781 0.507280 0.855316 0.189246
H45   H     H_    0.890343 0.512375 0.778871 0.180499
H46   H     H_    0.987853 0.453376 0.650181 0.211227
O25   O     O_3   0.961843 0.633127 0.247431 -0.556947
C41   C     C_3   0.934219 0.552729 0.267154 -0.233933
H47   H     H_    0.932372 0.536142 0.419320 0.154246
H48   H     H_    0.988830 0.515185 0.177529 0.153163
H49   H     H_    0.861168 0.543118 0.232907 0.135781
O26   O     O_3   0.012773 0.156233 0.701694 -0.529084
C42   C     C_3   0.031791 0.077436 0.640640 -0.243602
H50   H     H_    0.032750 0.076072 0.485624 0.143338
H51   H     H_    0.972146 0.038156 0.706200 0.161886
H52   H     H_    0.103607 0.056571 0.665810 0.120719
O27   O     O_3   0.830377 0.743279 0.258313 -0.546489
C43   C     C_3   0.741484 0.703516 0.261520 -0.215434
H53   H     H_    0.704971 0.695194 0.412690 0.154856
H54   H     H_    0.750927 0.643166 0.195192 0.116230
H55   H     H_    0.694375 0.740871 0.185583 0.155628
O28   O     O_3   0.151619 0.255358 0.689988 -0.526702
C44   C     C_3   0.251899 0.239638 0.663611 -0.216562
H56   H     H_    0.265551 0.174871 0.687747 0.107393
H57   H     H_    0.287485 0.277324 0.759847 0.140858
H58   H     H_    0.284125 0.254107 0.513740 0.161693
N5    N     N_2   0.060722 0.879189 0.747542 -0.514071
H59   H     H_    0.033114 0.933451 0.795154 0.235103
C45   C     C_3   0.133123 0.880346 0.574275 -0.590651
H60   H     H_    0.137587 0.940216 0.504900 0.195582
H61   H     H_    0.116552 0.835503 0.470891 0.214804
H62   H     H_    0.204756 0.866990 0.612008 0.214948
N6    N     N_2   0.974749 0.363158 0.299865 -0.520834
H63   H     H_    0.020187 0.405366 0.340528 0.249472
C46   C     C_3   0.881199 0.360685 0.426285 -0.598234
H64   H     H_    0.863204 0.419071 0.495605 0.181054
H65   H     H_    0.880160 0.315305 0.540717 0.197257
H66   H     H_    0.822778 0.348792 0.345128 0.251196

loop_
_geom_bond_atom_site_label_1
_geom_bond_atom_site_label_2
_ccdc_geom_bond_type
C44   H58   S    
C26   C28   D    
O21   C35   S    
C2    C26   S    
C36   H30   S    
C9    C17   S    
C4    C29   S    
C46   H64   S    
O4    C2    A    
V1    O19   S    
C14   H10   S    
N6    H63   S    
C21   H11   S    
C14   O26   S    
C24   N2    S    
C22   H12   S    
C33   H20   S    
C8    C18   S    
C10   O24   S    
H16   C28   S    
C46   H65   S    
C11   N3    S    
O3    C1    A    
C45   H61   S    
C11   C19   S    
C12   C20   S    
C28   C32   S    
C40   H44   S    
C22   O28   S    
O23   C37   S    
C23   N5    S    
C14   C18   S    
C24   N6    S    
H17   C29   S    
O7    C3    A    
C36   H31   S    
N2    C34   S    
O5    C7    A    
O7    V1    S    
O6    C8    A    
C25   C27   D    
O8    V2    S    
C40   H45   S    
C42   H52   S    
N3    H39   S    
O3    V1    S    
C27   C31   S    
V4    O20   S    
C19   C23   S    
C41   H49   S    
C23   N1    S    
C7    C17   S    
C6    C19   S    
C1    O11   A    
C2    O12   A    
N3    C39   S    
N6    C46   S    
C41   H48   S    
O11   V3    S    
C33   H21   S    
O17   V3    S    
H15   C27   S    
C44   H56   S    
C46   H66   S    
C30   C32   D    
O8    C4    A    
C45   H62   S    
C29   C31   D    
C12   N4    S    
C15   H7    S    
C26   O22   S    
C16   C18   S    
H13   C31   S    
O15   V3    S    
N2    H23   S    
C19   C21   S    
C43   H54   S    
N1    H19   S    
C1    C25   S    
N1    C33   S    
C16   C24   S    
C34   H24   S    
C35   H29   S    
N5    H59   S    
C40   H46   S    
O9    V1    S    
O10   V2    S    
O1    V3    S    
C20   C22   S    
C38   H37   S    
C13   O25   S    
C25   O21   S    
C15   C17   S    
C13   C21   S    
C10   C18   S    
C15   C23   S    
C34   H25   S    
C35   H28   S    
O18   V4    S    
C36   H32   S    
C37   H34   S    
O15   C5    A    
O14   V4    S    
O16   C6    A    
C39   H42   S    
C43   H55   S    
O1    C3    A    
O13   V1    S    
C41   H47   S    
N4    H43   S    
V2    O20   S    
C33   H22   S    
C16   H8    S    
C44   H57   S    
O16   V4    S    
C10   C12   S    
O25   C41   S    
O28   C44   S    
O5    V1    S    
C3    C30   S    
O17   C7    A    
C37   H35   S    
O6    V2    S    
O10   C6    A    
O18   C8    A    
O2    V4    S    
C39   H41   S    
C43   H53   S    
O27   C43   S    
C13   H9    S    
C11   H3    S    
O13   V3    S    
C14   C22   S    
C12   H4    S    
N5    C45   S    
C5    C20   S    
C42   H50   S    
C15   H5    S    
O9    C5    A    
O22   C36   S    
C9    H1    S    
C10   H2    S    
C38   H38   S    
O14   V2    S    
O24   C38   S    
O2    C4    A    
C9    C11   S    
O4    V2    S    
C16   H6    S    
C34   H26   S    
C21   O27   S    
C35   H27   S    
V3    O19   S    
C37   H33   S    
C39   H40   S    
C38   H36   S    
C42   H51   S    
C13   C17   S    
H14   C32   S    
H18   C30   S    
C9    O23   S    
C45   H60   S    
O12   V4    S    
C20   C24   S    
O26   C42   S    
N4    C40   S    
