data_mof_unit_23058.cif
_audit_creation_date              2012-10-26T17:11:25-0400
_audit_creation_method            fapswitch 2.2
_symmetry_space_group_name_H-M    P1
_symmetry_Int_Tables_number       1
_space_group_crystal_system       triclinic
_cell_length_a                    27.951423
_cell_length_b                    18.738237
_cell_length_c                    16.833348
_cell_angle_alpha                 89.887485
_cell_angle_beta                  62.881028
_cell_angle_gamma                 90.337456
_cell_volume                      7847.11313311

loop_
_atom_site_label
_atom_site_type_symbol
_atom_type_description
_atom_site_fract_x
_atom_site_fract_y
_atom_site_fract_z
_atom_type_partial_charge
C1    C     C_R   0.293817 0.726209 0.330373 0.565039
C2    C     C_R   0.597067 0.000529 0.514029 0.027629
C3    C     C_R   0.692263 0.710894 0.901655 0.001588
C4    C     C_R   0.927492 0.901544 0.065789 0.555314
C5    C     C_R   0.071784 0.099386 0.934816 0.543401
C6    C     C_R   0.074889 0.905229 0.932295 0.559284
C7    C     C_R   0.925992 0.095823 0.067003 0.552808
C8    C     C_R   0.426964 0.402212 0.066150 0.555539
C9    C     C_R   0.572820 0.597987 0.934003 0.545763
C10   C     C_R   0.574295 0.404563 0.932857 0.541640
C11   C     C_R   0.425860 0.595601 0.067093 0.554739
C12   C     C_R   0.027042 0.617057 0.576335 -0.020177
C13   C     C_R   0.903910 0.499414 0.482574 0.024014
C14   C     C_R   0.973440 0.381153 0.421916 -0.019175
C15   C     C_R   0.929624 0.616067 0.562821 -0.020606
C16   C     C_R   0.072258 0.383910 0.431304 -0.023118
C17   C     C_R   0.526717 0.117687 0.577581 -0.019745
C18   C     C_R   0.472120 0.881048 0.425662 -0.019133
C19   C     C_R   0.429106 0.116746 0.564545 -0.020701
C20   C     C_R   0.570792 0.883402 0.435208 -0.021110
C21   C     C_R   0.989610 0.673010 0.614172 0.162863
C22   C     C_R   0.010419 0.324385 0.385754 0.164193
C23   C     C_R   0.941096 0.672338 0.607936 0.164962
C24   C     C_R   0.097790 0.500474 0.511868 0.027175
C25   C     C_R   0.059920 0.326446 0.388874 0.162176
C26   C     C_R   0.489613 0.174178 0.614453 0.163438
C27   C     C_R   0.508560 0.823619 0.390839 0.164317
C28   C     C_R   0.441058 0.173598 0.608278 0.164270
C29   C     C_R   0.557936 0.825343 0.394254 0.163903
C30   C     C_R   0.965702 0.558563 0.528719 -0.012269
C31   C     C_R   0.036098 0.441311 0.465476 -0.011957
C32   C     C_R   0.014161 0.558875 0.535945 -0.012072
C33   C     C_R   0.987218 0.440476 0.459489 -0.012867
C34   C     C_R   0.464928 0.058892 0.531172 -0.012162
C35   C     C_R   0.618108 0.884001 0.445249 -0.127499
C36   C     C_R   0.534905 0.941132 0.468867 -0.011553
C37   C     C_R   0.513486 0.059193 0.538111 -0.011677
C38   C     C_R   0.486024 0.940413 0.462970 -0.012423
C39   C     C_R   0.451329 0.999639 0.493264 0.008391
C40   C     C_R   0.548508 0.000365 0.506800 0.010549
C41   C     C_R   0.952350 0.499504 0.490153 0.008212
C42   C     C_R   0.049390 0.500315 0.504162 0.010186
C43   C     C_R   0.386255 0.937804 0.456919 -0.005916
C44   C     C_R   0.613489 0.062247 0.543386 -0.003621
C45   C     C_R   0.629735 0.939334 0.490554 -0.009106
C46   C     C_R   0.381772 0.116061 0.554583 -0.130229
C47   C     C_R   0.370337 0.060859 0.508941 -0.013792
C48   C     C_R   0.887242 0.437529 0.453912 -0.003962
C49   C     C_R   0.113908 0.562050 0.541970 -0.004208
C50   C     C_R   0.130515 0.439359 0.488450 -0.009439
C51   C     C_R   0.871358 0.560677 0.505816 -0.015349
C52   C     C_R   0.333852 0.935707 0.462349 -0.032468
C53   C     C_R   0.665836 0.064368 0.538204 -0.028790
C54   C     C_R   0.673672 0.936597 0.511775 -0.029394
C55   C     C_R   0.326292 0.063494 0.488110 -0.034358
C56   C     C_R   0.834843 0.435521 0.459182 -0.036069
C57   C     C_R   0.422415 0.880757 0.423019 -0.121924
C58   C     C_R   0.166085 0.564253 0.537374 -0.029705
C59   C     C_R   0.174088 0.436560 0.510594 -0.029521
C60   C     C_R   0.827328 0.563455 0.484908 -0.029496
C61   C     C_R   0.307026 0.999871 0.470138 -0.178152
C62   C     C_R   0.692349 0.000111 0.531290 -0.175212
C63   C     C_R   0.808524 0.499964 0.465505 -0.175566
C64   C     C_R   0.192612 0.500040 0.530498 -0.176109
C65   C     C_3   0.587213 0.709498 0.417813 -0.281546
C66   C     C_3   0.365150 0.220762 0.737804 -0.286861
C67   C     C_3   0.513581 0.767070 0.258230 -0.279965
C68   C     C_R   0.577012 0.118904 0.578223 -0.123539
C69   C     C_3   0.527354 0.292446 0.602847 -0.278854
C70   C     C_3   0.090658 0.210032 0.407274 -0.282624
C71   C     C_3   0.865354 0.716708 0.739727 -0.289294
C72   C     C_3   0.015781 0.270331 0.251626 -0.284863
C73   C     C_3   0.026342 0.791577 0.605392 -0.279873
C74   C     C_3   0.267371 0.914685 0.889216 -0.311786
C75   C     C_3   0.810763 0.069845 0.923712 -0.316784
C76   C     C_3   0.848176 0.621341 0.009046 -0.308172
C77   C     C_3   0.199717 0.069805 0.046666 -0.315035
C78   C     C_3   0.758861 0.426655 0.912843 -0.305492
C79   C     C_R   0.119275 0.384218 0.442391 -0.131796
C80   C     C_3   0.307015 0.565497 0.930975 -0.314414
C81   C     C_3   0.211030 0.414454 0.144189 -0.301959
C82   C     C_3   0.750514 0.901830 0.861102 -0.314864
C83   C     C_3   0.185425 0.941224 0.702710 0.035381
C84   C     C_3   0.186740 0.998781 0.766339 -0.277548
C85   C     C_3   0.236644 0.046118 0.721472 -0.483605
C86   C     C_3   0.853475 0.064764 0.287291 0.046230
C87   C     C_3   0.884174 0.027431 0.330653 -0.249856
C88   C     C_3   0.854097 0.961444 0.382688 -0.427783
C89   C     C_3   0.943152 0.776757 0.200662 0.020511
C90   C     C_R   0.882470 0.615486 0.552400 -0.134593
C91   C     C_3   0.928126 0.715291 0.268205 -0.250171
C92   C     C_3   0.974151 0.662598 0.242690 -0.491031
C93   C     C_3   0.067756 0.231265 0.773280 0.029742
C94   C     C_3   0.011492 0.225601 0.852596 -0.261985
C95   C     C_3   0.976316 0.288182 0.854513 -0.496355
C96   C     C_3   0.662436 0.463539 0.744088 0.042006
C97   C     C_3   0.724030 0.463359 0.702930 -0.287676
C98   C     C_3   0.745585 0.536854 0.709909 -0.482187
C99   C     C_3   0.353652 0.564779 0.287402 0.045817
C100  C     C_3   0.384368 0.528031 0.331130 -0.250014
C101  C     C_R   0.923392 0.380396 0.420217 -0.121751
C102  C     C_3   0.354876 0.461402 0.382201 -0.429268
C103  C     C_3   0.442307 0.273975 0.197610 0.018764
C104  C     C_3   0.427411 0.213082 0.265886 -0.249777
C105  C     C_3   0.472754 0.159147 0.239162 -0.490071
C106  C     C_3   0.568608 0.733705 0.777851 0.028847
C107  C     C_3   0.512642 0.728018 0.857892 -0.260186
C108  C     C_3   0.478034 0.792153 0.862848 -0.495675
C109  C     C_R   0.706405 0.274396 0.669526 0.572040
C110  C     C_R   0.077257 0.618424 0.577174 -0.124025
C111  C     C_R   0.216719 0.760609 0.956330 0.035315
C112  C     C_R   0.778109 0.227616 0.046567 0.033683
C113  C     C_R   0.780681 0.764645 0.045484 0.033501
C114  C     C_R   0.217552 0.237133 0.956282 0.029794
C115  C     C_R   0.717441 0.263919 0.956759 0.034742
C116  C     C_R   0.277292 0.725180 0.046621 0.033918
C117  C     C_R   0.274194 0.274382 0.052334 0.032294
C118  C     C_R   0.723031 0.730215 0.950276 0.029956
C119  C     C_R   0.228440 0.689207 0.964497 -0.141543
C120  C     C_R   0.704356 0.729582 0.670676 0.558162
C121  C     C_R   0.763164 0.298536 0.044229 -0.144444
C122  C     C_R   0.761187 0.818774 0.010631 -0.144238
C123  C     C_R   0.221906 0.308765 0.976061 -0.148670
C124  C     C_R   0.731829 0.192884 0.959992 -0.139594
C125  C     C_R   0.265611 0.796493 0.038299 -0.145187
C126  C     C_R   0.269833 0.202864 0.032423 -0.140954
C127  C     C_R   0.742074 0.676008 0.985808 -0.148939
C128  C     C_R   0.259506 0.671148 0.007612 0.142576
C129  C     C_R   0.733852 0.317449 0.998586 0.144546
C130  C     C_R   0.732986 0.802231 0.962248 0.139658
C131  C     C_R   0.295652 0.270270 0.329263 0.561479
C132  C     C_R   0.248636 0.327730 0.026311 0.142633
C133  C     C_R   0.762551 0.174326 0.003457 0.143523
C134  C     C_R   0.237029 0.814874 0.991185 0.147064
C135  C     C_R   0.240858 0.183765 0.986235 0.139026
C136  C     C_R   0.771436 0.692500 0.032332 0.145413
C137  C     C_R   0.141060 0.823572 0.946036 -0.143465
C138  C     C_R   0.855561 0.169736 0.056544 -0.139087
C139  C     C_R   0.855700 0.828768 0.056313 -0.186102
C140  C     C_R   0.141284 0.175899 0.946092 -0.140467
C141  C     C_R   0.641477 0.325205 0.945842 -0.136239
C142  C     C_R   0.793873 0.226291 0.330411 0.563382
C143  C     C_R   0.354736 0.668021 0.056893 -0.138177
C144  C     C_R   0.351966 0.334774 0.059442 -0.138956
C145  C     C_R   0.646153 0.668196 0.942157 -0.180594
C146  C     C_R   0.120492 0.856101 0.892840 -0.013191
C147  C     C_R   0.880130 0.143942 0.107142 -0.014478
C148  C     C_R   0.884654 0.847393 0.102990 -0.019147
C149  C     C_R   0.113731 0.154913 0.898096 -0.023470
C150  C     C_R   0.620684 0.357160 0.892796 -0.022370
C151  C     C_R   0.379736 0.643237 0.107289 -0.013655
C152  C     C_R   0.382952 0.349750 0.103974 -0.021949
C153  C     C_R   0.205805 0.772961 0.669859 0.555235
C154  C     C_R   0.616366 0.650957 0.896312 -0.016578
C155  C     C_R   0.147447 0.847020 0.800044 0.251472
C156  C     C_R   0.857956 0.159430 0.198384 0.229011
C157  C     C_R   0.869717 0.817884 0.188009 0.234314
C158  C     C_R   0.129386 0.183057 0.812297 0.236240
C159  C     C_R   0.647579 0.348187 0.799775 0.252651
C160  C     C_R   0.357737 0.659141 0.198390 0.228807
C161  C     C_R   0.368831 0.318662 0.187901 0.232209
C162  C     C_R   0.630935 0.680835 0.811768 0.238426
C163  C     C_R   0.184601 0.791328 0.764500 -0.024759
C164  C     C_R   0.203895 0.230536 0.671052 0.561766
C165  C     C_R   0.814741 0.206695 0.236325 -0.014981
C166  C     C_R   0.820012 0.782509 0.232357 -0.017470
C167  C     C_R   0.179045 0.219042 0.768338 -0.022965
C168  C     C_R   0.685184 0.293168 0.764201 -0.012798
C169  C     C_R   0.314456 0.706302 0.236289 -0.015616
C170  C     C_R   0.318909 0.284088 0.232994 -0.013298
C171  C     C_R   0.680914 0.715549 0.766858 -0.025014
C172  C     C_R   0.204718 0.758483 0.818167 -0.186851
C173  C     C_R   0.789348 0.230465 0.185783 -0.176051
C174  C     C_R   0.791616 0.763413 0.184710 -0.140279
C175  C     C_R   0.795836 0.769981 0.329143 0.558748
C176  C     C_R   0.206855 0.238917 0.816796 -0.185118
C177  C     C_R   0.706256 0.261917 0.817494 -0.191897
C178  C     C_R   0.288808 0.729497 0.185758 -0.176195
C179  C     C_R   0.289001 0.267719 0.187093 -0.189430
C180  C     C_R   0.710623 0.731878 0.812913 -0.141794
C181  C     C_R   0.196558 0.631687 0.527902 0.539114
C182  C     C_R   0.803726 0.368167 0.470981 0.535339
C183  C     C_R   0.799873 0.630804 0.484512 0.541942
C184  C     C_R   0.200717 0.369170 0.513598 0.546733
C185  C     C_R   0.696497 0.131732 0.528134 0.537949
C186  C     C_R   0.402846 0.999569 0.485852 0.023189
C187  C     C_R   0.303402 0.868295 0.472128 0.536489
C188  C     C_R   0.299510 0.130848 0.485649 0.540810
C189  C     C_R   0.700556 0.869195 0.514080 0.547903
C190  C     C_R   0.185836 0.778882 0.907343 -0.007017
C191  C     C_R   0.808440 0.209668 0.096648 -0.000218
C192  C     C_R   0.810333 0.784636 0.095783 -0.005337
C193  C     C_R   0.187449 0.218522 0.906219 0.000174
C194  C     C_R   0.687128 0.282283 0.906830 -0.008611
C195  C     C_R   0.307632 0.707894 0.096887 0.000302
C196  C     C_R   0.305937 0.291922 0.099837 -0.005347
Cu1   Cu    Cu3+1 0.209920 0.785290 0.495070 0.909035
Cu2   Cu    Cu3+1 0.504760 0.500000 0.075850 0.911872
Cu3   Cu    Cu3+1 0.995240 0.000000 0.924150 0.943110
Cu4   Cu    Cu3+1 0.004760 0.000000 0.075850 0.902346
Cu5   Cu    Cu3+1 0.790080 0.214710 0.504930 0.900735
Cu6   Cu    Cu3+1 0.790080 0.785290 0.504930 0.864241
Cu7   Cu    Cu3+1 0.209920 0.214710 0.495070 0.893046
Cu8   Cu    Cu3+1 0.709920 0.285290 0.495070 0.922915
Cu9   Cu    Cu3+1 0.290080 0.714710 0.504930 0.900453
Cu10  Cu    Cu3+1 0.290080 0.285290 0.504930 0.867144
Cu11  Cu    Cu3+1 0.709920 0.714710 0.495070 0.897839
Cu12  Cu    Cu3+1 0.495240 0.500000 0.924150 0.934638
H1    H     H_    0.269717 0.999926 0.465193 0.155138
H2    H     H_    0.852707 0.655675 0.585485 0.151781
H3    H     H_    0.775364 0.931800 0.885727 0.123518
H4    H     H_    0.183123 0.968101 0.645676 0.168140
H5    H     H_    0.223994 0.911511 0.673670 0.123532
H6    H     H_    0.150505 0.032065 0.787667 0.210369
H7    H     H_    0.186629 0.973955 0.826297 0.156762
H8    H     H_    0.273669 0.013440 0.696338 0.145765
H9    H     H_    0.237563 0.084927 0.770502 0.163717
H10   H     H_    0.235802 0.075999 0.665210 0.166864
H11   H     H_    0.852380 0.028697 0.235472 0.125093
H12   H     H_    0.811403 0.074316 0.338676 0.143653
H13   H     H_    0.913515 0.337043 0.388174 0.146526
H14   H     H_    0.924363 0.011447 0.277969 0.190727
H15   H     H_    0.890067 0.064738 0.376780 0.162399
H16   H     H_    0.818537 0.977660 0.444554 0.144906
H17   H     H_    0.880692 0.929088 0.401195 0.151706
H18   H     H_    0.840712 0.928614 0.341716 0.206514
H19   H     H_    0.979881 0.803590 0.196095 0.154654
H20   H     H_    0.954014 0.755427 0.132643 0.105942
H21   H     H_    0.917892 0.737161 0.335335 0.199342
H22   H     H_    0.892458 0.686313 0.271589 0.165513
H23   H     H_    0.984576 0.638952 0.176391 0.144399
H24   H     H_    0.087122 0.662151 0.608655 0.144710
H25   H     H_    0.961755 0.618994 0.293133 0.162680
H26   H     H_    0.010131 0.689818 0.240558 0.145352
H27   H     H_    0.063532 0.233399 0.710804 0.158165
H28   H     H_    0.087509 0.282544 0.776121 0.109399
H29   H     H_    0.991924 0.175124 0.847798 0.193583
H30   H     H_    0.014702 0.224856 0.915985 0.154458
H31   H     H_    0.994598 0.339335 0.860702 0.148749
H32   H     H_    0.935981 0.282384 0.912700 0.149778
H33   H     H_    0.971429 0.289321 0.792628 0.147598
H34   H     H_    0.645629 0.485886 0.812453 0.138973
H35   H     H_    0.213585 0.647392 0.936962 0.107967
H36   H     H_    0.650643 0.500915 0.704870 0.179281
H37   H     H_    0.737584 0.424561 0.738082 0.147194
H38   H     H_    0.740924 0.447384 0.632115 0.186952
H39   H     H_    0.735804 0.576636 0.670700 0.165679
H40   H     H_    0.789829 0.534436 0.683697 0.153168
H41   H     H_    0.727889 0.554132 0.780670 0.141332
H42   H     H_    0.352796 0.528438 0.235624 0.126407
H43   H     H_    0.311502 0.574130 0.338618 0.142978
H44   H     H_    0.424886 0.512884 0.278735 0.190135
H45   H     H_    0.389493 0.565417 0.377950 0.163166
H46   H     H_    0.775486 0.339766 0.076299 0.103955
H47   H     H_    0.318557 0.476799 0.443388 0.146227
H48   H     H_    0.381403 0.429950 0.401780 0.150790
H49   H     H_    0.342764 0.428001 0.340053 0.207492
H50   H     H_    0.480067 0.299572 0.190301 0.156200
H51   H     H_    0.451312 0.252195 0.130513 0.105065
H52   H     H_    0.418633 0.235376 0.332240 0.199458
H53   H     H_    0.390869 0.185032 0.271511 0.163912
H54   H     H_    0.481730 0.135120 0.173620 0.145400
H55   H     H_    0.460444 0.115952 0.290129 0.162543
H56   H     H_    0.509594 0.185424 0.234863 0.146216
H57   H     H_    0.767313 0.874194 0.022198 0.111486
H58   H     H_    0.563813 0.738539 0.716067 0.157590
H59   H     H_    0.589261 0.783731 0.782093 0.113584
H60   H     H_    0.492246 0.678682 0.852025 0.193783
H61   H     H_    0.516479 0.724935 0.920651 0.157973
H62   H     H_    0.497132 0.842174 0.870224 0.150762
H63   H     H_    0.437893 0.786228 0.921477 0.150312
H64   H     H_    0.472559 0.795686 0.801611 0.147106
H65   H     H_    0.202780 0.349691 0.955073 0.103867
H66   H     H_    0.718810 0.151587 0.929031 0.108437
H67   H     H_    0.280427 0.838272 0.065980 0.102750
H68   H     H_    0.288844 0.161628 0.053207 0.113698
H69   H     H_    0.728742 0.999986 0.538856 0.146475
H70   H     H_    0.735004 0.620596 0.975687 0.100354
H71   H     H_    0.124335 0.835838 0.016476 0.147576
H72   H     H_    0.872294 0.157363 0.986321 0.147548
H73   H     H_    0.867989 0.848931 0.989364 0.138655
H74   H     H_    0.127463 0.158029 0.014203 0.147812
H75   H     H_    0.624069 0.336490 0.016612 0.154009
H76   H     H_    0.371127 0.654959 0.986876 0.146632
H77   H     H_    0.363115 0.356809 0.993703 0.152781
H78   H     H_    0.634030 0.647905 0.008989 0.140343
H79   H     H_    0.237557 0.721012 0.789264 0.136495
H80   H     H_    0.771382 0.500096 0.460026 0.159701
H81   H     H_    0.753657 0.263079 0.216374 0.136498
H82   H     H_    0.754081 0.733886 0.217125 0.150984
H83   H     H_    0.244520 0.268105 0.784543 0.132443
H84   H     H_    0.739685 0.225371 0.788299 0.135431
H85   H     H_    0.253174 0.762238 0.216106 0.136392
H86   H     H_    0.251291 0.238614 0.220015 0.133695
H87   H     H_    0.748993 0.758945 0.779086 0.139928
H88   H     H_    0.633365 0.781309 0.315976 0.234177
H89   H     H_    0.597034 0.727915 0.471407 0.141184
H90   H     H_    0.614570 0.665206 0.381255 0.134855
H91   H     H_    0.228838 0.499910 0.538577 0.146941
H92   H     H_    0.545226 0.688906 0.448207 0.164281
H93   H     H_    0.390093 0.253686 0.605995 0.237922
H94   H     H_    0.336969 0.177039 0.742315 0.128306
H95   H     H_    0.341880 0.270511 0.763732 0.139419
H96   H     H_    0.384816 0.207348 0.780248 0.171388
H97   H     H_    0.457929 0.741890 0.389236 0.243199
H98   H     H_    0.505076 0.715690 0.234215 0.163167
H99   H     H_    0.557539 0.777685 0.221899 0.170213
H100  H     H_    0.491799 0.810307 0.243324 0.129227
H101  H     H_    0.514284 0.218262 0.703619 0.238670
H102  H     H_    0.646926 0.842326 0.414724 0.150599
H103  H     H_    0.530618 0.336376 0.644322 0.153364
H104  H     H_    0.504566 0.312256 0.567851 0.161754
H105  H     H_    0.568450 0.277084 0.552818 0.138563
H106  H     H_    0.136062 0.284985 0.309262 0.229636
H107  H     H_    0.099921 0.226841 0.462049 0.140980
H108  H     H_    0.118752 0.166980 0.368797 0.131296
H109  H     H_    0.048994 0.188399 0.436219 0.164884
H110  H     H_    0.888744 0.751984 0.609176 0.236739
H111  H     H_    0.842178 0.766114 0.767934 0.137062
H112  H     H_    0.885710 0.701866 0.780684 0.171061
H113  H     H_    0.352251 0.156714 0.586875 0.152991
H114  H     H_    0.837075 0.673337 0.743591 0.123904
H115  H     H_    0.960731 0.242245 0.381954 0.243210
H116  H     H_    0.007978 0.219283 0.226016 0.160472
H117  H     H_    0.059570 0.282180 0.215380 0.166520
H118  H     H_    0.993238 0.313503 0.238390 0.128763
H119  H     H_    0.013872 0.715961 0.704446 0.237303
H120  H     H_    0.029232 0.834923 0.647915 0.153113
H121  H     H_    0.003373 0.811768 0.570892 0.161049
H122  H     H_    0.067569 0.777108 0.554990 0.138784
H123  H     H_    0.229199 0.920810 0.026874 0.236780
H124  H     H_    0.412851 0.837752 0.390138 0.147706
H125  H     H_    0.257241 0.970529 0.881488 0.145270
H126  H     H_    0.264731 0.882548 0.836021 0.165746
H127  H     H_    0.309213 0.913311 0.880602 0.136268
H128  H     H_    0.741192 0.070463 0.043644 0.247311
H129  H     H_    0.824279 0.017146 0.935759 0.144496
H130  H     H_    0.846803 0.104116 0.886836 0.149798
H131  H     H_    0.789784 0.062268 0.881940 0.121676
H132  H     H_    0.768648 0.590559 0.081427 0.242106
H133  H     H_    0.861430 0.579137 0.040877 0.138016
H134  H     H_    0.873256 0.669687 0.000516 0.163847
H135  H     H_    0.587108 0.162815 0.609141 0.144365
H136  H     H_    0.854426 0.602352 0.942493 0.128928
H137  H     H_    0.272170 0.086082 0.933151 0.238500
H138  H     H_    0.181121 0.026266 0.025389 0.170112
H139  H     H_    0.166763 0.103280 0.095533 0.151082
H140  H     H_    0.222308 0.046669 0.080273 0.120027
H141  H     H_    0.715240 0.419362 0.050079 0.240616
H142  H     H_    0.743837 0.481043 0.910933 0.134947
H143  H     H_    0.762578 0.397150 0.853228 0.162043
H144  H     H_    0.799119 0.431271 0.910614 0.133443
H145  H     H_    0.236829 0.568176 0.049937 0.244986
H146  H     H_    0.148083 0.342390 0.412453 0.149173
H147  H     H_    0.322763 0.515141 0.944503 0.166138
H148  H     H_    0.341781 0.601076 0.891220 0.147780
H149  H     H_    0.285321 0.553225 0.891300 0.120543
H150  H     H_    0.244546 0.436068 0.009195 0.238167
H151  H     H_    0.215510 0.470783 0.160090 0.143100
H152  H     H_    0.218887 0.379839 0.190438 0.159323
H153  H     H_    0.169072 0.405523 0.155300 0.134806
H154  H     H_    0.683864 0.888363 0.983282 0.246441
H155  H     H_    0.729699 0.940537 0.837721 0.144460
H156  H     H_    0.777215 0.868626 0.803652 0.148867
N1    N     N_2   0.593867 0.767216 0.356384 -0.500241
N2    N     N_2   0.774993 0.101488 0.008423 -0.513925
N3    N     N_2   0.791935 0.636357 0.064874 -0.515598
N4    N     N_2   0.235692 0.110755 0.969008 -0.523257
N5    N     N_2   0.721759 0.390581 0.993893 -0.518510
N6    N     N_2   0.271064 0.598369 0.014767 -0.512463
N7    N     N_2   0.248530 0.400037 0.052118 -0.517310
N8    N     N_2   0.711091 0.857944 0.931644 -0.510027
N9    N     N_2   0.405100 0.231709 0.646163 -0.500975
N10   N     N_2   0.496194 0.762403 0.353232 -0.502135
N11   N     N_2   0.499759 0.232231 0.659439 -0.497926
N12   N     N_2   0.096715 0.269573 0.348557 -0.502013
N13   N     N_2   0.904487 0.729438 0.647982 -0.501738
N14   N     N_2   0.998698 0.263770 0.346385 -0.501478
N15   N     N_2   0.999274 0.730457 0.660533 -0.498947
N16   N     N_2   0.230258 0.888175 0.976897 -0.522404
O1    O     O_R   0.255040 0.869590 0.478480 -0.517981
O2    O     O_R   0.817950 0.203450 0.375560 -0.464847
O3    O     O_R   0.817950 0.796550 0.375560 -0.473570
O4    O     O_R   0.182050 0.203450 0.624440 -0.458793
O5    O     O_R   0.682050 0.296550 0.624440 -0.453265
O6    O     O_R   0.317950 0.703450 0.375560 -0.463560
O7    O     O_R   0.317950 0.296550 0.375560 -0.473589
O8    O     O_R   0.682050 0.703450 0.624440 -0.461118
O9    O     O_R   0.250530 0.763330 0.367210 -0.523007
O10   O     O_R   0.749470 0.236670 0.632790 -0.526728
O11   O     O_R   0.749470 0.763330 0.632790 -0.530767
O12   O     O_R   0.744960 0.130410 0.521520 -0.523438
O13   O     O_R   0.250530 0.236670 0.367210 -0.532024
O14   O     O_R   0.750530 0.263330 0.367210 -0.524507
O15   O     O_R   0.249470 0.736670 0.632790 -0.523061
O16   O     O_R   0.249470 0.263330 0.632790 -0.528939
O17   O     O_R   0.750530 0.736670 0.367210 -0.530357
O18   O     O_R   0.177260 0.690030 0.513710 -0.516779
O19   O     O_R   0.822740 0.309970 0.486290 -0.515420
O20   O     O_R   0.822740 0.690030 0.486290 -0.530597
O21   O     O_R   0.177260 0.309970 0.513710 -0.524599
O22   O     O_R   0.677260 0.190030 0.513710 -0.518562
O23   O     O_R   0.744960 0.869590 0.521520 -0.519092
O24   O     O_R   0.322740 0.809970 0.486290 -0.515928
O25   O     O_R   0.322740 0.190030 0.486290 -0.528700
O26   O     O_R   0.677260 0.809970 0.513710 -0.524615
O27   O     O_R   0.051640 0.926880 0.885090 -0.449906
O28   O     O_R   0.948360 0.073120 0.114910 -0.467761
O29   O     O_R   0.948360 0.926880 0.114910 -0.477084
O30   O     O_R   0.051640 0.073120 0.885090 -0.462223
O31   O     O_R   0.551640 0.426880 0.885090 -0.466997
O32   O     O_R   0.448360 0.573120 0.114910 -0.467245
O33   O     O_R   0.448360 0.426880 0.114910 -0.475919
O34   O     O_R   0.255040 0.130410 0.478480 -0.510874
O35   O     O_R   0.551640 0.573120 0.885090 -0.467653
O36   O     O_R   0.940620 0.926560 0.986760 -0.527143
O37   O     O_R   0.059380 0.073440 0.013240 -0.531215
O38   O     O_R   0.059380 0.926560 0.013240 -0.536914
O39   O     O_R   0.940620 0.073440 0.986760 -0.542205
O40   O     O_R   0.440620 0.426560 0.986760 -0.525172
O41   O     O_R   0.559380 0.573440 0.013240 -0.528555
O42   O     O_R   0.559380 0.426560 0.013240 -0.530972
O43   O     O_R   0.440620 0.573440 0.986760 -0.540783
O44   O     O_3   0.139607 0.895721 0.744734 -0.532847
O45   O     O_R   0.755040 0.369590 0.478480 -0.510412
O46   O     O_3   0.879918 0.130134 0.249947 -0.533798
O47   O     O_3   0.901601 0.828119 0.230482 -0.550933
O48   O     O_3   0.098369 0.169968 0.768869 -0.534595
O49   O     O_3   0.640326 0.395257 0.742226 -0.536520
O50   O     O_3   0.379877 0.630235 0.249891 -0.534060
O51   O     O_3   0.401753 0.326720 0.228843 -0.551076
O52   O     O_3   0.598403 0.670904 0.770385 -0.539145
O53   O     O_R   0.244960 0.630410 0.521520 -0.522397
O54   O     O_R   0.244960 0.369590 0.521520 -0.519942
O55   O     O_R   0.755040 0.630410 0.478480 -0.508127
O56   O     O_R   0.182050 0.796550 0.624440 -0.466761

loop_
_geom_bond_atom_site_label_1
_geom_bond_atom_site_label_2
_ccdc_geom_bond_type
C72   H116  S    
Cu3   O30   S    
C131  O13   A    
C31   C42   A    
Cu12  O43   S    
C155  O44   S    
C50   C79   A    
C14   C33   A    
C103  O51   S    
C19   C46   A    
C16   C31   A    
C106  H59   S    
C124  C133  A    
C50   C59   A    
C54   C189  S    
C52   C61   A    
Cu11  O26   S    
C80   H147  S    
C97   H37   S    
C6    C146  S    
C106  C107  S    
C4    C148  S    
C25   N12   S    
C76   H134  S    
C5    C149  S    
C102  H47   S    
C81   H151  S    
C27   N10   S    
C117  C132  A    
C96   H36   S    
C173  H81   S    
H150  N7    S    
C109  O10   A    
C13   C51   A    
C116  C195  S    
C44   C53   A    
C71   N13   S    
C113  C122  A    
C65   H89   S    
C52   C187  S    
C117  C126  A    
C78   H143  S    
C132  N7    S    
C20   C29   A    
C119  C128  A    
C143  C151  A    
Cu3   Cu4   S    
C93   H28   S    
C24   C50   A    
Cu9   O24   S    
C75   H131  S    
C70   H107  S    
Cu7   O34   S    
C104  C105  S    
C158  C167  A    
C66   H95   S    
C166  C174  A    
H132  N3    S    
C150  C159  A    
C139  H73   S    
C91   H22   S    
Cu5   O2    S    
C137  C146  A    
C127  C136  A    
C99   H43   S    
Cu7   O4    S    
C121  C129  A    
C106  O52   S    
C183  O20   A    
C172  C190  A    
C72   H117  S    
Cu10  O54   S    
C173  C191  A    
Cu9   O15   S    
C87   H15   S    
C74   N16   S    
C77   H140  S    
C3    C118  S    
Cu8   O14   S    
C73   H122  S    
H97   N10   S    
C105  H55   S    
H106  N12   S    
C189  O23   A    
C23   N13   S    
C86   H12   S    
C47   C186  A    
C163  C172  A    
C164  O4    A    
C129  N5    S    
C95   H33   S    
Cu11  O8    S    
Cu9   O6    S    
C180  H87   S    
Cu5   O19   S    
Cu8   O45   S    
C9    O35   A    
C69   H104  S    
C5    O30   A    
C35   C45   A    
Cu5   O10   S    
C15   C30   A    
C125  H67   S    
C136  N3    S    
C16   C25   A    
C68   H135  S    
C126  H68   S    
C138  H72   S    
C108  H63   S    
C140  H74   S    
C66   N9    S    
C98   H41   S    
Cu4   O29   S    
C128  N6    S    
C76   H136  S    
C18   C38   A    
Cu7   O21   S    
C112  C191  S    
C35   H102  S    
Cu3   O39   S    
Cu2   O32   S    
C48   C101  A    
C188  O34   A    
Cu2   O42   S    
C127  H70   S    
C2    C40   A    
C26   N11   S    
H128  N2    S    
C75   H129  S    
C179  H86   S    
H110  N13   S    
C142  O14   A    
Cu4   O37   S    
C123  C132  A    
C27   C29   A    
C189  O26   A    
C138  C191  A    
C142  O2    A    
C85   H10   S    
C187  O24   A    
C12   C110  A    
C182  O19   A    
C67   H99   S    
C185  O22   A    
C182  O45   A    
C65   N1    S    
C11   O32   A    
C153  C163  S    
C58   C181  S    
C8    C152  S    
C37   C40   A    
C51   C90   A    
Cu7   O13   S    
C38   C39   A    
C43   C52   A    
C111  C119  A    
Cu12  O35   S    
C94   H29   S    
C71   H111  S    
C120  O8    A    
C20   C35   A    
C160  O50   S    
C88   H18   S    
C88   H17   S    
C2    C44   A    
C22   C25   A    
Cu10  O7    S    
C88   H16   S    
C30   C41   A    
C176  C193  A    
C89   C91   S    
Cu8   O5    S    
C152  C161  A    
Cu5   O12   S    
C86   H11   S    
Cu6   O11   S    
C82   N8    S    
C164  O16   A    
C141  C150  A    
C7    C147  S    
C2    C45   A    
C58   C64   A    
Cu11  O55   S    
C139  C148  A    
C162  C171  A    
C34   C39   A    
C69   H105  S    
C135  N4    S    
C74   H126  S    
C91   C92   S    
Cu6   O20   S    
Cu1   O9    S    
C155  C163  A    
C140  C193  A    
C3    C180  A    
C98   H40   S    
C109  C168  S    
C79   H146  S    
C83   C84   S    
C188  O25   A    
C178  H85   S    
Cu1   O1    S    
C55   C188  S    
C19   C28   A    
C111  C190  S    
C114  C123  A    
C11   C151  S    
C115  C194  S    
C3    C145  A    
C116  C125  A    
C161  O51   S    
C103  H50   S    
C162  O52   S    
C118  C127  A    
C145  C154  A    
C89   H20   S    
H115  N14   S    
C113  C192  S    
C137  H71   S    
C154  C162  A    
C6    O38   A    
C78   H144  S    
C9    C154  S    
H101  N11   S    
C111  C134  A    
C144  C196  A    
Cu6   O3    S    
C170  C179  A    
Cu6   Cu11  S    
C14   C22   A    
C108  H62   S    
C112  C121  A    
C144  C152  A    
C80   H148  S    
C11   O43   A    
C131  O7    A    
C8    O33   A    
C55   C61   A    
C9    O41   A    
C102  H48   S    
C148  C157  A    
C43   C57   A    
C137  C190  A    
C107  H60   S    
C51   C60   A    
C140  C149  A    
C69   N11   S    
C123  H65   S    
C174  C192  A    
C49   C110  A    
C125  C134  A    
C77   N4    S    
C87   C88   S    
C185  O12   A    
C175  O3    A    
C187  O1    A    
C34   C37   A    
C24   C42   A    
Cu1   Cu9   S    
C70   H108  S    
C81   N7    S    
C13   C41   A    
Cu8   O22   S    
C82   H155  S    
C66   H96   S    
C166  C175  S    
C91   H21   S    
H119  N15   S    
C80   N6    S    
C78   N5    S    
C76   N3    S    
C72   H118  S    
C168  C177  A    
C92   H25   S    
C104  H52   S    
C77   H139  S    
C72   N14   S    
Cu1   O18   S    
C39   C186  A    
C73   H121  S    
C146  C155  A    
C105  H54   S    
C177  H84   S    
C160  C169  A    
C62   H69   S    
C83   O44   S    
C83   H4    S    
C84   H7    S    
C80   H149  S    
C120  O11   A    
C60   C183  S    
C157  O47   S    
C158  O48   S    
C4    O36   A    
C69   H103  S    
C156  O46   S    
C67   N10   S    
C97   C98   S    
C179  C196  A    
Cu7   Cu10  S    
C106  H58   S    
C177  C194  A    
C108  H64   S    
C84   C85   S    
C70   H109  S    
Cu12  O31   S    
C159  O49   S    
C85   H8    S    
C97   H38   S    
C86   C87   S    
C14   C101  A    
C54   C62   A    
C92   H23   S    
C100  H44   S    
C183  O55   A    
C76   H133  S    
C74   H125  S    
C81   H152  S    
C181  O53   A    
C93   O48   S    
C118  C130  A    
C18   C57   A    
C65   H90   S    
Cu2   O33   S    
C143  C195  A    
C64   H91   S    
C59   C64   A    
C120  C171  S    
C176  H83   S    
C61   H1    S    
C147  C156  A    
Cu11  O17   S    
C63   H80   S    
C57   H124  S    
C29   N1    S    
C126  C135  A    
C139  C192  A    
C21   C23   A    
C104  H53   S    
C6    O27   A    
C100  H45   S    
C95   H31   S    
C101  H13   S    
Cu4   O38   S    
C46   C47   A    
C66   H94   S    
C17   C68   A    
C115  C124  A    
C103  H51   S    
C164  C167  S    
C70   N12   S    
C16   C79   A    
C33   C41   A    
C36   C38   A    
C4    O29   A    
C153  O56   A    
C10   C150  S    
Cu3   O36   S    
C156  C165  A    
C105  H56   S    
C1    O9    A    
C22   N14   S    
C95   H32   S    
Cu1   O56   S    
C94   C95   S    
C96   O49   S    
C20   C36   A    
C46   H113  S    
C181  O18   A    
C8    O40   A    
C103  C104  S    
C32   C42   A    
Cu12  O40   S    
H145  N6    S    
C7    O39   A    
Cu3   O27   S    
Cu10  O16   S    
Cu4   O28   S    
C5    O37   A    
C21   N15   S    
C131  C170  S    
C93   C94   S    
C114  C193  S    
C107  H61   S    
C112  C133  A    
C10   O42   A    
C121  H46   S    
C93   H27   S    
H137  N4    S    
C143  H76   S    
C60   C63   A    
C17   C26   A    
C74   H127  S    
C109  O5    A    
C65   H92   S    
C165  C173  A    
H123  N16   S    
Cu6   O23   S    
C159  C168  A    
Cu2   O41   S    
C92   H26   S    
C85   H9    S    
C141  H75   S    
C75   N2    S    
C53   C185  S    
C86   O46   S    
C124  H66   S    
C94   H30   S    
Cu9   O53   S    
C149  C158  A    
C113  C136  A    
C10   O31   A    
C114  C135  A    
C31   C33   A    
C75   H130  S    
C134  N16   S    
C15   C23   A    
C78   H142  S    
C12   C32   A    
C142  C165  S    
C99   O50   S    
C89   H19   S    
C99   H42   S    
C83   H5    S    
C84   H6    S    
C67   H100  S    
Cu2   Cu12  S    
C7    O28   A    
C87   H14   S    
C36   C40   A    
C90   H2    S    
C172  H79   S    
H141  N5    S    
C133  N2    S    
C43   C186  A    
C130  N8    S    
C12   C21   A    
C49   C58   A    
H154  N8    S    
C145  H78   S    
C71   H112  S    
C53   C62   A    
C175  O17   A    
C99   C100  S    
C138  C147  A    
C107  C108  S    
C96   C97   S    
C100  C102  S    
C56   C63   A    
C17   C37   A    
C96   H34   S    
C110  H24   S    
C161  C170  A    
C45   C54   A    
C116  C128  A    
Cu5   Cu8   S    
C171  C180  A    
C44   C68   A    
C169  C178  A    
C47   C55   A    
C82   H3    S    
C115  C129  A    
H93   N9    S    
C24   C49   A    
C48   C56   A    
C71   H114  S    
C144  H77   S    
C18   C27   A    
Cu10  O25   S    
C73   N15   S    
C19   C34   A    
C157  C166  A    
C13   C48   A    
H88   N1    S    
C82   H156  S    
C178  C195  A    
C26   C28   A    
C102  H49   S    
C28   N9    S    
C151  C160  A    
C98   H39   S    
C117  C196  S    
C184  O54   A    
C15   C90   A    
C30   C32   A    
C56   C182  S    
C1    C169  S    
C153  O15   A    
C141  C194  A    
C59   C184  S    
C81   H153  S    
C77   H138  S    
C73   H120  S    
C89   O47   S    
C1    O6    A    
C174  H82   S    
C184  O21   A    
C119  H35   S    
C122  C130  A    
C122  H57   S    
C167  C176  A    
C67   H98   S    
