data_mof_unit_33699.cif
_audit_creation_date              2012-12-11T18:11:31-0500
_audit_creation_method            fapswitch 2.2
_symmetry_space_group_name_H-M    P1
_symmetry_Int_Tables_number       1
_space_group_crystal_system       triclinic
_cell_length_a                    8.267044
_cell_length_b                    12.720211
_cell_length_c                    18.644218
_cell_angle_alpha                 98.869007
_cell_angle_beta                  91.083811
_cell_angle_gamma                 98.676203
_cell_volume                      1913.2032979

loop_
_atom_site_label
_atom_site_type_symbol
_atom_type_description
_atom_site_fract_x
_atom_site_fract_y
_atom_site_fract_z
_atom_type_partial_charge
Ba1   Ba    Ba6+2 0.852780 0.548340 0.465070 1.635349
Ba2   Ba    Ba6+2 0.337060 0.451750 0.534940 1.634508
C1    C     C_3   0.651557 0.914093 0.266489 -0.398381
C2    C     C_3   0.641890 0.809542 0.297366 0.324813
C3    C     C_3   0.475291 0.270829 0.314170 0.305441
C4    C     C_3   0.480951 0.238032 0.232317 -0.396420
C5    C     C_3   0.071592 0.238012 0.738046 0.333604
C6    C     C_3   0.104440 0.215462 0.814416 -0.329559
C7    C     C_3   0.544257 0.180610 0.703245 0.360659
C8    C     C_3   0.525853 0.078243 0.737147 -0.036169
C9    C     C_R   0.001515 0.428201 0.045642 0.013081
C10   C     C_R   0.907674 0.372118 0.094559 -0.085173
C11   C     C_R   0.772784 0.398692 0.952655 -0.074330
C12   C     C_3   0.145122 0.880026 0.265962 0.646401
C13   C     C_R   0.937865 0.437332 0.975462 0.015472
C14   C     C_R   0.714045 0.403448 0.883126 -0.058787
C15   C     C_R   0.816702 0.446655 0.832576 -0.034023
C16   C     C_R   0.979124 0.494491 0.855330 -0.006620
C17   C     C_R   0.040156 0.490016 0.927041 0.018890
C18   C     C_R   0.761801 0.443531 0.759914 -0.007836
C19   C     C_R   0.869192 0.484971 0.710570 -0.300673
C20   C     C_R   0.024768 0.541104 0.732946 0.042656
C21   C     C_R   0.079706 0.547917 0.806715 -0.042197
C22   C     C_R   0.165369 0.474805 0.067631 0.023638
C23   C     C_3   0.273802 0.981577 0.282050 -0.280323
C24   C     C_R   0.226166 0.471848 0.139610 0.000982
C25   C     C_R   0.122003 0.425201 0.189874 -0.044075
C26   C     C_R   0.966609 0.370812 0.164761 -0.034215
C27   C     C_R   0.231375 0.606608 0.833779 -0.016505
C28   C     C_R   0.292684 0.600693 0.902903 -0.084398
C29   C     C_R   0.202777 0.538333 0.949628 0.010041
C30   C     C_R   0.267587 0.527196 0.019124 0.019408
C31   C     C_R   0.433013 0.565323 0.041573 -0.107601
C32   C     C_R   0.387966 0.521308 0.162651 -0.027349
C33   C     C_R   0.491309 0.562783 0.111642 -0.086955
C34   C     C_3   0.262740 0.789125 0.625554 0.280333
C35   C     C_R   0.440025 0.530137 0.236468 0.014128
C36   C     C_R   0.333140 0.489343 0.285898 -0.306385
C37   C     C_R   0.174606 0.438356 0.264257 0.029025
C38   C     C_R   0.758167 0.184765 0.536467 -0.284472
C39   C     C_R   0.436998 0.809033 0.467008 -0.275195
C40   C     C_R   0.397452 0.988542 0.454893 -0.106404
C41   C     C_R   0.343002 0.878389 0.441095 -0.014763
C42   C     C_R   0.580699 0.849568 0.509743 0.047009
C43   C     C_R   0.641222 0.962141 0.521221 -0.065973
C44   C     C_R   0.549714 0.031446 0.490666 -0.060629
C45   C     C_3   0.223783 0.902054 0.625618 -0.337885
C46   C     C_R   0.611994 0.142151 0.496887 0.046491
C47   C     C_R   0.851836 0.118017 0.565368 -0.009803
C48   C     C_R   0.791152 0.007759 0.560174 -0.086975
C49   C     C_3   0.953033 0.219711 0.390011 0.279470
C50   C     C_3   0.945594 0.098170 0.381565 -0.362245
C51   C     C_3   0.727936 0.703886 0.682706 0.301224
C52   C     C_3   0.745443 0.739002 0.764654 -0.370659
H1    H     H_    0.727855 0.823341 0.345643 0.099608
H2    H     H_    0.212038 0.942292 0.681846 0.138057
H3    H     H_    0.320749 0.950681 0.599223 0.066386
H4    H     H_    0.105488 0.897778 0.596263 0.152648
H5    H     H_    0.831265 0.241114 0.400918 0.016773
H6    H     H_    0.038694 0.256451 0.436778 0.086216
H7    H     H_    0.935777 0.062687 0.323400 0.151848
H8    H     H_    0.838914 0.060342 0.408298 0.068126
H9    H     H_    0.057986 0.078560 0.406243 0.126989
H10   H     H_    0.844290 0.680246 0.662781 0.023803
H11   H     H_    0.627733 0.634224 0.670732 0.065485
H12   H     H_    0.628656 0.980168 0.309278 0.094399
H13   H     H_    0.848731 0.806459 0.778373 0.146142
H14   H     H_    0.769471 0.671218 0.792053 0.048250
H15   H     H_    0.630713 0.765935 0.785140 0.134118
H16   H     H_    0.514748 0.787427 0.314366 -0.028087
H17   H     H_    0.563318 0.904290 0.219697 0.111063
H18   H     H_    0.350216 0.287065 0.327515 0.017765
H19   H     H_    0.565533 0.345286 0.329944 0.068339
H20   H     H_    0.376600 0.174151 0.212128 0.108435
H21   H     H_    0.472353 0.308132 0.204498 0.066856
H22   H     H_    0.597900 0.208292 0.218497 0.129940
H23   H     H_    0.773427 0.938020 0.246559 0.150240
H24   H     H_    0.344107 0.995808 0.233722 0.076501
H25   H     H_    0.145245 0.316579 0.732180 0.084893
H26   H     H_    0.939614 0.243077 0.731523 -0.021220
H27   H     H_    0.237816 0.224400 0.826914 0.155940
H28   H     H_    0.051491 0.272793 0.854777 0.091998
H29   H     H_    0.048333 0.132120 0.819376 0.160219
H30   H     H_    0.675717 0.204452 0.693659 -0.060296
H31   H     H_    0.473778 0.163197 0.650276 0.047872
H32   H     H_    0.561221 0.011088 0.698239 0.048379
H33   H     H_    0.397220 0.057295 0.751822 0.113432
H34   H     H_    0.827259 0.478884 0.654544 0.070493
H35   H     H_    0.586534 0.371944 0.869801 0.123408
H36   H     H_    0.887173 0.327276 0.199216 0.093659
H37   H     H_    0.306506 0.656985 0.801718 0.095089
H38   H     H_    0.618710 0.594709 0.125177 0.113791
H39   H     H_    0.372821 0.499733 0.342557 0.074006
H40   H     H_    0.683801 0.364947 0.987598 0.081491
H41   H     H_    0.786892 0.327767 0.080437 0.069880
H42   H     H_    0.410771 0.648153 0.918761 0.063285
H43   H     H_    0.521888 0.597136 0.005763 0.071439
H44   H     H_    0.318112 0.039531 0.436826 0.109633
H45   H     H_    0.864212 0.958986 0.584953 0.109525
H46   H     H_    0.806072 0.269449 0.539597 0.059572
H47   H     H_    0.391310 0.723539 0.458569 0.070476
H48   H     H_    0.217194 0.053776 0.301171 0.110063
H49   H     H_    0.364503 0.970984 0.322197 0.054865
H50   H     H_    0.395028 0.794494 0.637545 0.031037
H51   H     H_    0.228420 0.741551 0.570814 0.038831
O1    O     O_2   0.873090 0.425890 0.325140 -0.464520
O2    O     O_3   0.692708 0.790725 0.650733 -0.636782
O3    O     O_3   0.045215 0.869999 0.327136 -0.608340
O4    O     O_2   0.316610 0.574140 0.674900 -0.476651
O5    O     O_3   0.067290 0.565720 0.585630 -0.486031
O6    O     O_3   0.530210 0.372990 0.631200 -0.472822
O7    O     O_3   0.178506 0.745966 0.681262 -0.637810
O8    O     O_3   0.611340 0.366290 0.463630 -0.480090
O9    O     O_3   0.108550 0.314140 0.595200 -0.486410
O10   O     O_2   0.186391 0.121238 0.551724 -0.484822
O11   O     O_3   0.115249 0.154571 0.687195 -0.596233
O12   O     O_3   0.122420 0.434370 0.414380 -0.491708
O13   O     O_3   0.578370 0.633800 0.536380 -0.492886
O14   O     O_2   0.341510 0.231850 0.465510 -0.471608
O15   O     O_3   0.513810 0.187149 0.349188 -0.651090
O16   O     O_2   0.427597 0.458060 0.757418 -0.495180
O17   O     O_3   0.480640 0.260571 0.749806 -0.593857
O18   O     O_3   0.659500 0.627100 0.368810 -0.483637
O19   O     O_2   0.777277 0.542611 0.243984 -0.500726
O20   O     O_3   0.002450 0.253992 0.324968 -0.641890
O21   O     O_3   0.685569 0.729204 0.244058 -0.619985
O22   O     O_2   0.848200 0.768190 0.534530 -0.455337
O23   O     O_3   0.081160 0.685950 0.404810 -0.464444
O24   O     O_2   0.028766 0.876122 0.463008 -0.475770
P1    P     P_3+3 0.041040 0.394770 0.336330 0.977244
P2    P     P_3+3 0.672880 0.754030 0.556100 0.964355
P3    P     P_3+3 0.133030 0.825987 0.403341 0.944782
P4    P     P_3+3 0.148670 0.605320 0.663680 0.974943
P5    P     P_3+3 0.063274 0.176164 0.599742 0.944985
P6    P     P_3+3 0.639836 0.604583 0.273850 0.929662
P7    P     P_3+3 0.522810 0.230302 0.443230 0.927328
P8    P     P_3+3 0.551099 0.385963 0.725200 0.947002
N1    N     N_2   0.038247 0.889443 0.204247 -0.425629
H52   H     H_    0.938505 0.829288 0.194734 0.229770
C53   C     C_3   0.108756 0.912138 0.136445 -0.293997
H53   H     H_    0.009845 0.900744 0.093495 0.126484
H54   H     H_    0.197076 0.856987 0.118210 0.113237
H55   H     H_    0.168419 0.997325 0.142125 0.123701
I1    I     I_    0.672567 0.098822 0.835164 -0.533330
N2    N     N_2   0.223683 0.785626 0.247785 -0.474311
H56   H     H_    0.317790 0.791673 0.212495 0.165851
C54   C     C_3   0.113334 0.685546 0.231602 -0.175599
H57   H     H_    0.099742 0.657950 0.172084 0.090307
H58   H     H_    0.991635 0.692196 0.253289 0.187027
H59   H     H_    0.161709 0.628937 0.260624 0.093518

loop_
_geom_bond_atom_site_label_1
_geom_bond_atom_site_label_2
_ccdc_geom_bond_type
C5    O11   S    
C47   P5    S    
Ba2   O4    S    
C32   C35   A    
C54   H57   S    
C53   H55   S    
O7    P4    S    
C17   C29   A    
C2    H16   S    
N2    H56   S    
Ba2   O13   S    
C4    H21   S    
C43   C44   A    
C42   P2    S    
C13   C17   A    
C12   N2    S    
C24   C25   A    
C35   C36   A    
C10   C26   A    
C6    H28   S    
C21   C27   A    
C41   P3    S    
C54   H58   S    
C53   H54   S    
C32   C33   A    
C3    H18   S    
C50   H7    S    
C40   H44   S    
C36   C37   A    
C31   C33   A    
C51   H10   S    
C23   H48   S    
C52   H14   S    
C38   C47   A    
C6    H29   S    
C9    C22   A    
C15   C18   A    
C34   C45   S    
C15   C16   A    
Ba1   Ba2   S    
C40   C44   A    
O16   P8    D    
C6    H27   S    
C28   H42   S    
O13   P2    S    
C7    H31   S    
C9    C13   A    
O20   P1    S    
C24   C32   A    
C8    H32   S    
C12   N1    S    
C25   C37   A    
C14   C15   A    
O8    P7    S    
C34   O7    S    
Ba1   O18   S    
Ba1   O23   S    
C10   H41   S    
C51   H11   S    
C7    C8    S    
Ba1   O1    S    
O24   P3    D    
C33   H38   S    
C12   O3    S    
C19   H34   S    
C14   H35   S    
C19   C20   A    
C39   C41   A    
Ba1   O8    S    
O23   P3    S    
N2    C54   S    
Ba2   O12   S    
C4    H20   S    
O9    P5    S    
Ba2   O6    S    
C44   C46   A    
C8    H33   S    
Ba2   P4    S    
C20   P4    S    
O4    P4    D    
C16   C21   A    
C49   O20   S    
C5    C6    S    
C54   H59   S    
C53   H53   S    
O2    P2    S    
Ba1   P1    S    
O1    P1    D    
C16   C17   A    
Ba1   O12   S    
C52   H13   S    
C3    O15   S    
C51   C52   S    
C23   H24   S    
O18   P6    S    
O15   P7    S    
C18   P8    S    
C1    H17   S    
C22   C30   A    
C27   C28   A    
Ba1   O5    S    
C45   H3    S    
C51   O2    S    
C29   C30   A    
C28   C29   A    
Ba2   O14   S    
C35   P6    S    
C7    O17   S    
C48   H45   S    
C8    I1    S    
O12   P1    S    
N1    C53   S    
O10   P5    D    
O21   P6    S    
C11   C13   A    
C2    H1    S    
C39   C42   A    
C1    H12   S    
C49   H5    S    
C40   C41   A    
C1    C2    S    
C1    H23   S    
C27   H37   S    
C42   C43   A    
O6    P8    S    
C5    H25   S    
C38   C46   A    
Ba2   O5    S    
O19   P6    D    
C34   H51   S    
C46   P7    S    
C23   H49   S    
Ba1   O22   S    
O17   P8    S    
C22   C24   A    
Ba1   P2    S    
C50   H9    S    
C38   H46   S    
C9    C10   A    
C4    H22   S    
C37   P1    S    
O14   P7    D    
C2    O21   S    
C11   H40   S    
C34   H50   S    
C30   C31   A    
C49   C50   S    
C50   H8    S    
C45   H4    S    
Ba2   O9    S    
C3    C4    S    
C52   H15   S    
C43   C48   A    
C36   H39   S    
Ba2   O8    S    
C39   H47   S    
C31   H43   S    
Ba1   O13   S    
C12   C23   S    
C3    H19   S    
O22   P2    D    
O3    P3    S    
N1    H52   S    
C7    H30   S    
O11   P5    S    
C18   C19   A    
C47   C48   A    
C11   C14   A    
C25   C26   A    
C20   C21   A    
C45   H2    S    
O5    P4    S    
C26   H36   S    
C49   H6    S    
C5    H26   S    
