data_mof_unit_7104.cif
_audit_creation_date              2012-12-11T15:55:42-0500
_audit_creation_method            fapswitch 2.2
_symmetry_space_group_name_H-M    P1
_symmetry_Int_Tables_number       1
_space_group_crystal_system       triclinic
_cell_length_a                    6.921992
_cell_length_b                    14.549795
_cell_length_c                    16.111726
_cell_angle_alpha                 89.889837
_cell_angle_beta                  89.874133
_cell_angle_gamma                 90.235911
_cell_volume                      1622.64865945

loop_
_atom_site_label
_atom_site_type_symbol
_atom_type_description
_atom_site_fract_x
_atom_site_fract_y
_atom_site_fract_z
_atom_type_partial_charge
O1    O     O_R   0.505680 0.583900 0.413320 -0.533163
O2    O     O_R   0.176010 0.594950 0.586080 -0.545324
O3    O     O_R   0.005680 0.416100 0.586680 -0.535618
C1    C     C_R   0.345758 0.615367 0.616375 0.704973
O4    O     O_R   0.175960 0.594930 0.413930 -0.545754
O5    O     O_R   0.005640 0.416080 0.413300 -0.536385
C2    C     C_R   0.346233 0.618668 0.386300 0.713128
O6    O     O_R   0.505720 0.583920 0.586700 -0.535603
O7    O     O_3   0.339190 0.441320 0.500000 -0.371066
V1    V     V_3+5 0.064350 0.510890 0.500000 1.385861
O8    O     O_R   0.675920 0.405050 0.413920 -0.544528
C3    C     C_R   0.845578 0.384694 0.383311 0.699210
O9    O     O_R   0.675960 0.405070 0.586070 -0.543828
C4    C     C_R   0.844461 0.383117 0.615033 0.706243
V2    V     V_3+5 0.564340 0.489110 0.500000 1.386665
O10   O     O_3   0.839370 0.558680 0.500000 -0.370933
C5    C     C_R   0.000417 0.321238 0.744533 0.063060
C6    C     C_R   0.851801 0.317745 0.685658 -0.110140
C7    C     C_R   0.703957 0.252391 0.698793 -0.179343
H1    H     H_    0.583935 0.247933 0.656118 0.125228
C8    C     C_R   0.716384 0.187725 0.763891 -0.176700
H2    H     H_    0.605077 0.135615 0.769395 0.124659
C9    C     C_R   0.876197 0.186913 0.818183 -0.135981
C10   C     C_R   0.011977 0.257939 0.809306 0.107486
C11   C     C_3   0.227391 0.255015 0.804222 -0.038118
C12   C     C_3   0.214256 0.324540 0.733314 -0.388020
H3    H     H_    0.281626 0.186612 0.784651 0.135929
H4    H     H_    0.259171 0.296061 0.672360 0.151121
H5    H     H_    0.274838 0.393634 0.747619 0.172958
C13   C     C_R   0.035016 0.245695 0.197592 -0.150012
H6    H     H_    0.163088 0.240802 0.159051 0.122312
C14   C     C_R   0.027673 0.312142 0.260893 0.161228
C15   C     C_R   0.859963 0.318322 0.312535 -0.058938
C16   C     C_R   0.703082 0.259435 0.295704 -0.199703
H7    H     H_    0.573330 0.262154 0.333239 0.129792
C17   C     C_R   0.711743 0.195088 0.231321 -0.153676
H8    H     H_    0.588211 0.150688 0.220889 0.124417
C18   C     C_R   0.878706 0.186714 0.182238 -0.084916
C19   C     C_R   0.209033 0.745910 0.696805 -0.196914
H9    H     H_    0.086709 0.743942 0.654954 0.132271
C20   C     C_R   0.214011 0.812607 0.759716 0.168634
C21   C     C_R   0.374875 0.816467 0.814622 -0.095976
C22   C     C_R   0.525430 0.753350 0.803710 -0.187054
H10   H     H_    0.647695 0.755287 0.845598 0.144593
C23   C     C_R   0.520269 0.686544 0.740872 0.158310
C24   C     C_R   0.359733 0.682914 0.685792 -0.100125
C25   C     C_R   0.209957 0.691381 0.259428 -0.214477
H11   H     H_    0.087755 0.644996 0.265048 0.145683
C26   C     C_R   0.217612 0.751657 0.191653 0.160338
C27   C     C_R   0.376784 0.812184 0.181805 -0.121782
C28   C     C_R   0.526769 0.808693 0.240188 -0.155634
H12   H     H_    0.648781 0.855089 0.233488 0.138920
C29   C     C_R   0.521219 0.747402 0.307767 0.160840
C30   C     C_R   0.359847 0.687504 0.317835 -0.092985
O11   O     O_R   0.229200 0.915950 0.913350 -0.530665
O12   O     O_R   0.559090 0.905000 0.086080 -0.531861
O13   O     O_R   0.729280 0.083880 0.086680 -0.542000
C31   C     C_R   0.388970 0.880801 0.113335 0.741256
O14   O     O_R   0.558920 0.904980 0.913920 -0.546250
O15   O     O_R   0.729110 0.083860 0.913300 -0.540506
C32   C     C_R   0.389098 0.884305 0.883811 0.712790
O16   O     O_R   0.229360 0.915970 0.086730 -0.522917
O17   O     O_3   0.395680 0.058580 0.000030 -0.379946
V3    V     V_3+5 0.670570 0.989070 0.999990 1.440577
O18   O     O_R   0.058820 0.094950 0.913870 -0.547419
C33   C     C_R   0.890006 0.116949 0.884956 0.693835
O19   O     O_R   0.058990 0.094970 0.086020 -0.546533
C34   C     C_R   0.889832 0.117307 0.114737 0.694907
V4    V     V_3+5 0.170560 0.010930 0.999930 1.425019
O20   O     O_3   0.895590 0.941310 0.999960 -0.346961
C35   C     C_3   0.048047 0.879537 0.764534 -0.744570
H13   H     H_    0.947622 0.872034 0.711258 0.187317
H14   H     H_    0.962430 0.867036 0.821800 0.226561
H15   H     H_    0.103590 0.951257 0.763623 0.187602
C36   C     C_3   0.685467 0.619166 0.736354 -0.729866
H16   H     H_    0.785328 0.626357 0.789861 0.197599
H17   H     H_    0.629011 0.547598 0.737106 0.195421
H18   H     H_    0.771875 0.631450 0.679273 0.218140
I1    I     I_    0.989001 0.738601 0.104479 -0.413031
C37   C     C_3   0.686742 0.749510 0.368561 -0.725463
H19   H     H_    0.630842 0.757219 0.432822 0.191038
H20   H     H_    0.772341 0.685463 0.363339 0.228095
H21   H     H_    0.786738 0.807923 0.356318 0.188960
C38   C     C_3   0.324611 0.292832 0.882329 -0.724158
H22   H     H_    0.259115 0.359089 0.901666 0.210490
H23   H     H_    0.309076 0.242648 0.933897 0.217833
H24   H     H_    0.480802 0.304100 0.870189 0.218790
C39   C     C_3   0.198650 0.376333 0.269280 -0.739345
H25   H     H_    0.304694 0.367293 0.218112 0.193547
H26   H     H_    0.149604 0.448882 0.267254 0.202508
H27   H     H_    0.276079 0.362529 0.328171 0.218039

loop_
_geom_bond_atom_site_label_1
_geom_bond_atom_site_label_2
_ccdc_geom_bond_type
C31   O16   A    
C20   C21   A    
C4    C6    S    
C7    H1    S    
C38   H24   S    
C1    O6    A    
C19   C20   A    
C1    C24   S    
C29   C30   A    
O14   V3    S    
C5    C12   S    
C9    C33   S    
C17   H8    S    
C7    C8    A    
C38   H23   S    
C16   H7    S    
C25   C30   A    
O5    C3    A    
C13   H6    S    
V2    O10   S    
C14   C39   S    
C13   C18   A    
C6    C7    A    
O8    V2    S    
O17   V4    S    
C11   C38   S    
C9    C10   A    
O12   V3    S    
O1    V2    S    
V3    O20   S    
O7    V1    S    
C20   C35   S    
O15   C33   A    
O9    C4    A    
C37   H21   S    
C25   C26   A    
C15   C16   A    
C8    C9    A    
O14   C32   A    
C5    C10   A    
C28   H12   S    
C27   C31   S    
C29   C37   S    
C10   C11   S    
C37   H20   S    
C19   H9    S    
O4    C2    A    
C27   C28   A    
C11   C12   S    
C23   C24   A    
O19   C34   A    
O16   V4    S    
C28   C29   A    
O2    C1    A    
C36   H16   S    
C22   C23   A    
C25   H11   S    
C39   H27   S    
C5    C6    A    
C38   H22   S    
C36   H17   S    
C21   C32   S    
O11   V4    S    
O3    C4    A    
C19   C24   A    
C18   C34   S    
O18   C33   A    
O6    V2    S    
O9    V2    S    
C22   H10   S    
C21   C22   A    
O13   C34   A    
O2    V1    S    
O13   V3    S    
C35   H14   S    
O1    C2    A    
C39   H26   S    
C37   H19   S    
O5    V1    S    
C35   H15   S    
O8    C3    A    
C11   H3    S    
C12   H4    S    
O15   V3    S    
C23   C36   S    
C14   C15   A    
C17   C18   A    
O7    V2    S    
C35   H13   S    
O3    V1    S    
V1    O10   S    
C13   C14   A    
O18   V4    S    
O11   C32   A    
O12   C31   A    
C16   C17   A    
V4    O20   S    
C36   H18   S    
O17   V3    S    
C26   I1    S    
O4    V1    S    
C39   H25   S    
C12   H5    S    
C26   C27   A    
C2    C30   S    
O19   V4    S    
C3    C15   S    
C8    H2    S    
