data_mof_unit_39759.cif
_audit_creation_date              2012-10-26T21:33:25-0400
_audit_creation_method            fapswitch 2.2
_symmetry_space_group_name_H-M    P1
_symmetry_Int_Tables_number       1
_space_group_crystal_system       triclinic
_cell_length_a                    28.100167
_cell_length_b                    18.391306
_cell_length_c                    17.072363
_cell_angle_alpha                 89.830416
_cell_angle_beta                  60.91007
_cell_angle_gamma                 90.713283
_cell_volume                      7709.01804975

loop_
_atom_site_label
_atom_site_type_symbol
_atom_type_description
_atom_site_fract_x
_atom_site_fract_y
_atom_site_fract_z
_atom_type_partial_charge
C1    C     C_R   0.703112 0.271112 0.675216 0.939927
C2    C     C_R   0.093429 0.503077 0.521185 0.074196
C3    C     C_R   0.189042 0.221577 0.905573 0.060670
C4    C     C_R   0.073279 0.101229 0.934439 0.943475
C5    C     C_R   0.926721 0.898771 0.065561 0.943400
C6    C     C_R   0.922646 0.094688 0.069007 0.958878
C7    C     C_R   0.077340 0.905289 0.931006 0.958820
C8    C     C_R   0.573279 0.601228 0.934439 0.943400
C9    C     C_R   0.426721 0.398771 0.065560 0.943473
C10   C     C_R   0.422661 0.594712 0.068993 0.958820
C11   C     C_R   0.577353 0.405310 0.930994 0.958876
C12   C     C_R   0.520899 0.119915 0.582149 0.096154
C13   C     C_R   0.406571 0.996922 0.478815 0.074195
C14   C     C_R   0.479101 0.880085 0.417852 0.096135
C15   C     C_R   0.425235 0.113889 0.567201 0.097498
C16   C     C_R   0.574764 0.886111 0.432800 0.097477
C17   C     C_R   0.020899 0.619915 0.582148 0.096135
C18   C     C_R   0.979101 0.380085 0.417850 0.096154
C19   C     C_R   0.925236 0.613889 0.567200 0.097478
C20   C     C_R   0.074765 0.386111 0.432799 0.097498
C21   C     C_R   0.482607 0.175590 0.617440 -0.139625
C22   C     C_R   0.517393 0.824410 0.382561 -0.139650
C23   C     C_R   0.434869 0.172205 0.610914 -0.158841
C24   C     C_R   0.593428 0.003077 0.521186 0.074201
C25   C     C_R   0.565131 0.827795 0.389087 -0.158880
C26   C     C_R   0.982607 0.675590 0.617439 -0.139652
C27   C     C_R   0.017393 0.324410 0.382560 -0.139627
C28   C     C_R   0.934869 0.672205 0.610913 -0.158880
C29   C     C_R   0.065131 0.327795 0.389086 -0.158841
C30   C     C_R   0.463053 0.057483 0.532393 0.038993
C31   C     C_R   0.536947 0.942516 0.467608 0.038974
C32   C     C_R   0.510471 0.059943 0.541052 0.031935
C33   C     C_R   0.489528 0.940057 0.458950 0.031916
C34   C     C_R   0.963053 0.557484 0.532392 0.038973
C35   C     C_R   0.120952 0.388001 0.443990 -0.191167
C36   C     C_R   0.036947 0.442516 0.467607 0.038992
C37   C     C_R   0.010472 0.559943 0.541050 0.031917
C38   C     C_R   0.989529 0.440057 0.458948 0.031935
C39   C     C_R   0.952872 0.497920 0.490599 -0.014789
C40   C     C_R   0.047128 0.502080 0.509400 -0.014789
C41   C     C_R   0.452872 0.997919 0.490600 -0.014788
C42   C     C_R   0.547128 0.002080 0.509401 -0.014788
C43   C     C_R   0.893990 0.435164 0.443310 0.009596
C44   C     C_R   0.106010 0.564835 0.556689 0.009597
C45   C     C_R   0.128068 0.442858 0.495861 -0.002798
C46   C     C_R   0.879048 0.611999 0.556009 -0.191182
C47   C     C_R   0.871932 0.557142 0.504138 -0.002797
C48   C     C_R   0.393990 0.935165 0.443311 0.009597
C49   C     C_R   0.606010 0.064835 0.556690 0.009595
C50   C     C_R   0.628067 0.942858 0.495862 -0.002796
C51   C     C_R   0.371932 0.057142 0.504139 -0.002799
C52   C     C_R   0.845040 0.434756 0.438306 -0.191658
C53   C     C_R   0.154960 0.565243 0.561694 -0.191660
C54   C     C_R   0.166942 0.439183 0.527025 -0.205517
C55   C     C_R   0.833059 0.560817 0.472975 -0.205529
C56   C     C_R   0.345040 0.934756 0.438306 -0.191660
C57   C     C_R   0.930860 0.377097 0.412212 -0.163232
C58   C     C_R   0.654960 0.065244 0.561694 -0.191657
C59   C     C_R   0.666941 0.939183 0.527025 -0.205531
C60   C     C_R   0.333058 0.060817 0.472975 -0.205518
C61   C     C_R   0.823150 0.500164 0.433585 0.319874
C62   C     C_R   0.176850 0.499836 0.566414 0.319859
C63   C     C_R   0.323150 0.000164 0.433585 0.319860
C64   C     C_R   0.676850 0.999836 0.566415 0.319875
C65   C     C_R   0.069140 0.622902 0.587787 -0.163230
C66   C     C_R   0.620951 0.888001 0.443991 -0.191183
C67   C     C_R   0.379048 0.111999 0.556010 -0.191167
C68   C     C_R   0.430860 0.877098 0.412213 -0.163228
C69   C     C_R   0.296870 0.728857 0.324794 0.939888
C70   C     C_R   0.569140 0.122902 0.587788 -0.163230
C71   C     C_R   0.718783 0.262396 0.956138 -0.006340
C72   C     C_R   0.281192 0.737497 0.043865 -0.006472
C73   C     C_R   0.279983 0.262891 0.045735 0.000752
C74   C     C_R   0.720017 0.737110 0.954265 0.000770
C75   C     C_R   0.218815 0.762519 0.956133 -0.006481
C76   C     C_R   0.781211 0.237587 0.043862 -0.006350
C77   C     C_R   0.779983 0.762890 0.045735 0.000771
C78   C     C_R   0.220017 0.237109 0.954265 0.000751
C79   C     C_R   0.774414 0.282142 0.915051 -0.220222
C80   C     C_R   0.300162 0.263991 0.323113 0.928499
C81   C     C_R   0.225700 0.717131 0.084513 -0.220974
C82   C     C_R   0.225656 0.285038 0.082595 -0.232187
C83   C     C_R   0.774346 0.714970 0.917400 -0.232190
C84   C     C_R   0.274308 0.782884 0.915484 -0.220967
C85   C     C_R   0.725580 0.217844 0.084950 -0.220216
C86   C     C_R   0.725654 0.785030 0.082600 -0.232192
C87   C     C_R   0.274344 0.214962 0.917405 -0.232189
C88   C     C_R   0.805537 0.269953 0.957843 0.423799
C89   C     C_R   0.194600 0.729424 0.041703 0.424748
C90   C     C_R   0.195681 0.272203 0.037901 0.431268
C91   C     C_R   0.699838 0.736009 0.676887 0.928535
C92   C     C_R   0.804321 0.727805 0.962094 0.431246
C93   C     C_R   0.305409 0.770588 0.958292 0.424749
C94   C     C_R   0.694456 0.230036 0.042160 0.423793
C95   C     C_R   0.695679 0.772195 0.037906 0.431246
C96   C     C_R   0.304319 0.227797 0.962099 0.431267
C97   C     C_R   0.644149 0.328050 0.945930 -0.212740
C98   C     C_R   0.355868 0.671977 0.054052 -0.212990
C99   C     C_R   0.354315 0.327999 0.057799 -0.228990
C100  C     C_R   0.645686 0.672000 0.942200 -0.228984
C101  C     C_R   0.144139 0.828034 0.945945 -0.212983
C102  C     C_R   0.203131 0.771145 0.675206 0.939888
C103  C     C_R   0.855845 0.171938 0.054074 -0.212749
C104  C     C_R   0.854314 0.828000 0.057800 -0.228989
C105  C     C_R   0.145685 0.172001 0.942201 -0.228994
C106  C     C_R   0.623850 0.358836 0.892391 -0.139168
C107  C     C_R   0.376162 0.641183 0.107596 -0.139003
C108  C     C_R   0.385525 0.342095 0.100562 -0.139947
C109  C     C_R   0.614475 0.657905 0.899437 -0.139889
C110  C     C_R   0.123840 0.858821 0.892402 -0.139001
C111  C     C_R   0.876147 0.141160 0.107611 -0.139167
C112  C     C_R   0.885525 0.842095 0.100563 -0.139888
C113  C     C_R   0.796887 0.228886 0.324784 0.939926
C114  C     C_R   0.114475 0.157905 0.899437 -0.139946
C115  C     C_R   0.651243 0.349861 0.800900 0.052046
C116  C     C_R   0.348755 0.650128 0.199097 0.051976
C117  C     C_R   0.374649 0.305430 0.178833 0.091776
C118  C     C_R   0.625351 0.694570 0.821167 0.091804
C119  C     C_R   0.151245 0.849873 0.800901 0.051970
C120  C     C_R   0.848756 0.150138 0.199102 0.052040
C121  C     C_R   0.874649 0.805430 0.178833 0.091804
C122  C     C_R   0.125351 0.194570 0.821167 0.091777
C123  C     C_R   0.684105 0.289674 0.768029 -0.207621
C124  C     C_R   0.800162 0.763991 0.323113 0.928534
C125  C     C_R   0.315848 0.710268 0.231995 -0.207776
C126  C     C_R   0.324826 0.269852 0.225530 -0.203769
C127  C     C_R   0.675173 0.730149 0.774470 -0.203728
C128  C     C_R   0.184155 0.789736 0.768003 -0.207774
C129  C     C_R   0.815892 0.210321 0.231972 -0.207617
C130  C     C_R   0.824827 0.769851 0.225530 -0.203728
C131  C     C_R   0.175174 0.230148 0.774470 -0.203769
C132  C     C_R   0.702987 0.253669 0.822228 0.356824
C133  C     C_R   0.296903 0.746196 0.177833 0.357494
C134  C     C_R   0.295437 0.249015 0.179732 0.363512
C135  C     C_R   0.199838 0.236008 0.676887 0.928499
C136  C     C_R   0.704562 0.750987 0.820269 0.363490
C137  C     C_R   0.203105 0.753815 0.822164 0.357506
C138  C     C_R   0.797005 0.246319 0.177774 0.356837
C139  C     C_R   0.795438 0.749013 0.179731 0.363490
C140  C     C_R   0.204563 0.250985 0.820268 0.363513
C141  C     C_R   0.690215 0.130056 0.538887 0.910370
C142  C     C_R   0.309785 0.869944 0.461113 0.910334
C143  C     C_R   0.304720 0.127360 0.477866 0.934344
C144  C     C_R   0.695279 0.872640 0.522135 0.934350
C145  C     C_R   0.190215 0.630056 0.538887 0.910336
C146  C     C_R   0.906572 0.496922 0.478814 0.074202
C147  C     C_R   0.809785 0.369944 0.461113 0.910371
C148  C     C_R   0.804720 0.627360 0.477865 0.934351
C149  C     C_R   0.195280 0.372640 0.522134 0.934345
C150  C     C_R   0.687288 0.279614 0.908674 0.065712
C151  C     C_R   0.312664 0.720300 0.091355 0.065620
C152  C     C_R   0.310958 0.278423 0.094427 0.060669
C153  C     C_R   0.689042 0.721577 0.905573 0.060660
C154  C     C_R   0.187343 0.779712 0.908641 0.065623
C155  C     C_R   0.812705 0.220373 0.091328 0.065726
C156  C     C_R   0.810958 0.778423 0.094427 0.060662
Cl1   Cl    Cl    0.787048 0.504127 0.372266 -0.455339
Cl2   Cl    Cl    0.874270 0.298704 0.903132 -0.531794
Cl3   Cl    Cl    0.871863 0.697319 0.912399 -0.560453
Cl4   Cl    Cl    0.128142 0.302698 0.087589 -0.560353
Cl5   Cl    Cl    0.744888 0.176062 0.786425 -0.492520
Cl6   Cl    Cl    0.254813 0.823618 0.213722 -0.492535
Cl7   Cl    Cl    0.242212 0.182574 0.223454 -0.521299
Cl8   Cl    Cl    0.757785 0.817431 0.776548 -0.521288
Cl9   Cl    Cl    0.245204 0.676404 0.786269 -0.492549
Cl10  Cl    Cl    0.755093 0.323912 0.213583 -0.492540
Cl11  Cl    Cl    0.742215 0.682569 0.223452 -0.521286
Cl12  Cl    Cl    0.212952 0.495872 0.627733 -0.455450
Cl13  Cl    Cl    0.257788 0.317426 0.776546 -0.521298
Cl14  Cl    Cl    0.287048 0.004128 0.372267 -0.455443
Cl15  Cl    Cl    0.712952 0.995873 0.627733 -0.455331
Cl16  Cl    Cl    0.625713 0.201316 0.096889 -0.531812
Cl17  Cl    Cl    0.373981 0.800013 0.904174 -0.531053
Cl18  Cl    Cl    0.371858 0.197302 0.912411 -0.560355
Cl19  Cl    Cl    0.628137 0.802681 0.087601 -0.560457
Cl20  Cl    Cl    0.126033 0.699978 0.095810 -0.531038
H1    H     H_    0.093981 0.284010 0.361581 0.172524
H2    H     H_    0.849091 0.653552 0.588799 0.174959
H3    H     H_    0.923575 0.331228 0.379543 0.167654
H4    H     H_    0.076425 0.668772 0.620456 0.167661
H5    H     H_    0.650909 0.846448 0.411201 0.174959
H6    H     H_    0.349090 0.153552 0.588799 0.174955
H7    H     H_    0.423575 0.831228 0.379544 0.167661
H8    H     H_    0.576424 0.168772 0.620457 0.167654
H9    H     H_    0.793608 0.308157 0.849535 0.198677
H10   H     H_    0.206602 0.690585 0.149690 0.198419
H11   H     H_    0.206595 0.312835 0.146281 0.192147
H12   H     H_    0.906019 0.715990 0.638417 0.172529
H13   H     H_    0.793408 0.687179 0.853710 0.192146
H14   H     H_    0.293406 0.809424 0.850304 0.198425
H15   H     H_    0.706384 0.191838 0.150470 0.198686
H16   H     H_    0.706592 0.812821 0.146290 0.192146
H17   H     H_    0.293405 0.187165 0.853719 0.192146
H18   H     H_    0.628108 0.344094 0.015128 0.212811
H19   H     H_    0.371947 0.656015 0.984822 0.212443
H20   H     H_    0.363653 0.355440 0.995547 0.202203
H21   H     H_    0.636348 0.644558 0.004450 0.202209
H22   H     H_    0.128063 0.844006 0.015173 0.212422
H23   H     H_    0.010457 0.278274 0.349861 0.168076
H24   H     H_    0.871880 0.155881 0.984881 0.212783
H25   H     H_    0.863652 0.855442 0.995550 0.202208
H26   H     H_    0.136346 0.144560 0.004452 0.202202
H27   H     H_    0.989543 0.721726 0.650138 0.168089
H28   H     H_    0.593981 0.784010 0.361582 0.172530
H29   H     H_    0.406019 0.215991 0.638418 0.172524
H30   H     H_    0.510457 0.778274 0.349861 0.168089
H31   H     H_    0.489543 0.221726 0.650139 0.168076
H32   H     H_    0.150910 0.346448 0.411200 0.174955
I1    I     I_    0.656210 0.439615 0.714486 -0.278946
I2    I     I_    0.343814 0.560379 0.285502 -0.278927
I3    I     I_    0.435859 0.292552 0.219124 -0.170040
I4    I     I_    0.564141 0.707448 0.780875 -0.170673
I5    I     I_    0.156183 0.939620 0.714495 -0.278927
I6    I     I_    0.843793 0.060386 0.285517 -0.278945
I7    I     I_    0.935859 0.792552 0.219124 -0.170682
I8    I     I_    0.064141 0.207448 0.780876 -0.170055
O1    O     O_R   0.746490 0.236330 0.638080 -0.568903
O2    O     O_R   0.325830 0.813840 0.483730 -0.649355
O3    O     O_R   0.325830 0.186160 0.483730 -0.646057
O4    O     O_R   0.674170 0.813840 0.516270 -0.646065
O5    O     O_R   0.174170 0.686160 0.516270 -0.649355
O6    O     O_R   0.825830 0.313840 0.483730 -0.649387
O7    O     O_R   0.825830 0.686160 0.483730 -0.646066
O8    O     O_R   0.174170 0.313840 0.516270 -0.646057
O9    O     O_R   0.739960 0.127620 0.525000 -0.551371
O10   O     O_R   0.260040 0.872380 0.475000 -0.551409
O11   O     O_R   0.260040 0.127620 0.475000 -0.559285
O12   O     O_R   0.253510 0.763670 0.361920 -0.568820
O13   O     O_R   0.739960 0.872380 0.525000 -0.559285
O14   O     O_R   0.239960 0.627620 0.525000 -0.551409
O15   O     O_R   0.760040 0.372380 0.475000 -0.551371
O16   O     O_R   0.760040 0.627620 0.475000 -0.559284
O17   O     O_R   0.239960 0.372380 0.525000 -0.559284
O18   O     O_R   0.680700 0.294870 0.629350 -0.614098
O19   O     O_R   0.319300 0.705130 0.370650 -0.614094
O20   O     O_R   0.319300 0.294870 0.370650 -0.606980
O21   O     O_R   0.680700 0.705130 0.629350 -0.606965
O22   O     O_R   0.180700 0.794870 0.629350 -0.614094
O23   O     O_R   0.253510 0.236330 0.361920 -0.583199
O24   O     O_R   0.819300 0.205130 0.370650 -0.614099
O25   O     O_R   0.819300 0.794870 0.370650 -0.606965
O26   O     O_R   0.180700 0.205130 0.629350 -0.606980
O27   O     O_R   0.062020 0.072840 0.007170 -0.627280
O28   O     O_R   0.937980 0.927160 0.992830 -0.627297
O29   O     O_R   0.937980 0.072840 0.992830 -0.624321
O30   O     O_R   0.062020 0.927160 0.007170 -0.624417
O31   O     O_R   0.562020 0.572840 0.007170 -0.627295
O32   O     O_R   0.437980 0.427160 0.992830 -0.627279
O33   O     O_R   0.437980 0.572840 0.992830 -0.624415
O34   O     O_R   0.746490 0.763670 0.638080 -0.583206
O35   O     O_R   0.562020 0.427160 0.007170 -0.624317
O36   O     O_R   0.947860 0.073950 0.109290 -0.591732
O37   O     O_R   0.052140 0.926050 0.890710 -0.591716
O38   O     O_R   0.052140 0.073950 0.890710 -0.587023
O39   O     O_R   0.947860 0.926050 0.109290 -0.587068
O40   O     O_R   0.447860 0.573950 0.109290 -0.591718
O41   O     O_R   0.552140 0.426050 0.890710 -0.591733
O42   O     O_R   0.552140 0.573950 0.890710 -0.587069
O43   O     O_R   0.447860 0.426050 0.109290 -0.587024
O44   O     O_R   0.246490 0.736330 0.638080 -0.568814
O45   O     O_R   0.753510 0.263670 0.361920 -0.568895
O46   O     O_R   0.753510 0.736330 0.361920 -0.583206
O47   O     O_R   0.246490 0.263670 0.638080 -0.583199
O48   O     O_R   0.674170 0.186160 0.516270 -0.649386
Zn1   Zn    Zn3+2 0.792340 0.208750 0.507670 1.101473
Zn2   Zn    Zn3+2 0.494040 0.500000 0.919480 1.054898
Zn3   Zn    Zn3+2 0.005960 0.000000 0.080520 1.054894
Zn4   Zn    Zn3+2 0.994040 0.000000 0.919480 1.055062
Zn5   Zn    Zn3+2 0.207660 0.791250 0.492330 1.101547
Zn6   Zn    Zn3+2 0.207660 0.208750 0.492330 1.103250
Zn7   Zn    Zn3+2 0.792340 0.791250 0.507670 1.103225
Zn8   Zn    Zn3+2 0.292340 0.708750 0.507670 1.101554
Zn9   Zn    Zn3+2 0.707660 0.291250 0.492330 1.101481
Zn10  Zn    Zn3+2 0.707660 0.708750 0.492330 1.103228
Zn11  Zn    Zn3+2 0.292340 0.291250 0.507670 1.103252
Zn12  Zn    Zn3+2 0.505960 0.500000 0.080520 1.055069

loop_
_geom_bond_atom_site_label_1
_geom_bond_atom_site_label_2
_ccdc_geom_bond_type
C100  C153  A    
O33   Zn2   S    
C62   Cl12  S    
C145  O14   A    
C69   O12   A    
C68   H7    S    
C135  O47   A    
C140  Cl13  S    
C43   C52   A    
C31   C42   A    
C123  C132  A    
C27   C29   A    
C34   C37   A    
C24   C42   A    
C6    C111  S    
C80   O20   A    
C6    O29   A    
C103  H24   S    
O21   Zn10  S    
C133  C151  A    
O42   Zn2   S    
C4    O38   A    
C74   C83   A    
C25   H28   S    
C133  Cl6   S    
C14   C33   A    
C13   C41   A    
C44   C65   A    
C19   C46   A    
C77   C92   A    
C71   C94   A    
C26   C28   A    
C3    C105  A    
C16   C31   A    
C83   C92   A    
C7    O30   A    
O38   Zn4   S    
C59   C64   A    
O18   Zn9   S    
C113  C129  S    
C46   H2    S    
C92   Cl3   S    
C10   O40   A    
C17   C26   A    
C11   O41   A    
C80   O23   A    
C4    C114  S    
C148  O7    A    
O27   Zn3   S    
C77   C86   A    
C144  O4    A    
C37   C40   A    
C102  C128  S    
C52   C61   A    
C28   H12   S    
C77   C156  S    
C136  Cl8   S    
C38   C39   A    
C145  O5    A    
C75   C84   A    
C71   C150  S    
O32   Zn2   S    
C120  I6    S    
O17   Zn11  S    
C55   C61   A    
C134  C152  A    
C16   C25   A    
C132  C150  A    
C134  Cl7   S    
O15   Zn9   S    
C118  I4    S    
C85   C94   A    
C122  I8    S    
C9    O43   A    
C9    O32   A    
C95   Cl19  S    
C132  Cl5   S    
C142  O2    A    
C116  I2    S    
C131  C140  A    
C18   C57   A    
C94   Cl16  S    
O12   Zn5   S    
C13   C51   A    
C20   C35   A    
C147  O15   A    
C44   C53   A    
C113  O24   A    
C129  C138  A    
C8    O42   A    
C8    O31   A    
C2    C44   A    
C22   C25   A    
C98   H19   S    
C97   C150  A    
C31   C33   A    
C30   C41   A    
C84   H14   S    
C148  O16   A    
C149  O8    A    
C88   Cl2   S    
C138  Cl10  S    
C79   H9    S    
C117  C126  A    
C76   C88   A    
C4    O27   A    
C72   C81   A    
C20   C29   A    
C56   C142  S    
C100  H21   S    
C72   C151  S    
C15   C23   A    
C47   C146  A    
C69   C125  S    
C100  C109  A    
C2    C45   A    
C29   H1    S    
C23   H29   S    
C90   Cl4   S    
C10   C107  S    
O34   Zn7   S    
C130  C139  A    
C74   C95   A    
O9    Zn1   S    
C79   C88   A    
C109  C118  A    
C142  O10   A    
C54   C149  S    
C98   C151  A    
C12   C32   A    
O37   Zn4   S    
C141  O9    A    
O46   Zn10  S    
C102  O22   A    
O19   Zn8   S    
C115  C123  A    
C115  I1    S    
O4    Zn10  S    
C120  C129  A    
O16   Zn10  S    
C105  C114  A    
C36   C40   A    
C27   H23   S    
C127  C136  A    
C87   H17   S    
C105  H26   S    
C104  C112  A    
O6    Zn1   S    
C75   C89   A    
C101  H22   S    
C63   Cl14  S    
C17   C37   A    
C54   C62   A    
C58   C64   A    
C101  C110  A    
C18   C38   A    
O8    Zn6   S    
C99   H20   S    
C11   O35   A    
C71   C79   A    
C34   C39   A    
C74   C153  S    
C111  C120  A    
C9    C108  S    
C20   C36   A    
C97   H18   S    
O44   Zn8   S    
O22   Zn5   S    
C128  C137  A    
C1    C123  S    
O7    Zn7   S    
C99   C108  A    
C67   H6    S    
C61   Cl1   S    
C107  C116  A    
C53   C62   A    
C144  O13   A    
O36   Zn3   S    
C18   C27   A    
C124  O46   A    
C1    O18   A    
C117  I3    S    
C15   C67   A    
C87   C96   A    
C91   O21   A    
C11   C106  S    
O3    Zn11  S    
C56   C63   A    
C124  C130  S    
O43   Zn12  S    
C121  C130  A    
C113  O45   A    
C21   H31   S    
O35   Zn12  S    
C139  Cl11  S    
C19   C28   A    
C50   C66   A    
C24   C50   A    
C126  C134  A    
C147  O6    A    
C91   C127  S    
C72   C93   A    
C70   H8    S    
C5    C112  S    
C66   H5    S    
C39   C146  A    
C59   C144  S    
C119  I5    S    
C52   C147  S    
O47   Zn11  S    
C116  C125  A    
C21   C23   A    
C73   C152  S    
C137  Cl9   S    
C101  C154  A    
O1    Zn1   S    
C60   C63   A    
C104  C156  A    
O29   Zn4   S    
C16   C66   A    
C49   C58   A    
C50   C59   A    
O30   Zn3   S    
C35   C45   A    
C78   C87   A    
O26   Zn6   S    
C73   C82   A    
C73   C96   A    
O5    Zn5   S    
C135  O26   A    
C15   C30   A    
C47   C55   A    
C96   Cl18  S    
C103  C155  A    
C24   C49   A    
C48   C56   A    
C138  C155  A    
C12   C70   A    
C46   C47   A    
C32   C42   A    
O10   Zn5   S    
C125  C133  A    
O23   Zn6   S    
C81   H10   S    
C17   C65   A    
C108  C117  A    
C83   H13   S    
O41   Zn2   S    
C2    C40   A    
C143  O11   A    
C48   C68   A    
C19   C34   A    
C110  C119  A    
C45   C54   A    
C13   C48   A    
C57   H3    S    
C124  O25   A    
C51   C60   A    
C103  C111  A    
C85   H15   S    
C99   C152  A    
C82   H11   S    
C76   C155  S    
C131  C135  S    
O48   Zn9   S    
C82   C90   A    
C7    C110  S    
C6    O36   A    
C106  C115  A    
C49   C70   A    
C10   O33   A    
C33   C41   A    
C104  H25   S    
O20   Zn11  S    
C64   Cl15  S    
C36   C38   A    
C26   H27   S    
C22   H30   S    
C81   C89   A    
C112  C121  A    
C60   C143  S    
C43   C146  A    
C8    C109  S    
C119  C128  A    
C30   C32   A    
C136  C153  A    
O13   Zn7   S    
C58   C141  S    
C14   C22   A    
C122  C131  A    
C51   C67   A    
C80   C126  S    
C139  C156  A    
C78   C90   A    
C12   C21   A    
C75   C154  S    
C93   Cl17  S    
C141  O48   A    
C102  O44   A    
C137  C154  A    
O14   Zn8   S    
C55   C148  S    
C84   C93   A    
C53   C145  S    
C5    O28   A    
C69   O19   A    
C5    O39   A    
O24   Zn1   S    
O11   Zn6   S    
C149  O17   A    
C86   H16   S    
O2    Zn8   S    
C86   C95   A    
C43   C57   A    
C143  O3    A    
C114  C122  A    
O25   Zn7   S    
C35   H32   S    
O45   Zn9   S    
O39   Zn3   S    
C121  I7    S    
C118  C127  A    
C14   C68   A    
O40   Zn12  S    
C1    O1    A    
C3    C140  A    
C89   Cl20  S    
O28   Zn4   S    
O31   Zn12  S    
C3    C78   S    
C76   C85   A    
C91   O34   A    
C7    O37   A    
C98   C107  A    
C65   H4    S    
C97   C106  A    
