data_mof_unit_32444.cif
_audit_creation_date              2012-12-10T17:21:17-0500
_audit_creation_method            fapswitch 2.2
_symmetry_space_group_name_H-M    P1
_symmetry_Int_Tables_number       1
_space_group_crystal_system       triclinic
_cell_length_a                    9.618425
_cell_length_b                    10.78199
_cell_length_c                    13.876761
_cell_angle_alpha                 92.529112
_cell_angle_beta                  84.898516
_cell_angle_gamma                 90.160487
_cell_volume                      1432.0023154

loop_
_atom_site_label
_atom_site_type_symbol
_atom_type_description
_atom_site_fract_x
_atom_site_fract_y
_atom_site_fract_z
_atom_type_partial_charge
C1    C     C_R   0.499661 0.737363 0.503736 0.792279
C2    C     C_1   0.463852 0.498961 0.785944 -0.195320
C3    C     C_R   0.328876 0.878835 0.655584 -0.182937
C4    C     C_R   0.244886 0.947386 0.725550 -0.134970
C5    C     C_R   0.244019 0.076321 0.725133 -0.132473
C6    C     C_R   0.327101 0.137522 0.654734 -0.172438
C7    C     C_R   0.411013 0.069928 0.581701 0.098692
C8    C     C_R   0.411722 0.938703 0.582086 0.099046
C9    C     C_R   0.499222 0.871546 0.510783 -0.093521
C10   C     C_R   0.588907 0.932959 0.444167 -0.179927
C11   C     C_R   0.588447 0.060870 0.443869 -0.206892
C12   C     C_R   0.477373 0.500020 0.682790 0.792905
C13   C     C_R   0.498285 0.129457 0.510178 -0.089252
C14   C     C_R   0.872082 0.333432 0.372744 -0.106950
C15   C     C_R   0.951681 0.250887 0.311342 -0.209060
C16   C     C_R   0.094880 0.250427 0.311640 -0.202870
C17   C     C_R   0.159370 0.332561 0.373301 -0.104958
C18   C     C_R   0.082350 0.417327 0.438172 0.190082
C19   C     C_R   0.933027 0.417622 0.437979 0.120016
C20   C     C_R   0.918322 0.579024 0.559691 0.525823
C21   C     C_R   0.067282 0.579735 0.557927 -0.168677
C22   C     C_R   0.499398 0.262929 0.503219 0.758371
C23   C     C_R   0.522627 0.499896 0.317186 0.791697
C24   C     C_1   0.536195 0.500719 0.213981 -0.173025
C25   C     C_2   0.557743 0.503177 0.023425 -0.165643
C26   C     C_2   0.442692 0.496892 0.976449 -0.160765
C27   C     C_1   0.453291 0.498042 0.872795 -0.000949
C28   C     C_1   0.547000 0.501768 0.127106 0.002459
Cu1   Cu    Cu3+1 0.359340 0.500010 0.500010 0.927185
Cu2   Cu    Cu3+1 0.640660 0.499990 0.499990 0.972123
H1    H     H_    0.340056 0.490643 0.015543 0.155202
H2    H     H_    0.763502 0.327479 0.365244 0.188429
H3    H     H_    0.901627 0.187399 0.262599 0.141884
H4    H     H_    0.156893 0.186620 0.263083 0.147540
H5    H     H_    0.269829 0.326001 0.366091 0.192139
H6    H     H_    0.118558 0.646947 0.602745 0.146053
H7    H     H_    0.657217 0.881338 0.390452 0.151908
H8    H     H_    0.330015 0.779213 0.661233 0.135421
H9    H     H_    0.181744 0.900280 0.781174 0.129730
H10   H     H_    0.180226 0.129295 0.780473 0.133191
H11   H     H_    0.326504 0.237770 0.659694 0.154229
H12   H     H_    0.656528 0.106575 0.389968 0.137518
N1    N     N_R   0.852210 0.498790 0.499090 -0.233376
N2    N     N_R   0.148080 0.498710 0.499060 -0.214679
O1    O     O_R   0.381190 0.680360 0.500010 -0.581055
O2    O     O_R   0.618760 0.680340 0.500000 -0.520794
O3    O     O_R   0.364420 0.499990 0.637850 -0.588824
O4    O     O_R   0.601990 0.499960 0.637840 -0.545277
O5    O     O_R   0.381240 0.319660 0.500000 -0.602615
O6    O     O_R   0.618810 0.319640 0.499990 -0.594174
O7    O     O_R   0.398010 0.500040 0.362160 -0.583801
O8    O     O_R   0.635580 0.500010 0.362150 -0.593815
H13   H     H_    0.660385 0.509480 0.984325 0.151281
O9    O     O_3   0.839388 0.667563 0.615178 -0.544804
C29   C     C_3   0.854528 0.654210 0.714532 0.055876
H14   H     H_    0.961123 0.680897 0.732732 0.115005
H15   H     H_    0.832353 0.557098 0.735722 0.146207
C30   C     C_3   0.751432 0.740181 0.774018 -0.748012
H16   H     H_    0.643364 0.719707 0.755981 0.246005
H17   H     H_    0.758017 0.727112 0.852418 0.190249
H18   H     H_    0.776057 0.838360 0.758339 0.243307

loop_
_geom_bond_atom_site_label_1
_geom_bond_atom_site_label_2
_ccdc_geom_bond_type
C7    C13   A    
C23   C24   S    
Cu1   Cu2   S    
C18   N2    A    
C21   N2    A    
C9    C10   A    
C23   O7    A    
C4    H9    S    
C22   O6    A    
C12   O4    A    
C2    C12   S    
C30   H18   S    
C12   O3    A    
C17   C18   A    
C23   O8    A    
C26   H1    S    
C21   H6    S    
Cu1   O5    S    
C25   C28   S    
C11   C13   A    
C1    O1    A    
C26   C27   S    
C2    C27   T    
Cu1   O3    S    
C22   O5    A    
C4    C5    A    
Cu2   O4    S    
C19   N1    A    
C13   C22   S    
C3    C8    A    
C6    C7    A    
C29   H15   S    
Cu1   N2    S    
Cu2   O6    S    
C5    C6    A    
Cu2   N1    S    
C30   H16   S    
C1    O2    A    
C29   C30   S    
C10   C11   A    
C29   H14   S    
C30   H17   S    
C15   C16   A    
C24   C28   T    
C7    C8    A    
C20   N1    A    
C1    C9    S    
C20   C21   A    
C11   H12   S    
C20   O9    S    
C18   C19   A    
Cu1   O7    S    
C5    H10   S    
Cu1   O1    S    
Cu2   O8    S    
C14   C15   A    
C16   C17   A    
C17   H5    S    
C16   H4    S    
C25   C26   D    
O9    C29   S    
C14   H2    S    
C14   C19   A    
Cu2   O2    S    
C3    C4    A    
C3    H8    S    
C25   H13   S    
C8    C9    A    
C15   H3    S    
C6    H11   S    
C10   H7    S    
