data_mof_unit_34511.cif
_audit_creation_date              2012-10-26T17:12:29-0400
_audit_creation_method            fapswitch 2.2
_symmetry_space_group_name_H-M    P1
_symmetry_Int_Tables_number       1
_space_group_crystal_system       triclinic
_cell_length_a                    16.763933
_cell_length_b                    16.844902
_cell_length_c                    16.854846
_cell_angle_alpha                 68.388652
_cell_angle_beta                  68.121984
_cell_angle_gamma                 68.121386
_cell_volume                      3950.50779518

loop_
_atom_site_label
_atom_site_type_symbol
_atom_type_description
_atom_site_fract_x
_atom_site_fract_y
_atom_site_fract_z
_atom_type_partial_charge
C1    C     C_R   0.017260 0.830495 0.568502 0.546860
C2    C     C_R   0.028446 0.564364 0.828493 0.480395
C3    C     C_2   0.397799 0.751767 0.137444 0.279451
C4    C     C_2   0.118943 0.504910 0.185517 0.282614
C5    C     C_2   0.140436 0.402082 0.748599 0.283473
C6    C     C_1   0.724700 0.080899 0.729242 0.266866
C7    C     C_1   0.266985 0.926433 0.267411 0.280112
C8    C     C_1   0.064786 0.734587 0.733337 0.308906
C9    C     C_1   0.923866 0.272678 0.269689 0.271094
C10   C     C_1   0.726894 0.722200 0.085641 0.254760
C11   C     C_1   0.272541 0.269095 0.923471 0.272762
C12   C     C_R   0.172174 0.968981 0.436273 0.575974
C13   C     C_R   0.828066 0.029222 0.564194 0.486494
C14   C     C_R   0.519302 0.924730 0.738038 0.023248
C15   C     C_R   0.548048 0.940152 0.292666 0.045161
C16   C     C_R   0.955585 0.729011 0.496360 0.027501
C17   C     C_R   0.932817 0.298839 0.545635 0.027961
C18   C     C_R   0.729802 0.499207 0.952245 0.029023
C19   C     C_R   0.298551 0.547168 0.927736 0.047393
C20   C     C_R   0.302330 0.909634 0.550642 0.017583
C21   C     C_R   0.971458 0.171602 0.435700 0.503213
C22   C     C_R   0.691685 0.075554 0.457921 0.043201
C23   C     C_R   0.504487 0.272239 0.042591 0.028867
C24   C     C_R   0.451575 0.702147 0.069305 0.060381
C25   C     C_R   0.046607 0.502732 0.270068 0.027949
C26   C     C_R   0.071172 0.454374 0.700301 0.050984
C27   C     C_R   0.553880 0.990965 0.553730 0.035995
C28   C     C_R   0.460238 0.962413 0.461706 0.031908
C29   C     C_R   0.009968 0.545377 0.549840 0.036531
C30   C     C_R   0.994601 0.448811 0.453642 0.036385
C31   C     C_R   0.544917 0.552426 0.005951 0.036227
C32   C     C_R   0.830070 0.568403 0.018062 0.519656
C33   C     C_R   0.449367 0.455932 0.989598 0.033994
C34   C     C_R   0.582188 0.009873 0.460644 -0.009421
C35   C     C_R   0.428059 0.948214 0.554654 0.010752
C36   C     C_R   0.013858 0.454848 0.587079 -0.010510
C37   C     C_R   0.006093 0.534574 0.411554 -0.013805
C38   C     C_R   0.453791 0.589708 0.009600 -0.006269
C39   C     C_R   0.535693 0.414032 0.001003 -0.013355
C40   C     C_R   0.541504 0.985506 0.416441 -0.017206
C41   C     C_R   0.480239 0.954485 0.601540 -0.003288
C42   C     C_R   0.411031 0.546490 0.986610 -0.011702
C43   C     C_R   0.171653 0.436057 0.970307 0.486317
C44   C     C_R   0.588023 0.466870 0.993351 -0.013839
C45   C     C_R   0.991783 0.411395 0.543911 -0.015050
C46   C     C_R   0.998263 0.587317 0.464136 -0.011835
C47   C     C_R   0.466882 0.918126 0.693656 -0.095395
C48   C     C_R   0.585876 0.971801 0.332038 -0.064848
C49   C     C_R   0.969770 0.680096 0.438082 -0.091095
C50   C     C_R   0.960191 0.336310 0.589565 -0.096048
C51   C     C_R   0.681415 0.441047 0.964824 -0.092124
C52   C     C_R   0.335777 0.591952 0.954471 -0.062306
C53   C     C_R   0.348641 0.921650 0.597721 -0.150255
C54   C     C_R   0.569163 0.016355 0.830826 0.520834
C55   C     C_R   0.648704 0.054858 0.413833 -0.072110
C56   C     C_R   0.562689 0.321261 0.028692 -0.092110
C57   C     C_R   0.407313 0.664425 0.042342 -0.050930
C58   C     C_R   0.033577 0.560807 0.318781 -0.094621
C59   C     C_R   0.045544 0.409583 0.662176 -0.064880
C60   C     C_R   0.576871 0.981120 0.692929 -0.040208
C61   C     C_R   0.454692 0.948327 0.323771 -0.046352
C62   C     C_R   0.996138 0.687905 0.567855 -0.044474
C63   C     C_R   0.958733 0.321652 0.451193 -0.034616
C64   C     C_R   0.687539 0.569816 0.994234 -0.044541
C65   C     C_R   0.435922 0.970311 0.171856 0.487253
C66   C     C_R   0.322152 0.452578 0.954277 -0.034975
C67   C     C_R   0.327392 0.936498 0.456271 0.021375
C68   C     C_R   0.675754 0.041348 0.551243 -0.030820
C69   C     C_R   0.432520 0.313192 0.002256 -0.041732
C70   C     C_R   0.546788 0.679038 0.043066 -0.019553
C71   C     C_R   0.005707 0.431443 0.311684 -0.041913
C72   C     C_R   0.043689 0.548825 0.677771 -0.032597
C73   C     C_R   0.611651 0.013876 0.736587 -0.051520
C74   C     C_R   0.403200 0.949467 0.271586 -0.068586
C75   C     C_R   0.017502 0.735186 0.609138 -0.043570
C76   C     C_R   0.431571 0.169896 0.982053 0.519338
C77   C     C_R   0.957451 0.270249 0.400949 -0.062831
C78   C     C_R   0.734064 0.609101 0.018967 -0.051718
C79   C     C_R   0.270674 0.401755 0.954367 -0.068540
C80   C     C_R   0.273021 0.945457 0.403401 -0.006842
C81   C     C_R   0.728722 0.043706 0.599479 -0.070932
C82   C     C_R   0.391573 0.265860 0.980256 -0.051769
C83   C     C_R   0.597532 0.729656 0.045079 -0.069355
C84   C     C_R   0.982158 0.391076 0.265142 -0.051275
C85   C     C_R   0.042354 0.599589 0.730049 -0.070305
C86   C     C_R   0.688040 0.045510 0.688307 -0.064740
C87   C     C_R   0.563760 0.828327 0.029940 0.485959
C88   C     C_R   0.314793 0.941781 0.314218 -0.074796
C89   C     C_R   0.041550 0.689442 0.689909 -0.052094
C90   C     C_R   0.955691 0.311544 0.311912 -0.063324
C91   C     C_R   0.686561 0.687393 0.047779 -0.064305
C92   C     C_R   0.311988 0.312399 0.953487 -0.064591
C93   C     C_R   0.601634 0.005312 0.599236 0.014498
C94   C     C_R   0.413162 0.950655 0.413441 0.000375
C95   C     C_R   0.017196 0.594177 0.598418 0.013913
C96   C     C_R   0.985852 0.400650 0.405358 0.014320
C97   C     C_R   0.593166 0.600416 0.014910 0.016210
C98   C     C_R   0.982370 0.431596 0.169688 0.518235
C99   C     C_R   0.401480 0.407098 0.981382 0.012826
C100  C     C_2   0.526262 0.858971 0.824373 0.272446
C101  C     C_2   0.610481 0.878993 0.237450 0.298357
C102  C     C_2   0.882406 0.813039 0.494203 0.279413
C103  C     C_2   0.863155 0.251283 0.599155 0.280766
C104  C     C_2   0.814608 0.497650 0.880082 0.282917
C105  C     C_2   0.249061 0.599499 0.859490 0.285215
C106  C     C_2   0.241844 0.851718 0.603296 0.280368
C107  C     C_2   0.740837 0.144237 0.407065 0.279275
C108  C     C_2   0.507230 0.188458 0.115066 0.282346
Cu1   Cu    Cu3+1 0.995180 0.995180 0.424630 1.092449
Cu2   Cu    Cu3+1 0.004820 0.004820 0.575370 1.029907
Cu3   Cu    Cu3+1 0.995180 0.424630 0.995180 1.078794
Cu4   Cu    Cu3+1 0.004820 0.575370 0.004820 1.080959
Cu5   Cu    Cu3+1 0.424630 0.995180 0.995180 1.078027
Cu6   Cu    Cu3+1 0.575370 0.004820 0.004820 1.090790
H1    H     H_    0.422330 0.876357 0.730641 0.162160
H2    H     H_    0.335126 0.686417 0.056928 0.175334
H3    H     H_    0.057120 0.619811 0.285765 0.171397
H4    H     H_    0.060857 0.337848 0.684022 0.165930
H5    H     H_    0.582878 0.845105 0.848611 0.097337
H6    H     H_    0.586780 0.833482 0.225846 0.093873
H7    H     H_    0.853654 0.840268 0.551131 0.099318
H8    H     H_    0.829156 0.233521 0.567239 0.094118
H9    H     H_    0.841516 0.554564 0.853122 0.100848
H10   H     H_    0.231467 0.566309 0.826671 0.095357
H11   H     H_    0.210598 0.847753 0.673210 0.146433
H12   H     H_    0.655408 0.971734 0.303326 0.183720
H13   H     H_    0.762631 0.172810 0.440840 0.089369
H14   H     H_    0.450068 0.161372 0.143905 0.103278
H15   H     H_    0.430256 0.769504 0.170916 0.090560
H16   H     H_    0.147025 0.448021 0.158257 0.103597
H17   H     H_    0.172529 0.435013 0.767448 0.092215
H18   H     H_    0.946174 0.712801 0.379130 0.170192
H19   H     H_    0.945790 0.314348 0.661202 0.178748
H20   H     H_    0.714932 0.382347 0.940487 0.170983
H21   H     H_    0.313194 0.663680 0.939976 0.173182
H22   H     H_    0.322737 0.906513 0.668983 0.107256
H23   H     H_    0.662632 0.080061 0.342423 0.178168
H24   H     H_    0.622215 0.288702 0.051904 0.171410
N1    N     N_1   0.753213 0.107797 0.763811 -0.179998
N2    N     N_1   0.227686 0.915221 0.230556 -0.178616
N3    N     N_1   0.081538 0.771172 0.768725 -0.210567
N4    N     N_1   0.899496 0.241962 0.234878 -0.178436
N5    N     N_1   0.760489 0.748820 0.115494 -0.195923
N6    N     N_1   0.241529 0.233010 0.900889 -0.179583
O1    O     O_R   0.124540 0.978640 0.385460 -0.495806
O2    O     O_R   0.124540 0.385460 0.978640 -0.498944
O3    O     O_R   0.021360 0.875460 0.614540 -0.491421
O4    O     O_R   0.978640 0.124540 0.385460 -0.493510
O5    O     O_R   0.013780 0.867370 0.487190 -0.497603
O6    O     O_R   0.986220 0.132630 0.512810 -0.514532
O7    O     O_R   0.867370 0.487190 0.013780 -0.498166
O8    O     O_R   0.132630 0.512810 0.986220 -0.503146
O9    O     O_R   0.487190 0.013780 0.867370 -0.493596
O10   O     O_R   0.512810 0.986220 0.132630 -0.504438
O11   O     O_R   0.512810 0.132630 0.986220 -0.497609
O12   O     O_R   0.875460 0.021360 0.614540 -0.501883
O13   O     O_R   0.487190 0.867370 0.013780 -0.495748
O14   O     O_R   0.986220 0.512810 0.132630 -0.498240
O15   O     O_R   0.013780 0.487190 0.867370 -0.503379
O16   O     O_R   0.132630 0.986220 0.512810 -0.502239
O17   O     O_R   0.867370 0.013780 0.487190 -0.501692
O18   O     O_2   0.470334 0.818013 0.868166 -0.509787
O19   O     O_2   0.688910 0.878843 0.204584 -0.461985
O20   O     O_2   0.852540 0.851902 0.429874 -0.490996
O21   O     O_2   0.840684 0.234259 0.679928 -0.479969
O22   O     O_2   0.854394 0.433899 0.849025 -0.496514
O23   O     O_R   0.978640 0.385460 0.124540 -0.493299
O24   O     O_2   0.229860 0.680446 0.837091 -0.500485
O25   O     O_2   0.230350 0.804459 0.570571 -0.501483
O26   O     O_2   0.755022 0.171966 0.326605 -0.477931
O27   O     O_2   0.572379 0.149595 0.144182 -0.494604
O28   O     O_2   0.316335 0.770848 0.159116 -0.479299
O29   O     O_2   0.148881 0.569198 0.146263 -0.497564
O30   O     O_2   0.164932 0.321293 0.764877 -0.484798
O31   O     O_R   0.021360 0.614540 0.875460 -0.500367
O32   O     O_R   0.385460 0.124540 0.978640 -0.494614
O33   O     O_R   0.614540 0.875460 0.021360 -0.499427
O34   O     O_R   0.614540 0.021360 0.875460 -0.495621
O35   O     O_R   0.385460 0.978640 0.124540 -0.501082
O36   O     O_R   0.875460 0.614540 0.021360 -0.491162

loop_
_geom_bond_atom_site_label_1
_geom_bond_atom_site_label_2
_ccdc_geom_bond_type
C66   C99   A    
C83   C87   S    
C35   C53   A    
C26   C72   A    
C5    O30   D    
C23   C69   A    
C20   C67   A    
Cu3   Cu4   S    
C36   C59   A    
C54   O9    A    
C72   C85   A    
C24   C70   A    
C23   C56   A    
C104  H9    S    
C47   H1    S    
C66   C79   A    
C29   C36   A    
C33   C39   A    
Cu4   O14   S    
C2    C85   S    
C34   C40   A    
C33   C42   A    
Cu5   Cu6   S    
C7    N2    T    
C51   H20   S    
C3    O28   D    
C28   C40   A    
C43   C79   S    
C22   C107  S    
C38   C57   A    
C13   C81   S    
C60   C73   A    
C11   N6    T    
C82   C92   A    
C19   C66   A    
C28   C94   A    
C6    N1    T    
Cu3   O15   S    
C30   C96   A    
C69   C82   A    
C30   C45   A    
C72   C95   A    
C11   C92   S    
C74   C88   A    
C98   O14   A    
C28   C35   A    
C24   C57   A    
Cu6   O34   S    
C67   C94   A    
Cu4   O8    S    
C1    O5    A    
C8    N3    T    
C25   C71   A    
C102  H7    S    
C26   C59   A    
C81   C86   A    
C70   C97   A    
Cu4   O36   S    
C60   C93   A    
C48   H12   S    
C34   C55   A    
C62   C95   A    
C3    C24   S    
C53   H22   S    
C84   C90   A    
C15   C48   A    
C19   C52   A    
C18   C51   A    
C4    C25   S    
C57   H2    S    
C20   C106  S    
C27   C34   A    
C15   C61   A    
C49   H18   S    
C77   C90   A    
C31   C44   A    
C1    C75   S    
C21   O4    A    
C76   O32   A    
Cu2   O12   S    
C16   C49   A    
Cu3   O2    S    
C76   C82   S    
C29   C95   A    
C85   C89   A    
C61   C94   A    
C2    O15   A    
C4    H16   S    
C71   C96   A    
C65   O35   A    
C32   C78   S    
C63   C96   A    
C58   H3    S    
C15   C101  S    
C65   C74   S    
C87   O13   A    
C105  H10   S    
C33   C99   A    
C12   O1    A    
C17   C50   A    
Cu1   O5    S    
C13   O12   A    
C65   O10   A    
C2    O31   A    
C87   O33   A    
C54   C73   S    
C56   H24   S    
C27   C41   A    
C7    C88   S    
C106  H11   S    
C101  O19   D    
Cu6   O33   S    
C41   C47   A    
C36   C45   A    
C100  H5    S    
C18   C104  S    
C21   O6    A    
C12   O16   A    
C14   C100  S    
C70   C83   A    
C22   C68   A    
C79   C92   A    
C39   C44   A    
Cu5   O32   S    
C69   C99   A    
C44   C51   A    
C16   C102  S    
C64   C97   A    
Cu5   O35   S    
C14   C47   A    
C10   C91   S    
C103  O21   D    
C59   H4    S    
C4    O29   D    
C78   C91   A    
C106  O25   D    
C46   C49   A    
C62   C75   A    
C1    O3    A    
Cu1   O4    S    
Cu3   O23   S    
C25   C58   A    
C68   C81   A    
Cu2   O3    S    
C39   C56   A    
C19   C105  S    
Cu6   O11   S    
Cu2   O16   S    
C71   C84   A    
C63   C77   A    
C14   C60   A    
C40   C48   A    
C3    H15   S    
C101  H6    S    
C64   C78   A    
Cu1   O1    S    
C67   C80   A    
C98   O23   A    
Cu5   O9    S    
C20   C53   A    
Cu2   O6    S    
C50   H19   S    
Cu3   O7    S    
C9    C90   S    
C9    N4    T    
C105  O24   D    
C13   O17   A    
C22   C55   A    
C61   C74   A    
C83   C91   A    
C76   O11   A    
C68   C93   A    
C55   H23   S    
C31   C38   A    
C29   C46   A    
C84   C98   S    
C37   C58   A    
C17   C103  S    
C107  H13   S    
C80   C88   A    
C43   O2    A    
Cu1   O17   S    
Cu1   Cu2   S    
C17   C63   A    
C18   C64   A    
C32   O7    A    
C45   C50   A    
C23   C108  S    
C12   C80   S    
C6    C86   S    
Cu6   O10   S    
C10   N5    T    
C31   C97   A    
C35   C41   A    
C73   C86   A    
C27   C93   A    
C75   C89   A    
C104  O22   D    
C5    C26   S    
C38   C42   A    
C54   O34   A    
C5    H17   S    
Cu4   O31   S    
C30   C37   A    
C102  O20   D    
C108  O27   D    
C21   C77   S    
C52   H21   S    
C32   O36   A    
C100  O18   D    
C8    C89   S    
C108  H14   S    
Cu5   O13   S    
C37   C46   A    
C103  H8    S    
C16   C62   A    
C43   O8    A    
C42   C52   A    
C107  O26   D    
