data_mof_unit_29886.cif
_audit_creation_date              2012-12-10T17:04:30-0500
_audit_creation_method            fapswitch 2.2
_symmetry_space_group_name_H-M    P1
_symmetry_Int_Tables_number       1
_space_group_crystal_system       triclinic
_cell_length_a                    14.955019
_cell_length_b                    10.696894
_cell_length_c                    10.003283
_cell_angle_alpha                 89.584904
_cell_angle_beta                  89.389182
_cell_angle_gamma                 90.200587
_cell_volume                      1600.10454551

loop_
_atom_site_label
_atom_site_type_symbol
_atom_type_description
_atom_site_fract_x
_atom_site_fract_y
_atom_site_fract_z
_atom_type_partial_charge
C1    C     C_R   0.505065 0.262809 0.500316 0.915013
C2    C     C_R   0.184577 0.449432 0.604544 -0.292073
C3    C     C_R   0.231169 0.512072 0.502750 -0.196694
C4    C     C_R   0.326815 0.502923 0.500637 0.902212
C5    C     C_R   0.186566 0.582124 0.404215 0.417890
C6    C     C_2   0.528910 0.932818 0.400049 -0.273977
C7    C     C_2   0.485584 0.870687 0.497888 0.314562
C8    C     C_2   0.522624 0.066671 0.389804 -0.146112
C9    C     C_2   0.522249 0.132454 0.502100 -0.255589
C10   C     C_2   0.566985 0.537552 0.924392 -0.299778
C11   C     C_2   0.559249 0.560826 0.074009 0.511054
C12   C     C_R   0.906903 0.571645 0.399777 0.148763
C13   C     C_R   0.495991 0.737673 0.499960 0.790128
C14   C     C_R   0.673138 0.500328 0.499427 0.888181
C15   C     C_R   0.814425 0.567702 0.398834 -0.260097
C16   C     C_R   0.768624 0.501967 0.498924 -0.081931
C17   C     C_R   0.813493 0.439800 0.600840 -0.239334
C18   C     C_R   0.906122 0.442991 0.604373 0.005297
C19   C     C_R   0.953137 0.509755 0.503175 0.029963
C20   C     C_3   0.425595 0.910613 0.710279 0.074300
C21   C     C_3   0.348987 0.828758 0.764618 -0.323875
C22   C     C_3   0.358341 0.804524 0.914419 -0.946002
C23   C     C_R   0.952434 0.380635 0.706612 0.456745
C24   C     C_3   0.642986 0.745727 0.063829 0.058734
C25   C     C_3   0.740644 0.740712 0.016677 -0.377184
C26   C     C_3   0.765130 0.854329 0.930569 -0.934687
C27   C     C_3   0.892364 0.376619 0.916418 0.058398
C28   C     C_3   0.825904 0.305303 0.005867 -0.337666
C29   C     C_3   0.808518 0.373692 0.136668 -0.924650
C30   C     C_3   0.269048 0.759773 0.357445 0.123676
C31   C     C_3   0.209878 0.870665 0.319398 -0.418838
C32   C     C_3   0.250949 0.994388 0.363229 -0.858683
C33   C     C_R   0.045551 0.383630 0.706331 -0.292697
C34   C     C_R   0.092249 0.449675 0.606370 0.048584
C35   C     C_R   0.046278 0.513297 0.504233 -0.014592
C36   C     C_R   0.093370 0.578699 0.401941 0.044124
C37   C     C_R   0.046363 0.638350 0.299046 -0.196176
C38   C     C_R   0.953657 0.635301 0.298444 -0.255793
H1    H     H_    0.439671 0.492441 0.898891 0.164008
H2    H     H_    0.517819 0.109777 0.291479 0.162935
H3    H     H_    0.535204 0.089084 0.598445 0.151899
H4    H     H_    0.629468 0.559360 0.873815 0.188954
H5    H     H_    0.635976 0.826966 0.131154 0.152812
H6    H     H_    0.597536 0.765703 0.978635 0.121115
H7    H     H_    0.784637 0.738397 0.105242 0.212943
H8    H     H_    0.753051 0.654683 0.958193 0.210071
H9    H     H_    0.723323 0.856988 0.839458 0.262601
H10   H     H_    0.836496 0.848636 0.899506 0.267248
H11   H     H_    0.755058 0.941795 0.987929 0.260073
H12   H     H_    0.777937 0.616334 0.321230 0.177009
H13   H     H_    0.461382 0.435890 0.102127 0.112249
H14   H     H_    0.775718 0.388809 0.676765 0.188025
H15   H     H_    0.863525 0.470389 0.893405 0.126126
H16   H     H_    0.956391 0.388855 0.970751 0.152871
H17   H     H_    0.761643 0.294148 0.952266 0.222006
H18   H     H_    0.852695 0.210763 0.028514 0.232843
H19   H     H_    0.871581 0.382411 0.193474 0.272234
H20   H     H_    0.759272 0.320358 0.198523 0.271377
H21   H     H_    0.781033 0.468145 0.116527 0.274451
H22   H     H_    0.081168 0.332688 0.783132 0.161197
H23   H     H_    0.419727 0.004006 0.757410 0.152859
H24   H     H_    0.220460 0.397359 0.680381 0.177267
H25   H     H_    0.336090 0.774251 0.310994 0.187644
H26   H     H_    0.279046 0.757993 0.467904 0.114349
H27   H     H_    0.200990 0.872700 0.209209 0.230109
H28   H     H_    0.143182 0.859964 0.368121 0.222576
H29   H     H_    0.256260 0.996786 0.473826 0.289590
H30   H     H_    0.207711 0.072873 0.330754 0.252225
H31   H     H_    0.318388 0.007259 0.317421 0.273659
H32   H     H_    0.080891 0.686931 0.218311 0.183460
H33   H     H_    0.918667 0.681927 0.218220 0.142218
H34   H     H_    0.491980 0.873909 0.741427 0.136909
H35   H     H_    0.572140 0.885489 0.329151 0.138343
H36   H     H_    0.284270 0.876283 0.746003 0.211891
H37   H     H_    0.347724 0.737914 0.711925 0.241334
H38   H     H_    0.421774 0.754597 0.934932 0.258489
H39   H     H_    0.301698 0.745645 0.950813 0.271646
H40   H     H_    0.357603 0.894115 0.969891 0.256828
N1    N     N_2   0.500970 0.501330 0.852150 -0.207789
N2    N     N_2   0.500990 0.501360 0.147810 -0.210638
O1    O     O_R   0.499990 0.319060 0.613040 -0.614620
O2    O     O_3   0.620966 0.636467 0.138609 -0.612899
O3    O     O_3   0.907239 0.306765 0.799177 -0.643379
O4    O     O_3   0.233568 0.647248 0.305396 -0.650361
O5    O     O_R   0.500010 0.319100 0.386900 -0.623774
O6    O     O_R   0.367830 0.499950 0.613080 -0.635518
O7    O     O_R   0.367860 0.499990 0.386940 -0.575635
O8    O     O_R   0.499990 0.680900 0.613100 -0.621792
O9    O     O_R   0.500010 0.680940 0.386960 -0.606975
O10   O     O_R   0.632140 0.500010 0.613060 -0.627692
O11   O     O_R   0.632170 0.500050 0.386920 -0.571946
O12   O     O_3   0.416786 0.927664 0.570412 -0.660353
Zn1   Zn    Zn3+2 0.499980 0.499970 0.650990 0.927876
Zn2   Zn    Zn3+2 0.500020 0.500030 0.349010 0.987853

loop_
_geom_bond_atom_site_label_1
_geom_bond_atom_site_label_2
_ccdc_geom_bond_type
C31   H28   S    
O7    Zn2   S    
C30   H26   S    
C10   H4    S    
C35   C36   A    
C22   H38   S    
C28   H18   S    
C27   H16   S    
C4    O7    A    
C20   O12   S    
C23   O3    S    
C6    H35   S    
C36   C37   A    
N1    Zn1   S    
C30   C31   S    
C4    O6    A    
C1    O1    A    
C15   C16   A    
C5    C36   A    
C20   H23   S    
C12   C19   A    
C34   C35   A    
C15   H12   S    
O9    Zn2   S    
C24   O2    S    
H13   N2    S    
C14   O10   A    
C38   H33   S    
C29   H21   S    
C8    C9    D    
C23   C33   A    
C26   H10   S    
C32   H30   S    
C2    C34   A    
C37   H32   S    
C30   O4    S    
C17   H14   S    
C28   H17   S    
C17   C18   A    
C11   O2    S    
C1    O5    A    
C18   C23   A    
C1    C9    S    
C24   C25   S    
C22   H40   S    
C11   N2    D    
C26   H11   S    
C5    O4    S    
C18   C19   A    
C6    C8    S    
C25   C26   S    
C21   H36   S    
H1    N1    S    
C37   C38   A    
O6    Zn1   S    
O1    Zn1   S    
O5    Zn2   S    
C31   C32   S    
C12   C15   A    
C33   C34   A    
C29   H20   S    
C32   H31   S    
C26   H9    S    
C32   H29   S    
C29   H19   S    
C33   H22   S    
C24   H6    S    
C14   C16   S    
N2    Zn2   S    
C3    C4    S    
C25   H7    S    
O10   Zn1   S    
C31   H27   S    
O8    Zn1   S    
C28   C29   S    
C13   O9    A    
C22   H39   S    
C3    C5    A    
C10   N1    D    
C27   H15   S    
C6    C7    D    
C21   H37   S    
C9    H3    S    
C27   O3    S    
C2    C3    A    
C19   C35   A    
O11   Zn2   S    
C16   C17   A    
C7    O12   S    
C13   O8    A    
C30   H25   S    
C12   C38   A    
C14   O11   A    
C10   C11   S    
C7    C13   S    
C20   C21   S    
C27   C28   S    
C24   H5    S    
C20   H34   S    
C8    H2    S    
C21   C22   S    
C25   H8    S    
C2    H24   S    
