data_mof_unit_17530.cif
_audit_creation_date              2012-12-10T17:40:58-0500
_audit_creation_method            fapswitch 2.2
_symmetry_space_group_name_H-M    P1
_symmetry_Int_Tables_number       1
_space_group_crystal_system       triclinic
_cell_length_a                    14.701901
_cell_length_b                    15.700244
_cell_length_c                    9.909267
_cell_angle_alpha                 91.902305
_cell_angle_beta                  92.674609
_cell_angle_gamma                 89.318941
_cell_volume                      2283.41775992

loop_
_atom_site_label
_atom_site_type_symbol
_atom_type_description
_atom_site_fract_x
_atom_site_fract_y
_atom_site_fract_z
_atom_type_partial_charge
C1    C     C_R   0.387515 0.874023 0.496059 0.961037
C2    C     C_R   0.393707 0.129310 0.501947 0.995434
C3    C     C_R   0.887499 0.374032 0.496054 0.961049
C4    C     C_R   0.893712 0.629312 0.501949 0.995468
C5    C     C_R   0.326880 0.258444 0.395304 0.173016
C6    C     C_R   0.281680 0.774713 0.373290 0.162192
C7    C     C_R   0.826891 0.758449 0.395312 0.172930
C8    C     C_R   0.781587 0.274782 0.373290 0.162238
C9    C     C_R   0.757557 0.819078 0.399074 0.489184
C10   C     C_R   0.702855 0.228282 0.387263 0.449889
C11   C     C_R   0.257552 0.319078 0.399070 0.489122
C12   C     C_R   0.202943 0.728217 0.387243 0.449878
C13   C     C_R   0.698033 0.820671 0.507688 -0.271989
C14   C     C_R   0.690808 0.186291 0.509839 -0.222557
C15   C     C_R   0.198026 0.320668 0.507682 -0.271935
C16   C     C_R   0.190871 0.686239 0.509827 -0.222536
C17   C     C_R   0.337827 0.989521 0.137355 -0.140701
C18   C     C_R   0.837821 0.489589 0.137364 -0.140643
C19   C     C_R   0.259696 0.958048 0.073996 -0.290288
C20   C     C_R   0.759656 0.458180 0.074009 -0.290380
C21   C     C_R   0.257486 0.939555 0.937703 0.294803
C22   C     C_R   0.757432 0.439673 0.937725 0.294909
C23   C     C_R   0.326854 0.970340 0.859252 0.284784
C24   C     C_R   0.826826 0.470400 0.859259 0.284731
C25   C     C_R   0.416116 0.991769 0.923282 -0.055982
C26   C     C_R   0.916108 0.491795 0.923281 -0.055949
C27   C     C_R   0.418611 0.995110 0.068785 0.140738
C28   C     C_R   0.918607 0.495138 0.068787 0.140736
C29   C     C_R   0.577987 0.999826 0.077244 -0.218012
C30   C     C_R   0.077985 0.499807 0.077246 -0.218015
C31   C     C_R   0.620192 0.121179 0.504013 0.896927
C32   C     C_R   0.620816 0.879336 0.501481 0.888362
C33   C     C_R   0.120211 0.621164 0.504011 0.896902
C34   C     C_R   0.120811 0.379334 0.501479 0.888256
C35   C     C_R   0.578965 0.997745 0.932740 0.544737
C36   C     C_R   0.078962 0.497723 0.932747 0.544716
C37   C     C_R   0.349118 0.217955 0.761777 -0.132404
C38   C     C_R   0.407749 0.743320 0.694598 -0.192274
C39   C     C_R   0.849138 0.717965 0.761783 -0.132372
C40   C     C_R   0.907746 0.243272 0.694481 -0.192200
C41   C     C_R   0.296595 0.214486 0.874129 -0.226966
C42   C     C_R   0.404324 0.702156 0.814724 -0.233532
C43   C     C_R   0.796628 0.714527 0.874155 -0.227039
C44   C     C_R   0.904317 0.202132 0.814629 -0.233653
C45   C     C_R   0.703482 0.734107 0.861993 0.550063
C46   C     C_R   0.824769 0.159812 0.845481 0.618211
C47   C     C_R   0.203445 0.234042 0.861945 0.550111
C48   C     C_R   0.324833 0.659723 0.845467 0.618188
C49   C     C_R   0.669688 0.770995 0.742770 -0.188382
C50   C     C_R   0.751130 0.158360 0.749165 -0.154855
C51   C     C_R   0.169658 0.270954 0.742735 -0.188544
C52   C     C_R   0.251211 0.658249 0.749125 -0.155155
C53   C     C_R   0.723382 0.776749 0.627896 -0.033743
C54   C     C_R   0.756850 0.195204 0.620458 -0.044889
C55   C     C_R   0.223366 0.276735 0.627880 -0.033753
C56   C     C_R   0.256911 0.695147 0.620455 -0.044834
C57   C     C_R   0.308312 0.236520 0.633876 0.066964
C58   C     C_R   0.333099 0.745363 0.601930 0.072963
C59   C     C_R   0.808325 0.736526 0.633885 0.066983
C60   C     C_R   0.833063 0.245375 0.601885 0.072833
C61   C     C_R   0.346504 0.211188 0.510538 -0.255877
C62   C     C_R   0.336123 0.795045 0.487946 -0.211253
C63   C     C_R   0.846511 0.711191 0.510544 -0.255855
C64   C     C_R   0.836077 0.295070 0.487921 -0.211261
H1    H     H_    0.420975 0.202651 0.774303 0.184882
H2    H     H_    0.469950 0.772863 0.671368 0.151107
H3    H     H_    0.920993 0.702650 0.774297 0.184904
H4    H     H_    0.969965 0.272761 0.671172 0.151017
H5    H     H_    0.328626 0.195319 0.968634 0.186422
H6    H     H_    0.463453 0.706129 0.883409 0.187328
H7    H     H_    0.828667 0.695371 0.968661 0.186427
H8    H     H_    0.963481 0.206061 0.883252 0.187302
H9    H     H_    0.601583 0.794228 0.745070 0.172459
H10   H     H_    0.689627 0.131733 0.781415 0.228206
H11   H     H_    0.101553 0.294191 0.745031 0.172480
H12   H     H_    0.189744 0.631543 0.781319 0.228364
H13   H     H_    0.640509 0.001208 0.138237 0.168463
H14   H     H_    0.140511 0.501176 0.138235 0.168525
H15   H     H_    0.334541 0.000332 0.243125 0.237590
H16   H     H_    0.834550 0.500364 0.243143 0.237633
H17   H     H_    0.201602 0.944568 0.132911 0.216129
H18   H     H_    0.701555 0.444734 0.132933 0.216126
N1    N     N_R   0.498810 1.000000 0.142780 -0.118054
N2    N     N_R   0.998810 0.500000 0.142780 -0.118061
N3    N     N_R   0.498740 0.000000 0.857170 -0.145342
N4    N     N_R   0.998740 0.500000 0.857170 -0.145322
O1    O     O_R   0.408390 0.908380 0.614690 -0.595391
O2    O     O_R   0.408390 0.091620 0.614690 -0.598380
O3    O     O_R   0.908390 0.408380 0.614690 -0.595328
O4    O     O_R   0.908390 0.591620 0.614690 -0.598387
O5    O     O_R   0.408370 0.908380 0.385360 -0.600780
O6    O     O_R   0.408370 0.091620 0.385360 -0.614882
O7    O     O_R   0.908370 0.408380 0.385360 -0.600798
O8    O     O_R   0.908370 0.591620 0.385360 -0.614904
O9    O     O_R   0.591620 0.091610 0.614640 -0.626785
O10   O     O_R   0.591620 0.908390 0.614640 -0.614698
O11   O     O_R   0.091620 0.591610 0.614640 -0.626829
O12   O     O_R   0.091620 0.408390 0.614640 -0.614669
O13   O     O_R   0.591610 0.091610 0.385310 -0.598515
O14   O     O_R   0.591610 0.908390 0.385310 -0.553584
O15   O     O_R   0.091610 0.591610 0.385310 -0.598434
O16   O     O_R   0.091610 0.408390 0.385310 -0.553642
Zn1   Zn    Zn3+2 0.500010 1.000000 0.653130 0.998084
Zn2   Zn    Zn3+2 0.000010 0.500000 0.653130 0.998086
Zn3   Zn    Zn3+2 0.499980 1.000000 0.346870 1.006308
Zn4   Zn    Zn3+2 0.999980 0.500000 0.346870 1.006296
Br1   Br    Br    0.398487 0.249464 0.237635 -0.496607
Br2   Br    Br    0.330962 0.784894 0.198344 -0.541366
Br3   Br    Br    0.898525 0.749483 0.237667 -0.496605
Br4   Br    Br    0.830794 0.285020 0.198304 -0.541325
Br5   Br    Br    0.150747 0.880850 0.863529 -0.507495
Br6   Br    Br    0.650661 0.380987 0.863597 -0.507516
Br7   Br    Br    0.264412 0.011351 0.698538 -0.471475
Br8   Br    Br    0.764409 0.511348 0.698470 -0.471433
O17   O     O_3   0.659194 0.993144 0.864140 -0.609280
C65   C     C_3   0.725677 0.941361 0.929462 -0.231415
H19   H     H_    0.695945 0.884801 0.973561 0.207648
H20   H     H_    0.762355 0.977305 0.011766 0.198687
H21   H     H_    0.775894 0.919796 0.855147 0.194274
O18   O     O_3   0.159193 0.493101 0.864167 -0.609362
C66   C     C_3   0.225615 0.441225 0.929425 -0.231331
H22   H     H_    0.195819 0.384712 0.973586 0.207584
H23   H     H_    0.262393 0.477126 0.011668 0.198778
H24   H     H_    0.275754 0.419584 0.855055 0.194297
O19   O     O_3   0.646899 0.731908 0.970261 -0.624300
C67   C     C_3   0.655593 0.653484 0.035252 -0.285645
H25   H     H_    0.719368 0.650605 0.099507 0.195345
H26   H     H_    0.650852 0.598478 0.961538 0.189028
H27   H     H_    0.598781 0.648277 0.103991 0.186204
O20   O     O_3   0.813207 0.123183 0.969608 -0.618699
C68   C     C_3   0.896165 0.093162 0.030058 -0.327788
H28   H     H_    0.936580 0.146583 0.076332 0.214301
H29   H     H_    0.936386 0.054507 0.957259 0.177569
H30   H     H_    0.881298 0.051642 0.114062 0.179488
O21   O     O_3   0.146850 0.231795 0.970190 -0.624357
C69   C     C_3   0.155548 0.153345 0.035108 -0.285688
H31   H     H_    0.219310 0.150456 0.099391 0.195317
H32   H     H_    0.150837 0.098367 0.961345 0.189138
H33   H     H_    0.098725 0.148094 0.103806 0.186131
O22   O     O_3   0.313319 0.622983 0.969518 -0.618705
C70   C     C_3   0.396309 0.592929 0.029817 -0.327753
H34   H     H_    0.436687 0.646314 0.076278 0.214169
H35   H     H_    0.436554 0.554422 0.956871 0.177676
H36   H     H_    0.381495 0.551257 0.113643 0.179571
O23   O     O_3   0.748016 0.876248 0.295940 -0.566423
C71   C     C_3   0.795277 0.951130 0.337844 -0.263438
H37   H     H_    0.773809 0.977201 0.437479 0.135908
H38   H     H_    0.779600 0.000987 0.263819 0.158835
H39   H     H_    0.870111 0.939580 0.341500 0.194296
O24   O     O_3   0.628520 0.239341 0.297054 -0.573739
C72   C     C_3   0.641332 0.197952 0.170551 -0.054783
H40   H     H_    0.575751 0.169671 0.133941 0.182397
H41   H     H_    0.693594 0.145981 0.173867 0.149823
H42   H     H_    0.657907 0.245368 0.095268 0.222675
O25   O     O_3   0.248009 0.376236 0.295924 -0.566459
C73   C     C_3   0.295243 0.451130 0.337834 -0.263317
H43   H     H_    0.273539 0.477322 0.437284 0.135946
H44   H     H_    0.279774 0.500912 0.263583 0.158918
H45   H     H_    0.370083 0.439536 0.341916 0.194174
O26   O     O_3   0.128622 0.739284 0.297013 -0.573735
C74   C     C_3   0.141451 0.697898 0.170515 -0.054868
H46   H     H_    0.075863 0.669659 0.133854 0.182405
H47   H     H_    0.193680 0.645899 0.173856 0.149807
H48   H     H_    0.158084 0.745308 0.095258 0.222644

loop_
_geom_bond_atom_site_label_1
_geom_bond_atom_site_label_2
_ccdc_geom_bond_type
C7    C63   A    
C58   C62   A    
C24   Br8   S    
C67   H25   S    
C40   C60   A    
C20   H18   S    
C28   N2    A    
O5    Zn3   S    
C13   C32   S    
C17   H15   S    
C14   C31   S    
C68   H30   S    
N4    Zn2   S    
C1    C62   S    
O2    Zn1   S    
C74   H46   S    
C53   C59   A    
O21   C69   S    
C54   C60   A    
C3    C64   S    
C4    C63   S    
O14   Zn3   S    
C34   O16   A    
C57   C61   A    
C33   O15   A    
C73   H43   S    
C19   C21   A    
C24   C26   A    
C5    C11   A    
C50   H10   S    
C6    C12   A    
C16   C33   S    
C49   C53   A    
C49   H9    S    
O17   C65   S    
C42   H6    S    
C65   H19   S    
C18   C20   A    
C72   H42   S    
C9    O23   S    
C1    O1    A    
C9    C13   A    
C66   H24   S    
C21   Br5   S    
C38   C58   A    
C11   C15   A    
C12   C16   A    
C45   O19   S    
O9    Zn1   S    
C37   H1    S    
N2    Zn4   S    
C72   H40   S    
C35   O17   S    
C31   O13   A    
C15   C34   S    
C4    O4    A    
N3    Zn1   S    
C2    C61   S    
C11   O25   S    
C23   C25   A    
C1    O5    A    
C30   N2    A    
C69   H33   S    
C26   C28   A    
C74   H47   S    
C44   C46   A    
C60   C64   A    
O23   C71   S    
C71   H38   S    
C56   C58   A    
C21   C23   A    
O13   Zn3   S    
C48   O22   S    
C17   C27   A    
C38   H2    S    
C18   C28   A    
O22   C70   S    
C69   H32   S    
C10   C14   A    
C70   H36   S    
C17   C19   A    
C47   C51   A    
C67   H27   S    
C52   H12   S    
C7    Br3   S    
C15   C55   A    
C16   C56   A    
C13   C53   A    
C8    Br4   S    
O7    Zn4   S    
C23   Br7   S    
C71   H39   S    
C45   C49   A    
C26   N4    A    
C39   C59   A    
C25   N3    A    
C41   C47   A    
C5    C61   A    
C3    O7    A    
C42   C48   A    
C12   O26   S    
C2    O6    A    
C43   C45   A    
O4    Zn2   S    
C66   H22   S    
C8    C64   A    
O1    Zn1   S    
C8    C10   A    
C14   C54   A    
C20   C22   A    
C22   Br6   S    
C55   C57   A    
O3    Zn2   S    
O19   C67   S    
C22   C24   A    
C2    O2    A    
O10   Zn1   S    
C40   C44   A    
C68   H28   S    
C74   H48   S    
O18   C66   S    
C41   H5    S    
C71   H37   S    
C5    Br1   S    
O15   Zn4   S    
C7    C9    A    
C46   C50   A    
O8    Zn4   S    
C67   H26   S    
C47   O21   S    
C39   H3    S    
C73   H45   S    
C51   H11   S    
C69   H31   S    
C68   H29   S    
C46   O20   S    
C39   C43   A    
C29   N1    A    
C25   C27   A    
C29   C35   A    
C59   C63   A    
C65   H21   S    
C30   C36   A    
C3    O3    A    
C36   N4    A    
O26   C74   S    
C6    C62   A    
C70   H35   S    
O20   C68   S    
C50   C54   A    
C70   H34   S    
C10   O24   S    
C32   O10   A    
C35   N3    A    
C4    O8    A    
C31   O9    A    
C73   H44   S    
C34   O12   A    
C65   H20   S    
C44   H8    S    
C51   C55   A    
C72   H41   S    
C37   C41   A    
C36   O18   S    
C43   H7    S    
C66   H23   S    
O11   Zn2   S    
C27   N1    A    
C30   H14   S    
C38   C42   A    
C32   O14   A    
O6    Zn3   S    
C48   C52   A    
C29   H13   S    
C18   H16   S    
C40   H4    S    
O16   Zn4   S    
O25   C73   S    
C6    Br2   S    
O24   C72   S    
N1    Zn3   S    
C33   O11   A    
C19   H17   S    
O12   Zn2   S    
C37   C57   A    
C52   C56   A    
