data_mof_unit_68522.cif
_audit_creation_date              2012-12-10T19:24:08-0500
_audit_creation_method            fapswitch 2.2
_symmetry_space_group_name_H-M    P1
_symmetry_Int_Tables_number       1
_space_group_crystal_system       triclinic
_cell_length_a                    10.509859
_cell_length_b                    10.505805
_cell_length_c                    9.81409
_cell_angle_alpha                 88.929819
_cell_angle_beta                  89.522817
_cell_angle_gamma                 89.25121
_cell_volume                      1083.30116892

loop_
_atom_site_label
_atom_site_type_symbol
_atom_type_description
_atom_site_fract_x
_atom_site_fract_y
_atom_site_fract_z
_atom_type_partial_charge
C1    C     C_R   0.502126 0.258044 0.501259 0.887801
C2    C     C_R   0.497881 0.741956 0.498741 0.887743
C3    C     C_3   0.396169 0.959977 0.565112 0.208572
C4    C     C_3   0.603844 0.040020 0.434889 0.208552
C5    C     C_3   0.469433 0.392064 0.049046 0.321839
C6    C     C_3   0.530566 0.607936 0.950953 0.321827
C7    C     C_3   0.580825 0.416149 0.951772 -0.122916
C8    C     C_3   0.419175 0.583850 0.048228 -0.122909
C9    C     C_3   0.387848 0.473387 0.952832 -0.170065
C10   C     C_3   0.612152 0.526613 0.047168 -0.170091
C11   C     C_R   0.258327 0.494207 0.500386 0.880768
C12   C     C_R   0.741672 0.505803 0.499613 0.880838
C13   C     C_3   0.036926 0.418129 0.597056 0.235790
C14   C     C_3   0.963070 0.581894 0.402945 0.235809
C15   C     C_3   0.953174 0.381979 0.475649 -0.311780
C16   C     C_3   0.046824 0.618044 0.524352 -0.311812
C17   C     C_3   0.876168 0.506336 0.499582 -0.184678
C18   C     C_3   0.123830 0.493686 0.500418 -0.184645
C19   C     C_3   0.959950 0.539960 0.620629 0.242066
C20   C     C_3   0.040047 0.460064 0.379370 0.242043
C21   C     C_3   0.501426 0.036650 0.633633 -0.257968
C22   C     C_3   0.498582 0.963350 0.366370 -0.258124
C23   C     C_3   0.602704 0.953446 0.561558 0.235716
C24   C     C_3   0.397309 0.046554 0.438446 0.235572
C25   C     C_3   0.497462 0.876642 0.496123 -0.186162
C26   C     C_3   0.502550 0.123357 0.503878 -0.186215
H1    H     H_    0.912311 0.287210 0.455793 0.170111
H2    H     H_    0.087688 0.712813 0.544207 0.170012
H3    H     H_    0.503062 0.069524 0.740205 0.166489
H4    H     H_    0.496938 0.930478 0.259798 0.166471
H5    H     H_    0.647894 0.345669 0.906817 0.135102
H6    H     H_    0.352105 0.654330 0.093183 0.135100
N1    N     N_3   0.499910 0.500030 0.863290 -0.110101
N2    N     N_3   0.500090 0.499970 0.136710 -0.110104
O1    O     O_R   0.500010 0.313960 0.616610 -0.619843
O2    O     O_R   0.499990 0.686040 0.383390 -0.619844
O3    O     O_R   0.500060 0.313950 0.383350 -0.615973
O4    O     O_R   0.499940 0.686050 0.616650 -0.615983
O5    O     O_R   0.313930 0.499970 0.616610 -0.627688
O6    O     O_R   0.686070 0.500030 0.383390 -0.627665
O7    O     O_R   0.313980 0.499960 0.383350 -0.620254
O8    O     O_R   0.686020 0.500040 0.616650 -0.620262
Zn1   Zn    Zn3+2 0.499970 0.500010 0.655740 0.935598
Zn2   Zn    Zn3+2 0.500030 0.499990 0.344260 0.935603
N3    N     N_2   0.080181 0.327622 0.700066 -0.312597
H7    H     H_    0.153095 0.359797 0.758935 0.230634
C27   C     C_3   0.979844 0.267304 0.778234 -0.821233
H8    H     H_    0.020934 0.190585 0.844274 0.239186
H9    H     H_    0.909786 0.224834 0.709337 0.256300
H10   H     H_    0.930018 0.337770 0.843251 0.263592
N4    N     N_2   0.919807 0.672405 0.299942 -0.312518
H11   H     H_    0.846896 0.640227 0.241069 0.230631
C28   C     C_3   0.020139 0.732737 0.221779 -0.821273
H12   H     H_    0.979042 0.809450 0.155736 0.239188
H13   H     H_    0.069980 0.662277 0.156766 0.263587
H14   H     H_    0.090186 0.775218 0.290682 0.256284
N5    N     N_2   0.910525 0.585477 0.749224 -0.286898
H15   H     H_    0.842282 0.655654 0.735859 0.228004
C29   C     C_3   0.005251 0.621213 0.846685 -0.829529
H16   H     H_    0.956759 0.651239 0.941828 0.240456
H17   H     H_    0.062256 0.701976 0.806047 0.240666
H18   H     H_    0.069070 0.539510 0.871725 0.255648
N6    N     N_2   0.089473 0.414545 0.250777 -0.286886
H19   H     H_    0.157700 0.344354 0.264144 0.228000
C30   C     C_3   0.994747 0.378835 0.153304 -0.829526
H20   H     H_    0.043242 0.348775 0.058176 0.240456
H21   H     H_    0.930968 0.460561 0.128238 0.255640
H22   H     H_    0.937701 0.298103 0.193943 0.240669
N7    N     N_2   0.711481 0.893018 0.626678 -0.300771
H23   H     H_    0.753632 0.822114 0.570099 0.209141
C31   C     C_3   0.801229 0.978178 0.686105 -0.813729
H24   H     H_    0.870665 0.922117 0.748090 0.237577
H25   H     H_    0.751489 0.046581 0.753847 0.242724
H26   H     H_    0.853689 0.030622 0.604570 0.260736
N8    N     N_2   0.288524 0.106978 0.373336 -0.300749
H27   H     H_    0.246414 0.177923 0.429890 0.209088
C32   C     C_3   0.198722 0.021810 0.314015 -0.813459
H28   H     H_    0.129273 0.077858 0.252032 0.237569
H29   H     H_    0.146279 0.969430 0.395615 0.260813
H30   H     H_    0.248414 0.953354 0.246291 0.242670
N9    N     N_2   0.284480 0.907940 0.632240 -0.313630
H31   H     H_    0.304691 0.829266 0.692907 0.250825
C33   C     C_3   0.203926 0.999338 0.700888 -0.813866
H32   H     H_    0.255210 0.040680 0.787614 0.242560
H33   H     H_    0.117586 0.951091 0.740795 0.234398
H34   H     H_    0.173070 0.076409 0.629505 0.272977
N10   N     N_2   0.715499 0.092073 0.367707 -0.313582
H35   H     H_    0.695179 0.170583 0.306823 0.250870
C34   C     C_3   0.796222 0.000631 0.299332 -0.813956
H36   H     H_    0.882209 0.049017 0.258768 0.234282
H37   H     H_    0.744859 0.958543 0.213121 0.242676
H38   H     H_    0.827657 0.924124 0.371073 0.272979
N11   N     N_2   0.432662 0.271261 0.108971 -0.267576
H39   H     H_    0.351823 0.278860 0.168272 0.250046
C35   C     C_3   0.427979 0.167453 0.014976 -0.839248
H40   H     H_    0.395688 0.080085 0.069545 0.253336
H41   H     H_    0.524236 0.148431 0.972061 0.239142
H42   H     H_    0.360419 0.190652 0.931414 0.233725
N12   N     N_2   0.567329 0.728741 0.891027 -0.267561
H43   H     H_    0.648162 0.721144 0.831717 0.250058
C36   C     C_3   0.572019 0.832548 0.985023 -0.839108
H44   H     H_    0.604290 0.919919 0.930449 0.253349
H45   H     H_    0.639598 0.809355 0.068567 0.233649
H46   H     H_    0.475768 0.851561 0.027959 0.239113
H47   H     H_    0.294273 0.449354 0.909935 0.125055
H48   H     H_    0.705727 0.550645 0.090065 0.125056

loop_
_geom_bond_atom_site_label_1
_geom_bond_atom_site_label_2
_ccdc_geom_bond_type
C16   H2    S    
C7    C10   S    
C21   C26   S    
N6    C30   S    
C11   C18   S    
N11   H39   S    
C23   N7    S    
C35   H40   S    
C3    C21   S    
N10   H35   S    
N9    H31   S    
C35   H42   S    
C27   H9    S    
C4    N10   S    
N3    H7    S    
C19   N5    S    
C36   H44   S    
C13   C18   S    
C6    C8    S    
C24   C26   S    
N5    C29   S    
C9    H47   S    
N3    C27   S    
N7    C31   S    
C12   O8    A    
C14   N4    S    
C8    C9    S    
C30   H21   S    
C22   C25   S    
C12   C17   S    
C3    N9    S    
C34   H37   S    
O1    Zn1   S    
C18   C20   S    
C1    O3    A    
C5    N11   S    
C28   H13   S    
C29   H16   S    
C36   H45   S    
C9    N1    S    
C7    N1    S    
C14   C17   S    
C3    C24   S    
N9    C33   S    
C27   H10   S    
C32   H29   S    
C15   C20   S    
C29   H17   S    
C7    H5    S    
C13   C19   S    
N4    H11   S    
C8    H6    S    
C27   H8    S    
C14   C20   S    
C3    C25   S    
N2    Zn2   S    
C5    C7    S    
C4    C23   S    
O5    Zn1   S    
C32   H28   S    
C21   H3    S    
N4    C28   S    
N1    Zn1   S    
C12   O6    A    
N8    H27   S    
C5    C9    S    
C4    C22   S    
C2    O4    A    
C15   H1    S    
C33   H32   S    
C30   H22   S    
C5    N2    S    
C10   N2    S    
C8    N2    S    
C34   H38   S    
C11   O5    A    
N8    C32   S    
N12   C36   S    
C36   H46   S    
C13   C15   S    
C1    C26   S    
O7    Zn2   S    
C14   C16   S    
O2    Zn2   S    
O8    Zn1   S    
C1    O1    A    
C31   H25   S    
C28   H14   S    
C2    O2    A    
C15   C17   S    
C29   H18   S    
C22   H4    S    
C33   H33   S    
C6    C10   S    
C31   H26   S    
C4    C26   S    
C35   H41   S    
C24   N8    S    
C28   H12   S    
C6    N1    S    
C6    N12   S    
O3    Zn2   S    
C21   C23   S    
O4    Zn1   S    
N12   H43   S    
C13   N3    S    
C32   H30   S    
N5    H15   S    
N11   C35   S    
C20   N6    S    
C16   C19   S    
C17   C19   S    
C11   O7    A    
C2    C25   S    
C22   C24   S    
C23   C25   S    
N7    H23   S    
C10   H48   S    
N6    H19   S    
O6    Zn2   S    
C33   H34   S    
C31   H24   S    
C16   C18   S    
C30   H20   S    
N10   C34   S    
C34   H36   S    
