data_mof_unit_38188.cif
_audit_creation_date              2012-12-10T19:34:58-0500
_audit_creation_method            fapswitch 2.2
_symmetry_space_group_name_H-M    P1
_symmetry_Int_Tables_number       1
_space_group_crystal_system       triclinic
_cell_length_a                    10.872704
_cell_length_b                    15.892271
_cell_length_c                    17.105841
_cell_angle_alpha                 96.357155
_cell_angle_beta                  94.066082
_cell_angle_gamma                 89.590308
_cell_volume                      2930.18202985

loop_
_atom_site_label
_atom_site_type_symbol
_atom_type_description
_atom_site_fract_x
_atom_site_fract_y
_atom_site_fract_z
_atom_type_partial_charge
C1    C     C_R   0.499654 0.489534 0.348715 0.794787
C2    C     C_R   0.500348 0.510466 0.651285 0.794802
C3    C     C_R   0.500462 0.483914 0.262684 -0.021040
C4    C     C_R   0.499544 0.516086 0.737316 -0.021050
C5    C     C_R   0.522974 0.556598 0.226255 -0.222965
C6    C     C_R   0.477047 0.443400 0.773747 -0.222959
C7    C     C_R   0.521649 0.552114 0.144616 -0.155881
C8    C     C_R   0.478375 0.447884 0.855386 -0.155878
C9    C     C_R   0.497663 0.474341 0.097828 0.383914
C10   C     C_R   0.502351 0.525659 0.902173 0.383912
C11   C     C_R   0.476993 0.401840 0.134419 -0.191065
C12   C     C_R   0.523009 0.598162 0.865581 -0.191064
C13   C     C_R   0.478357 0.406327 0.216244 -0.222766
C14   C     C_R   0.521641 0.593674 0.783756 -0.222768
C15   C     C_R   0.442749 0.754164 0.456958 0.070913
C16   C     C_R   0.557259 0.245837 0.543038 0.070932
C17   C     C_R   0.444773 0.843314 0.460153 -0.294996
C18   C     C_R   0.555233 0.156687 0.539846 -0.294979
C19   C     C_R   0.520872 0.891517 0.517980 0.335908
C20   C     C_R   0.479131 0.108483 0.482021 0.335900
C21   C     C_R   0.593562 0.848458 0.570186 -0.304210
C22   C     C_R   0.406440 0.151541 0.429814 -0.304234
C23   C     C_R   0.262362 0.503225 0.504076 0.809694
C24   C     C_R   0.737636 0.496775 0.495918 0.809706
C25   C     C_R   0.594168 0.759448 0.564758 0.324390
C26   C     C_R   0.405832 0.240552 0.435242 0.324402
C27   C     C_R   0.135022 0.395022 0.597335 -0.181171
C28   C     C_R   0.864962 0.604976 0.402647 -0.181211
C29   C     C_R   0.085125 0.320248 0.617646 0.152227
C30   C     C_R   0.914874 0.679733 0.382312 0.152220
C31   C     C_R   0.968229 0.294293 0.583549 0.001487
C32   C     C_R   0.031779 0.705684 0.416393 0.001504
C33   C     C_R   0.898426 0.348204 0.538259 -0.212493
C34   C     C_R   0.101577 0.651782 0.461695 -0.212524
C35   C     C_R   0.944253 0.427796 0.523995 0.057958
C36   C     C_R   0.055743 0.572199 0.475979 0.057959
C37   C     C_R   0.069770 0.444658 0.544613 0.029591
C38   C     C_R   0.930221 0.555342 0.455369 0.029614
C39   C     C_R   0.871736 0.489341 0.487188 -0.175601
C40   C     C_R   0.128258 0.510659 0.512796 -0.175595
Cu1   Cu    Cu3+1 0.493970 0.415220 0.496180 0.933256
Cu2   Cu    Cu3+1 0.506030 0.584780 0.503820 0.933266
H1    H     H_    0.612097 0.125702 0.582722 0.182229
H2    H     H_    0.387913 0.874300 0.417276 0.182241
H3    H     H_    0.653028 0.884998 0.614826 0.159270
H4    H     H_    0.346978 0.115001 0.385174 0.159279
H5    H     H_    0.226048 0.414054 0.622732 0.153357
H6    H     H_    0.773926 0.585951 0.377264 0.153359
H7    H     H_    0.812593 0.323649 0.509974 0.175890
H8    H     H_    0.187413 0.676339 0.489970 0.175899
H9    H     H_    0.458286 0.382925 0.739251 0.165174
H10   H     H_    0.541745 0.617072 0.260751 0.165172
H11   H     H_    0.460858 0.390484 0.881457 0.153408
H12   H     H_    0.539178 0.609514 0.118545 0.153407
H13   H     H_    0.458974 0.341695 0.099209 0.140768
H14   H     H_    0.541021 0.658309 0.900790 0.140769
H15   H     H_    0.461142 0.349281 0.242971 0.152445
H16   H     H_    0.538846 0.650722 0.757028 0.152448
N1    N     N_2   0.493347 0.466052 0.014300 -0.265462
N2    N     N_2   0.506668 0.533949 0.985701 -0.265459
N3    N     N_R   0.515100 0.712130 0.509560 -0.210772
N4    N     N_R   0.484900 0.287870 0.490440 -0.210777
N5    N     N_2   0.530297 0.982158 0.525834 -0.224419
N6    N     N_2   0.469706 0.017843 0.474167 -0.224420
O1    O     O_R   0.494360 0.420530 0.382500 -0.610094
O2    O     O_R   0.505640 0.579470 0.617500 -0.610088
O3    O     O_R   0.504550 0.563720 0.388950 -0.584819
O4    O     O_R   0.495450 0.436280 0.611050 -0.584831
O5    O     O_R   0.314560 0.428400 0.496770 -0.586316
O6    O     O_R   0.685440 0.571600 0.503230 -0.586314
O7    O     O_R   0.324750 0.571590 0.503220 -0.586349
O8    O     O_R   0.675250 0.428410 0.496780 -0.586347
C41   C     C_1   0.080655 0.788154 0.407726 0.226999
N7    N     N_1   0.119576 0.854312 0.400862 -0.294347
C42   C     C_1   0.919369 0.211811 0.592186 0.226956
N8    N     N_1   0.880459 0.145642 0.599024 -0.294337
C43   C     C_3   0.687824 0.721928 0.621230 -0.368140
C44   C     C_3   0.819991 0.739541 0.602239 -0.838717
H17   H     H_    0.833196 0.717596 0.539663 0.279961
H18   H     H_    0.841553 0.808151 0.613427 0.246902
H19   H     H_    0.885855 0.705204 0.639946 0.244315
H20   H     H_    0.674051 0.750190 0.682391 0.166188
H21   H     H_    0.680398 0.653776 0.622177 0.257566
C45   C     C_3   0.312183 0.278070 0.378765 -0.368139
C46   C     C_3   0.180013 0.260453 0.397745 -0.838731
H22   H     H_    0.158459 0.191840 0.386566 0.246910
H23   H     H_    0.166789 0.282410 0.460317 0.279964
H24   H     H_    0.114152 0.294779 0.360025 0.244313
H25   H     H_    0.319605 0.346224 0.377822 0.257568
H26   H     H_    0.325968 0.249811 0.317605 0.166193
C47   C     C_3   0.161011 0.268677 0.672774 -0.423245
C48   C     C_3   0.268263 0.225164 0.631805 -0.803161
H27   H     H_    0.233583 0.183259 0.578631 0.264811
H28   H     H_    0.331324 0.273166 0.614289 0.258721
H29   H     H_    0.320909 0.186332 0.672728 0.242838
H30   H     H_    0.197613 0.311033 0.725219 0.199931
H31   H     H_    0.104524 0.219841 0.695133 0.218735
C49   C     C_3   0.838993 0.731299 0.327177 -0.423224
C50   C     C_3   0.731832 0.774898 0.368171 -0.803034
H32   H     H_    0.668712 0.726947 0.385721 0.258688
H33   H     H_    0.766605 0.816802 0.421334 0.264772
H34   H     H_    0.679220 0.813759 0.327252 0.242835
H35   H     H_    0.895508 0.780076 0.304759 0.218727
H36   H     H_    0.802293 0.688922 0.274764 0.199899
C51   C     C_1   0.632047 0.291409 0.606279 0.291235
N9    N     N_1   0.691858 0.327310 0.657898 -0.296862
C52   C     C_1   0.367978 0.708594 0.393708 0.291234
N10   N     N_1   0.308182 0.672694 0.342082 -0.296862

loop_
_geom_bond_atom_site_label_1
_geom_bond_atom_site_label_2
_ccdc_geom_bond_type
C27   C29   A    
C41   N7    T    
C23   O5    A    
C2    C4    S    
C24   O6    A    
C43   C44   S    
C45   H26   S    
C25   C43   S    
C35   C37   A    
C37   C40   A    
C2    O4    A    
C38   C39   A    
C44   H18   S    
C13   H15   S    
C43   H21   S    
C33   H7    S    
C49   H35   S    
Cu2   O6    S    
C24   C39   S    
C7    C9    A    
Cu1   Cu2   S    
C15   C52   S    
C48   H27   S    
C17   C19   A    
C47   H30   S    
C19   N5    S    
C1    O1    A    
C52   N10   T    
C31   C33   A    
C5    H10   S    
C6    H9    S    
C18   C20   A    
C3    C13   A    
N1    N2    D    
C16   N4    A    
Cu1   N4    S    
Cu1   O4    S    
C21   H3    S    
C46   H23   S    
C14   H16   S    
C34   H8    S    
C23   O7    A    
C36   C40   A    
C45   C46   S    
C4    C6    A    
C32   C41   S    
C5    C7    A    
C44   H17   S    
Cu1   O1    S    
C3    C5    A    
C46   H22   S    
C48   H29   S    
C1    C3    S    
C32   C34   A    
C20   N6    S    
C10   N2    S    
C42   N8    T    
C31   C42   S    
C50   H32   S    
C28   C38   A    
C48   H28   S    
C15   N3    A    
C25   N3    A    
C47   H31   S    
C9    C11   A    
Cu2   N3    S    
C12   H14   S    
C10   C12   A    
C16   C51   S    
Cu1   O8    S    
C16   C18   A    
C22   H4    S    
C12   C14   A    
Cu2   O3    S    
C45   H25   S    
C29   C47   S    
C11   H13   S    
C24   O8    A    
Cu1   O5    S    
C46   H24   S    
C27   H5    S    
C15   C17   A    
C21   C25   A    
C28   H6    S    
C26   C45   S    
C50   H33   S    
C20   C22   A    
C2    O2    A    
C8    H11   S    
C6    C8    A    
C1    O3    A    
C51   N9    T    
C30   C49   S    
C28   C30   A    
C26   N4    A    
C17   H2    S    
C29   C31   A    
C18   H1    S    
C30   C32   A    
C11   C13   A    
C44   H19   S    
C43   H20   S    
C27   C37   A    
C49   H36   S    
C35   C39   A    
C36   C38   A    
Cu2   O7    S    
C33   C35   A    
C34   C36   A    
C4    C14   A    
N5    N6    D    
C50   H34   S    
C8    C10   A    
C49   C50   S    
C22   C26   A    
Cu2   O2    S    
C7    H12   S    
C9    N1    S    
C47   C48   S    
C23   C40   S    
C19   C21   A    
