data_mof_unit_23086.cif
_audit_creation_date              2012-12-11T16:15:02-0500
_audit_creation_method            fapswitch 2.2
_symmetry_space_group_name_H-M    P1
_symmetry_Int_Tables_number       1
_space_group_crystal_system       triclinic
_cell_length_a                    13.546081
_cell_length_b                    13.552128
_cell_length_c                    28.446244
_cell_angle_alpha                 90.400662
_cell_angle_beta                  90.283141
_cell_angle_gamma                 60.162903
_cell_volume                      4529.76898964

loop_
_atom_site_label
_atom_site_type_symbol
_atom_type_description
_atom_site_fract_x
_atom_site_fract_y
_atom_site_fract_z
_atom_type_partial_charge
C1    C     C_R   0.279859 0.620461 0.566550 0.544473
C2    C     C_1   0.649730 0.657637 0.651735 -0.045257
C3    C     C_1   0.632492 0.231221 0.611858 -0.015048
C4    C     C_R   0.622033 0.601387 0.566514 0.545750
C5    C     C_R   0.765661 0.097314 0.720952 -0.097360
C6    C     C_R   0.777975 0.082413 0.769634 -0.091077
C7    C     C_R   0.587562 0.242337 0.780877 -0.103248
C8    C     C_R   0.575314 0.257279 0.732270 -0.097327
C9    C     C_R   0.664020 0.184532 0.702244 0.044200
C10   C     C_R   0.688929 0.154871 0.799630 0.040361
C11   C     C_1   0.698139 0.131966 0.849107 -0.051192
C12   C     C_1   0.639929 0.636185 0.611599 -0.011960
C13   C     C_1   0.650669 0.204266 0.652535 -0.059704
C14   C     C_1   0.707101 0.103637 0.889588 -0.006179
C15   C     C_1   0.232276 0.636148 0.612482 -0.019378
C16   C     C_R   0.600690 0.279149 0.565929 0.544460
C17   C     C_R   0.189846 0.557565 0.727280 0.157390
C18   C     C_R   0.171281 0.566289 0.776217 0.306138
C19   C     C_R   0.145610 0.757371 0.775166 -0.191170
C20   C     C_R   0.159011 0.750663 0.726598 -0.173599
C21   C     C_R   0.181487 0.651450 0.702514 -0.014008
C22   C     C_R   0.152846 0.665586 0.800190 -0.001564
C23   C     C_3   0.730907 0.719606 0.759155 0.188058
C24   C     C_1   0.133151 0.678708 0.849970 -0.040246
C25   C     C_1   0.204581 0.644547 0.653022 -0.063471
C26   C     C_1   0.106179 0.697170 0.890658 -0.015413
C27   C     C_1   0.636898 0.632980 0.388395 -0.007062
C28   C     C_R   0.276543 0.621088 0.434486 0.543694
C29   C     C_R   0.748664 0.585963 0.273462 -0.098767
C30   C     C_R   0.753428 0.594114 0.224636 0.256236
C31   C     C_R   0.565535 0.765154 0.225717 0.118766
C32   C     C_R   0.563319 0.756406 0.274802 -0.085449
C33   C     C_R   0.654516 0.667442 0.298539 -0.039886
C34   C     C_3   0.666948 0.687948 0.794930 -0.002144
C35   C     C_R   0.661377 0.682917 0.200515 0.045423
C36   C     C_1   0.672007 0.692561 0.150661 -0.024037
C37   C     C_1   0.646430 0.652343 0.347979 -0.053554
C38   C     C_1   0.690736 0.701924 0.110155 -0.010672
C39   C     C_1   0.633058 0.226838 0.388658 -0.005015
C40   C     C_R   0.620348 0.600351 0.434055 0.544600
C41   C     C_R   0.560027 0.234443 0.271558 -0.064301
C42   C     C_R   0.566125 0.225529 0.222560 0.167440
C43   C     C_R   0.773051 0.111924 0.228700 -0.123937
C44   C     C_R   0.765684 0.120494 0.277462 -0.110947
C45   C     C_3   0.767562 0.608507 0.731458 -0.151180
C46   C     C_R   0.659215 0.181303 0.298729 0.001956
C47   C     C_R   0.674022 0.164320 0.201232 0.043808
C48   C     C_1   0.684375 0.139883 0.152128 -0.059364
C49   C     C_1   0.650085 0.199235 0.348209 -0.055074
C50   C     C_1   0.695742 0.108660 0.112138 -0.013540
C51   C     C_1   0.223322 0.638936 0.389988 -0.003712
C52   C     C_R   0.600455 0.277056 0.433842 0.545542
C53   C     C_R   0.112244 0.763189 0.279403 0.280980
C54   C     C_R   0.100344 0.768571 0.230503 -0.101486
C55   C     C_R   0.205179 0.562302 0.225482 -0.131879
C56   C     C_3   0.657305 0.673763 0.702017 0.025794
C57   C     C_R   0.214676 0.556288 0.274243 -0.160483
C58   C     C_R   0.167675 0.656383 0.301125 0.043439
C59   C     C_R   0.148062 0.668374 0.203763 -0.015779
C60   C     C_1   0.129660 0.676608 0.154340 -0.068653
C61   C     C_1   0.191789 0.648569 0.350136 -0.016837
C62   C     C_1   0.102542 0.693565 0.113880 -0.015909
C63   C     C_R   0.720678 0.055236 0.935268 0.545523
C64   C     C_3   0.621951 0.783812 0.729889 0.303342
C65   C     C_R   0.730576 0.717811 0.932208 0.544528
C66   C     C_R   0.057697 0.729110 0.936515 0.542144
C67   C     C_3   0.702210 0.576162 0.767594 -0.112793
C68   C     C_R   0.714505 0.056303 0.067343 0.546185
C69   C     C_R   0.725266 0.717209 0.064714 0.542193
C70   C     C_R   0.053878 0.727570 0.068581 0.545610
C71   C     C_3   0.555738 0.753918 0.766151 -0.117255
C72   C     C_1   0.698577 0.702792 0.886137 -0.011878
C73   C     C_3   0.131571 0.444050 0.681700 -0.295647
C74   C     C_3   0.070267 0.492875 0.810844 -0.002907
C75   C     C_3   0.076890 0.379554 0.820481 -0.360538
C76   C     C_3   0.931934 0.537376 0.198076 -0.005431
C77   C     C_3   0.023098 0.455796 0.164203 -0.355528
C78   C     C_3   0.593000 0.642567 0.738090 0.127285
C79   C     C_3   0.369150 0.850065 0.201000 -0.307521
C80   C     C_3   0.478475 0.941477 0.693023 -0.013359
C81   C     C_3   0.448778 0.053894 0.669936 -0.354663
C82   C     C_3   0.392754 0.227729 0.199578 -0.315891
C83   C     C_3   0.137955 0.909953 0.302134 -0.020663
C84   C     C_3   0.102011 0.005297 0.338082 -0.360876
C85   C     C_3   0.470820 0.568455 0.763779 -0.291723
C86   C     C_3   0.865520 0.778566 0.733480 -0.282578
C87   C     C_1   0.680052 0.694771 0.845449 -0.052603
Cr1   Cr    Cr6+3 0.413560 0.417690 0.499580 1.026137
Cr2   Cr    Cr6+3 0.418030 0.668340 0.500400 1.025996
Cr3   Cr    Cr6+3 0.668390 0.413960 0.499990 1.033053
Cr4   Cr    Cr6+3 0.919710 0.916540 0.003080 1.030597
Cr5   Cr    Cr6+3 0.665300 0.919470 0.999630 1.032939
Cr6   Cr    Cr6+3 0.916060 0.665490 0.000390 1.023330
H1    H     H_    0.469438 0.810256 0.780647 0.094897
H2    H     H_    0.054223 0.850686 0.213498 0.109646
H3    H     H_    0.241874 0.484759 0.204843 0.142095
H4    H     H_    0.260659 0.473794 0.290933 0.118069
H5    H     H_    0.733016 0.491111 0.783425 0.117876
H6    H     H_    0.853923 0.551065 0.717313 0.095579
H7    H     H_    0.834917 0.041023 0.698039 0.101022
H8    H     H_    0.856193 0.013609 0.783879 0.107088
H9    H     H_    0.517679 0.297841 0.803702 0.127363
H10   H     H_    0.291866 0.427158 0.681847 0.244122
H11   H     H_    0.091432 0.509293 0.653792 0.136927
H12   H     H_    0.496607 0.325381 0.718059 0.116520
H13   H     H_    0.066448 0.455371 0.707862 0.145609
H14   H     H_    0.165499 0.358482 0.665484 0.139778
H15   H     H_    0.009015 0.534160 0.781412 0.109539
H16   H     H_    0.036237 0.547055 0.842754 0.143868
H17   H     H_    0.134505 0.336991 0.850707 0.167265
H18   H     H_    0.990791 0.393724 0.828913 0.096674
H19   H     H_    0.109695 0.323682 0.788971 0.158333
H20   H     H_    0.971065 0.528612 0.233426 0.133443
H21   H     H_    0.899992 0.625601 0.185010 0.136594
H22   H     H_    0.985240 0.461373 0.128912 0.181458
H23   H     H_    0.128945 0.834773 0.793277 0.125529
H24   H     H_    0.091133 0.478094 0.160912 0.097129
H25   H     H_    0.061059 0.367205 0.177246 0.148804
H26   H     H_    0.490363 0.880942 0.170871 0.254642
H27   H     H_    0.299530 0.928094 0.184694 0.138845
H28   H     H_    0.342141 0.842803 0.236972 0.137414
H29   H     H_    0.383372 0.775060 0.179689 0.156667
H30   H     H_    0.416665 0.959478 0.721939 0.127011
H31   H     H_    0.470252 0.885788 0.666182 0.128667
H32   H     H_    0.508452 0.039061 0.640578 0.162808
H33   H     H_    0.360615 0.094793 0.655875 0.093940
H34   H     H_    0.153968 0.822386 0.707855 0.125295
H35   H     H_    0.454755 0.111992 0.696088 0.176481
H36   H     H_    0.473264 0.297250 0.161213 0.258833
H37   H     H_    0.314603 0.276173 0.178080 0.130490
H38   H     H_    0.366581 0.229690 0.236664 0.149106
H39   H     H_    0.439103 0.138322 0.186683 0.163759
H40   H     H_    0.130138 0.946322 0.266439 0.119295
H41   H     H_    0.228829 0.845904 0.309182 0.129072
H42   H     H_    0.108472 0.971484 0.374112 0.171325
H43   H     H_    0.158467 0.042674 0.335521 0.099267
H44   H     H_    0.012965 0.073036 0.331447 0.149935
H45   H     H_    0.817842 0.515023 0.291623 0.129986
H46   H     H_    0.456643 0.651136 0.700792 0.250674
H47   H     H_    0.419328 0.531577 0.750014 0.151825
H48   H     H_    0.415241 0.644372 0.785572 0.145569
H49   H     H_    0.540180 0.503298 0.785848 0.155798
H50   H     H_    0.855796 0.724397 0.800571 0.233016
H51   H     H_    0.912832 0.820556 0.746488 0.142303
H52   H     H_    0.805582 0.832931 0.705736 0.202607
H53   H     H_    0.927256 0.694497 0.718261 0.119270
H54   H     H_    0.489950 0.818640 0.294416 0.128095
H55   H     H_    0.477933 0.283826 0.288461 0.114752
H56   H     H_    0.855866 0.062474 0.212401 0.118501
H57   H     H_    0.842514 0.080125 0.298475 0.151554
N1    N     N_2   0.223421 0.452107 0.704057 -0.483832
N2    N     N_2   0.471919 0.857678 0.202629 -0.524259
N3    N     N_2   0.463937 0.278956 0.195471 -0.531038
N4    N     N_2   0.517506 0.600082 0.724925 -0.508387
N5    N     N_2   0.804553 0.764544 0.772036 -0.488998
O1    O     O_R   0.503010 0.303330 0.550820 -0.511911
O2    O     O_R   0.827060 0.642880 0.947470 -0.513716
O3    O     O_R   0.013800 0.673690 0.954100 -0.497247
O4    O     O_R   0.320040 0.522690 0.547470 -0.496439
O5    O     O_R   0.031250 0.825430 0.055080 -0.507276
O6    O     O_R   0.814180 0.011990 0.050320 -0.494650
O7    O     O_R   0.640680 0.032900 0.051920 -0.510536
O8    O     O_R   0.671090 0.815590 0.046300 -0.498792
O9    O     O_R   0.822940 0.642440 0.050310 -0.506729
O10   O     O_R   0.009970 0.673280 0.049430 -0.499038
O11   O     O_3   0.833690 0.833830 0.001040 -0.250661
O12   O     O_R   0.522480 0.657560 0.452870 -0.496149
O13   O     O_R   0.303930 0.694040 0.551750 -0.509421
O14   O     O_R   0.523510 0.657900 0.548240 -0.498829
O15   O     O_R   0.694770 0.503160 0.551780 -0.505297
O16   O     O_R   0.657990 0.319990 0.547370 -0.492205
O17   O     O_R   0.501900 0.302960 0.447930 -0.509337
O18   O     O_R   0.319020 0.522350 0.452090 -0.497758
O19   O     O_R   0.302820 0.693680 0.448870 -0.508142
O20   O     O_3   0.180463 0.473831 0.800461 -0.536526
O21   O     O_3   0.844373 0.509763 0.200015 -0.554018
O22   O     O_3   0.590307 0.891330 0.710758 -0.547808
O23   O     O_R   0.693670 0.502790 0.448900 -0.506915
O24   O     O_3   0.066999 0.861627 0.306233 -0.562998
O25   O     O_R   0.656970 0.319650 0.452000 -0.495244
O26   O     O_3   0.499990 0.499990 0.499990 -0.249490
O27   O     O_R   0.035380 0.825870 0.952240 -0.507551
O28   O     O_R   0.818010 0.012400 0.954990 -0.497403
O29   O     O_R   0.644810 0.033340 0.949080 -0.501843
O30   O     O_R   0.674910 0.816000 0.950960 -0.490235

loop_
_geom_bond_atom_site_label_1
_geom_bond_atom_site_label_2
_ccdc_geom_bond_type
C7    C10   A    
Cr3   O23   S    
C84   H42   S    
Cr1   O17   S    
C55   C59   A    
C81   H33   S    
C41   C42   A    
Cr4   O11   S    
C35   C36   S    
C51   C61   T    
C69   O9    A    
C66   O3    A    
C86   N5    S    
C2    C12   T    
C8    H12   S    
C52   O17   A    
C74   H16   S    
C57   C58   A    
C86   H51   S    
C7    C8    A    
C71   H1    S    
C53   C54   A    
C5    C9    A    
C29   H45   S    
C79   H28   S    
C46   C49   S    
C75   H19   S    
C4    O15   A    
C30   C35   A    
C23   C45   S    
Cr1   O1    S    
C24   C26   T    
Cr4   O28   S    
C5    C6    A    
C80   C81   S    
C11   C14   T    
C73   H13   S    
C28   O18   A    
C73   H14   S    
C45   H6    S    
C29   C33   A    
C56   C78   S    
C62   C70   S    
C60   C62   T    
C6    H8    S    
C9    C13   S    
Cr2   O12   S    
C40   O12   A    
C67   H5    S    
C82   N3    S    
C73   H11   S    
C83   C84   S    
C45   C56   S    
C8    C9    A    
C83   H41   S    
C7    H9    S    
Cr3   O16   S    
C16   O1    A    
C76   H21   S    
C41   C46   A    
C56   C64   S    
C1    C15   S    
C82   H37   S    
C70   O5    A    
C43   H56   S    
H10   N1    S    
C42   C47   A    
C18   O20   S    
C58   C61   S    
C48   C50   T    
C39   C52   S    
C66   O27   A    
C38   C69   S    
Cr6   O10   S    
C59   C60   S    
C64   C71   S    
C73   N1    S    
Cr6   O9    S    
C17   N1    S    
C67   C78   S    
Cr2   O19   S    
C53   O24   S    
C30   O21   S    
C44   C46   A    
C76   H20   S    
C65   O30   A    
C54   C59   A    
C79   H29   S    
Cr3   O25   S    
C63   O28   A    
C4    O14   A    
C26   C66   S    
C1    O4    A    
C19   C22   A    
C76   C77   S    
C20   H34   S    
C65   O2    A    
C77   H25   S    
C74   C75   S    
C70   O10   A    
C85   H48   S    
C32   H54   S    
Cr5   O30   S    
C78   N4    S    
C1    O13   A    
C68   O6    A    
C33   C37   S    
Cr1   O18   S    
Cr2   O26   S    
C34   C67   S    
C43   C44   A    
C52   O25   A    
Cr2   O13   S    
C45   C67   S    
C29   C30   A    
C34   C87   S    
H50   N5    S    
C47   C48   S    
Cr3   O26   S    
C76   O21   S    
C27   C40   S    
C23   C34   S    
C57   H4    S    
C79   H27   S    
Cr3   O15   S    
C17   C18   A    
C54   H2    S    
Cr6   O2    S    
C85   H47   S    
Cr4   O5    S    
C40   O23   A    
Cr5   O8    S    
C23   C64   S    
C39   C49   T    
C84   H44   S    
C55   C57   A    
C81   H35   S    
Cr5   O29   S    
C22   C24   S    
C4    C12   S    
C23   N5    S    
C82   H39   S    
Cr6   O3    S    
C86   H52   S    
C86   H53   S    
C72   C87   T    
C80   H31   S    
C5    H7    S    
Cr5   O7    S    
H26   N2    S    
C21   C25   S    
C84   H43   S    
C75   H17   S    
C63   O29   A    
C81   H32   S    
C18   C22   A    
C75   H18   S    
C31   C32   A    
C69   O8    A    
C55   H3    S    
C3    C13   T    
C85   H49   S    
C6    C10   A    
C53   C58   A    
C68   O7    A    
C65   C72   S    
C77   H24   S    
H46   N4    S    
C83   O24   S    
C32   C33   A    
C19   C20   A    
C36   C38   T    
Cr6   O11   S    
Cr2   O14   S    
C74   O20   S    
C2    C56   S    
C80   O22   S    
H36   N3    S    
C64   O22   S    
C16   O16   A    
C28   O19   A    
Cr1   O26   S    
C41   H55   S    
C43   C47   A    
C19   H23   S    
Cr1   O4    S    
C14   C63   S    
C28   C51   S    
C31   C35   A    
C85   N4    S    
C42   N3    S    
C44   H57   S    
C83   H40   S    
C15   C25   T    
C10   C11   S    
C74   H15   S    
Cr5   O11   S    
C31   N2    S    
C20   C21   A    
Cr4   O27   S    
Cr4   O6    S    
C82   H38   S    
C77   H22   S    
C50   C68   S    
C34   C71   S    
C71   C78   S    
C3    C16   S    
C27   C37   T    
C79   N2    S    
C80   H30   S    
C17   C21   A    
