data_mof_unit_64603.cif
_audit_creation_date              2012-12-10T21:01:02-0500
_audit_creation_method            fapswitch 2.2
_symmetry_space_group_name_H-M    P1
_symmetry_Int_Tables_number       1
_space_group_crystal_system       triclinic
_cell_length_a                    15.843188
_cell_length_b                    15.113231
_cell_length_c                    10.55987
_cell_angle_alpha                 89.160951
_cell_angle_beta                  89.964498
_cell_angle_gamma                 89.956085
_cell_volume                      2528.20153492

loop_
_atom_site_label
_atom_site_type_symbol
_atom_type_description
_atom_site_fract_x
_atom_site_fract_y
_atom_site_fract_z
_atom_type_partial_charge
C1    C     C_R   0.338934 0.500026 0.500020 0.907981
C2    C     C_R   0.661065 0.499974 0.499980 0.907977
C3    C     C_1   0.824321 0.499931 0.500069 -0.069681
C4    C     C_1   0.175679 0.500069 0.499931 -0.069681
C5    C     C_R   0.956149 0.580384 0.505478 -0.179692
C6    C     C_R   0.043851 0.419616 0.494522 -0.179691
C7    C     C_R   0.043670 0.580422 0.505411 -0.180016
C8    C     C_R   0.956330 0.419577 0.494589 -0.180016
C9    C     C_R   0.913123 0.499962 0.500066 0.168349
C10   C     C_R   0.086877 0.500038 0.499935 0.168348
C11   C     C_R   0.498690 0.500808 0.257138 0.900421
C12   C     C_R   0.501309 0.499192 0.742862 0.900420
C13   C     C_1   0.250533 0.500071 0.499962 -0.173448
C14   C     C_1   0.749467 0.499929 0.500038 -0.173451
C15   C     C_R   0.455216 0.953851 0.406516 -0.033200
C16   C     C_R   0.544785 0.046149 0.593484 -0.033198
C17   C     C_R   0.544973 0.951952 0.593379 -0.032798
C18   C     C_R   0.455026 0.048047 0.406622 -0.032799
C19   C     C_R   0.500118 0.904980 0.499960 -0.053668
C20   C     C_R   0.499882 0.095020 0.500040 -0.053670
C21   C     C_3   0.496023 0.584059 0.035035 0.222751
C22   C     C_3   0.503976 0.415942 0.964966 0.222744
C23   C     C_3   0.567492 0.543360 0.958232 0.216076
C24   C     C_3   0.432507 0.456641 0.041768 0.216082
C25   C     C_3   0.428225 0.538914 0.953613 -0.294506
C26   C     C_3   0.571775 0.461087 0.046387 -0.294527
C27   C     C_3   0.501232 0.497503 0.876840 -0.178361
C28   C     C_3   0.498768 0.502498 0.123160 -0.178359
C29   C     C_1   0.500080 0.806872 0.500008 0.093899
C30   C     C_1   0.499920 0.193128 0.499992 0.093903
H1    H     H_    0.370593 0.569878 0.912770 0.160187
H2    H     H_    0.629407 0.430123 0.087229 0.160188
H3    H     H_    0.077528 0.642599 0.509599 0.146653
H4    H     H_    0.922472 0.357401 0.490401 0.146653
H5    H     H_    0.922150 0.642532 0.509706 0.146829
H6    H     H_    0.077850 0.357468 0.490294 0.146829
N1    N     N_1   0.500000 0.270550 0.500000 -0.092226
N2    N     N_1   0.500000 0.729450 0.500000 -0.092229
O1    O     O_R   0.378020 0.573650 0.500040 -0.611352
O2    O     O_R   0.621980 0.426350 0.499960 -0.611352
O3    O     O_R   0.621980 0.573650 0.499960 -0.610174
O4    O     O_R   0.378020 0.426350 0.500040 -0.610174
O5    O     O_R   0.499980 0.573650 0.313960 -0.619901
O6    O     O_R   0.500020 0.426350 0.686040 -0.619892
O7    O     O_R   0.500020 0.573650 0.686040 -0.624832
O8    O     O_R   0.499980 0.426350 0.313960 -0.624827
Zn1   Zn    Zn3+2 0.500000 0.598370 0.500000 0.976537
Zn2   Zn    Zn3+2 0.500000 0.401630 0.500000 0.976542
C31   C     C_1   0.408164 0.096749 0.310449 0.171539
N3    N     N_1   0.370654 0.135594 0.233784 -0.214621
C32   C     C_1   0.591834 0.903251 0.689554 0.171534
N4    N     N_1   0.629341 0.864406 0.766221 -0.214614
C33   C     C_1   0.591016 0.092945 0.690210 0.173760
N5    N     N_1   0.627918 0.130337 0.767356 -0.209688
C34   C     C_1   0.408987 0.907055 0.309787 0.173760
N6    N     N_1   0.372086 0.869662 0.232640 -0.209683
N7    N     N_2   0.490956 0.674605 0.077839 -0.292530
H7    H     H_    0.446280 0.682782 0.147675 0.253924
C35   C     C_3   0.482849 0.740821 0.978399 -0.742850
H8    H     H_    0.484532 0.807721 0.020355 0.251032
H9    H     H_    0.421987 0.732761 0.927664 0.234867
H10   H     H_    0.535669 0.736068 0.910169 0.256267
N8    N     N_2   0.509046 0.325397 0.922158 -0.292525
H11   H     H_    0.553734 0.317221 0.852338 0.253918
C36   C     C_3   0.517134 0.259177 0.021596 -0.742848
H12   H     H_    0.515488 0.192279 0.979630 0.251025
H13   H     H_    0.464284 0.263908 0.089776 0.256274
H14   H     H_    0.577973 0.267253 0.072387 0.234872
N9    N     N_2   0.640906 0.588271 0.906876 -0.308009
H15   H     H_    0.627818 0.631127 0.832721 0.239781
C37   C     C_3   0.697556 0.624523 0.999881 -0.738284
H16   H     H_    0.754539 0.651257 0.951578 0.239485
H17   H     H_    0.717909 0.572253 0.068322 0.239789
H18   H     H_    0.666260 0.678972 0.051562 0.259717
N10   N     N_2   0.359094 0.411731 0.093126 -0.308009
H19   H     H_    0.372182 0.368871 0.167275 0.239784
C38   C     C_3   0.302436 0.375490 0.000122 -0.738313
H20   H     H_    0.245465 0.348733 0.048430 0.239488
H21   H     H_    0.333734 0.321060 0.948401 0.259715
H22   H     H_    0.282063 0.427773 0.931715 0.239793

loop_
_geom_bond_atom_site_label_1
_geom_bond_atom_site_label_2
_ccdc_geom_bond_type
C25   H1    S    
C7    C10   A    
C34   N6    T    
N8    C36   S    
C26   H2    S    
C15   C18   A    
C23   N9    S    
C17   C32   S    
C20   C30   S    
C33   N5    T    
C15   C19   A    
C5    C9    A    
O4    Zn2   S    
N7    C35   S    
C2    O3    A    
C23   C26   S    
C4    C13   T    
N9    C37   S    
C16   C33   S    
C22   N8    S    
C8    C9    A    
C36   H13   S    
C29   N2    T    
C11   O5    A    
C23   C27   S    
O7    Zn1   S    
C35   H8    S    
C7    H3    S    
C38   H21   S    
O8    Zn2   S    
C35   H9    S    
C12   C27   S    
C32   N4    T    
C24   C25   S    
C5    C7    A    
C16   C17   A    
C6    C8    A    
C38   H20   S    
C30   N1    T    
C15   C34   S    
N10   H19   S    
C21   N7    S    
C3    C9    S    
C16   C20   A    
C36   H14   S    
O3    Zn1   S    
C8    H4    S    
N1    Zn2   S    
N10   C38   S    
N2    Zn1   S    
C3    C14   T    
C21   C28   S    
C36   H12   S    
C22   C27   S    
C21   C23   S    
C22   C24   S    
C1    C13   S    
C4    C10   S    
C19   C29   S    
O1    Zn1   S    
C38   H22   S    
O2    Zn2   S    
C21   C25   S    
C35   H10   S    
C24   C28   S    
C12   O7    A    
C6    C10   A    
C37   H18   S    
C24   N10   S    
C25   C27   S    
C26   C28   S    
C37   H16   S    
C12   O6    A    
N7    H7    S    
C11   C28   S    
C5    H5    S    
C17   C19   A    
C6    H6    S    
C18   C20   A    
N9    H15   S    
C2    C14   S    
C1    O1    A    
N8    H11   S    
C2    O2    A    
C1    O4    A    
C31   N3    T    
C22   C26   S    
C37   H17   S    
C11   O8    A    
O5    Zn1   S    
O6    Zn2   S    
C18   C31   S    
