data_mof_unit_39408.cif
_audit_creation_date              2012-12-10T18:57:44-0500
_audit_creation_method            fapswitch 2.2
_symmetry_space_group_name_H-M    P1
_symmetry_Int_Tables_number       1
_space_group_crystal_system       triclinic
_cell_length_a                    10.940525
_cell_length_b                    10.844066
_cell_length_c                    9.545444
_cell_angle_alpha                 90.612761
_cell_angle_beta                  89.972246
_cell_angle_gamma                 90.130058
_cell_volume                      1132.40152944

loop_
_atom_site_label
_atom_site_type_symbol
_atom_type_description
_atom_site_fract_x
_atom_site_fract_y
_atom_site_fract_z
_atom_type_partial_charge
C1    C     C_R   0.496584 0.262258 0.498930 0.824193
C2    C     C_R   0.481798 0.129083 0.496039 -0.207527
C3    C     C_R   0.470141 0.061712 0.368642 0.480766
C4    C     C_R   0.473112 0.932756 0.371667 -0.303815
C5    C     C_R   0.483698 0.870627 0.499587 -0.165954
C6    C     C_R   0.474122 0.938523 0.623938 0.121420
C7    C     C_3   0.550481 0.936251 0.753517 -0.459761
C8    C     C_3   0.548902 0.076068 0.751710 -0.405788
C9    C     C_R   0.604082 0.527213 0.073967 0.269901
C10   C     C_R   0.401183 0.460004 0.073893 -0.065997
C11   C     C_R   0.401136 0.460093 0.925197 -0.092265
C12   C     C_R   0.265375 0.500883 0.500080 0.837920
C13   C     C_R   0.604356 0.526351 0.926649 0.266339
C14   C     C_3   0.676831 0.642567 0.921756 -0.514273
C15   C     C_3   0.675436 0.644347 0.080799 -0.503777
C16   C     C_R   0.497528 0.737707 0.500429 0.829098
C17   C     C_R   0.734624 0.498300 0.500117 0.846747
C18   C     C_2   0.933165 0.495940 0.385135 -0.155369
C19   C     C_2   0.866522 0.492314 0.502815 -0.318561
C20   C     C_2   0.067109 0.491498 0.385489 -0.162993
C21   C     C_2   0.133473 0.505734 0.502531 -0.315058
C22   C     C_R   0.473362 0.065400 0.621986 0.044644
Cu1   Cu    Cu3+1 0.499990 0.499980 0.640670 0.936487
Cu2   Cu    Cu3+1 0.500010 0.500020 0.359330 0.959355
H1    H     H_    0.888702 0.500564 0.283693 0.157403
H2    H     H_    0.640320 0.117628 0.732349 0.196362
H3    H     H_    0.320557 0.428823 0.128626 0.130811
H4    H     H_    0.320428 0.429086 0.869833 0.140036
H5    H     H_    0.769425 0.627706 0.876745 0.193722
H6    H     H_    0.624598 0.719049 0.875245 0.214102
H7    H     H_    0.767484 0.631367 0.127265 0.190281
H8    H     H_    0.622079 0.722289 0.126106 0.215848
H9    H     H_    0.907111 0.482224 0.605296 0.141176
H10   H     H_    0.111897 0.477736 0.284936 0.153951
H11   H     H_    0.092703 0.523299 0.603970 0.142113
H12   H     H_    0.473616 0.882447 0.272998 0.178408
H13   H     H_    0.499836 0.897582 0.844044 0.197391
H14   H     H_    0.642955 0.897149 0.734414 0.191760
H15   H     H_    0.496978 0.117501 0.840559 0.206021
N1    N     N_R   0.500780 0.500930 0.147930 -0.182550
N2    N     N_R   0.500780 0.500890 0.852020 -0.185395
O1    O     O_R   0.500000 0.319640 0.618810 -0.587511
O2    O     O_R   0.500010 0.319680 0.381230 -0.526183
O3    O     O_R   0.321940 0.499980 0.618760 -0.595261
O4    O     O_R   0.321950 0.500020 0.381180 -0.592127
O5    O     O_R   0.499990 0.680320 0.618770 -0.578462
O6    O     O_R   0.500000 0.680360 0.381190 -0.589616
O7    O     O_R   0.678050 0.499980 0.618820 -0.589404
O8    O     O_R   0.678060 0.500020 0.381240 -0.579344
O9    O     O_3   0.472692 0.119911 0.240484 -0.553049
C23   C     C_3   0.353067 0.121573 0.185793 -0.316638
H16   H     H_    0.354524 0.171629 0.085046 0.176500
H17   H     H_    0.289359 0.171534 0.257475 0.152618
H18   H     H_    0.318839 0.026633 0.163704 0.151304

loop_
_geom_bond_atom_site_label_1
_geom_bond_atom_site_label_2
_ccdc_geom_bond_type
C10   H3    S    
C2    C22   A    
C8    C22   S    
Cu1   Cu2   S    
C4    H12   S    
C15   H7    S    
C6    C7    S    
C21   H11   S    
C8    H15   S    
C8    H2    S    
Cu1   N2    S    
C17   O7    A    
C23   H18   S    
C20   H10   S    
C13   N2    A    
O9    C23   S    
C7    H13   S    
C15   H8    S    
C12   O3    A    
Cu1   O5    S    
C13   C14   S    
C3    O9    S    
Cu1   O1    S    
C18   H1    S    
C11   H4    S    
C14   H6    S    
Cu2   O4    S    
C16   O6    A    
C17   C19   S    
C7    H14   S    
C11   N2    A    
C18   C20   S    
C9    C15   S    
C5    C6    A    
C10   C11   A    
C14   H5    S    
C16   O5    A    
C3    C4    A    
C6    C22   A    
C1    O1    A    
C7    C8    S    
C20   C21   D    
C10   N1    A    
C1    C2    S    
C19   H9    S    
C17   O8    A    
Cu2   O8    S    
C12   O4    A    
Cu2   O2    S    
C9    C13   A    
C14   C15   S    
C18   C19   D    
C5    C16   S    
C2    C3    A    
Cu1   O7    S    
Cu2   N1    S    
Cu2   O6    S    
C12   C21   S    
C1    O2    A    
C9    N1    A    
Cu1   O3    S    
C23   H16   S    
C4    C5    A    
C23   H17   S    
