data_mof_unit_31538.cif
_audit_creation_date              2012-12-11T17:07:33-0500
_audit_creation_method            fapswitch 2.2
_symmetry_space_group_name_H-M    P1
_symmetry_Int_Tables_number       1
_space_group_crystal_system       triclinic
_cell_length_a                    6.963667
_cell_length_b                    14.535226
_cell_length_c                    16.066645
_cell_angle_alpha                 89.982144
_cell_angle_beta                  90.017271
_cell_angle_gamma                 90.043778
_cell_volume                      1626.24065587

loop_
_atom_site_label
_atom_site_type_symbol
_atom_type_description
_atom_site_fract_x
_atom_site_fract_y
_atom_site_fract_z
_atom_type_partial_charge
O1    O     O_R   0.505720 0.583900 0.413310 -0.540533
O2    O     O_R   0.175940 0.594920 0.586080 -0.519275
O3    O     O_R   0.005640 0.416100 0.586690 -0.527111
C1    C     C_R   0.345015 0.617233 0.614592 0.713863
O4    O     O_R   0.176000 0.594930 0.413930 -0.547759
O5    O     O_R   0.005700 0.416110 0.413310 -0.545522
C2    C     C_R   0.344760 0.616943 0.385182 0.678080
O6    O     O_R   0.505660 0.583890 0.586690 -0.537912
O7    O     O_3   0.339200 0.441330 0.500000 -0.373841
V1    V     V_3+5 0.064350 0.510880 0.500000 1.445189
O8    O     O_R   0.675980 0.405080 0.413920 -0.541849
C3    C     C_R   0.844967 0.382824 0.385378 0.672762
O9    O     O_R   0.675920 0.405070 0.586070 -0.544152
C4    C     C_R   0.844466 0.383308 0.614770 0.731329
V2    V     V_3+5 0.564340 0.489120 0.500000 1.423450
O10   O     O_3   0.839360 0.558670 0.500000 -0.366593
H1    H     H_    0.183112 0.105749 0.520898 0.106884
C5    C     C_R   0.667854 0.417532 0.775638 -0.080170
C6    C     C_R   0.588270 0.437851 0.852987 -0.089639
C7    C     C_R   0.606726 0.376126 0.918463 -0.138558
C8    C     C_R   0.703420 0.293295 0.906823 -0.132105
C9    C     C_R   0.782906 0.269893 0.828449 0.069917
C10   C     C_R   0.767193 0.333964 0.761670 0.049555
C11   C     C_R   0.880093 0.185148 0.816532 -0.184662
C12   C     C_R   0.963164 0.164902 0.737939 0.074491
C13   C     C_R   0.950201 0.229600 0.671516 0.069072
C14   C     C_R   0.853416 0.314527 0.683453 -0.194284
C15   C     C_R   0.055754 0.079695 0.723226 -0.147029
C16   C     C_R   0.135399 0.059271 0.645903 -0.132014
C17   C     C_R   0.122704 0.122295 0.581156 -0.121328
C18   C     C_R   0.030254 0.206197 0.593259 -0.135904
H2    H     H_    0.650477 0.468405 0.727335 0.168538
H3    H     H_    0.513199 0.502244 0.862280 0.132029
H4    H     H_    0.546495 0.392610 0.978759 0.115021
H5    H     H_    0.716457 0.248596 0.960332 0.109730
H6    H     H_    0.066291 0.027395 0.770780 0.105377
H7    H     H_    0.205777 0.993768 0.636006 0.109815
H8    H     H_    0.020269 0.251567 0.540100 0.101275
C19   C     C_R   0.727069 0.248367 0.188734 0.095339
C20   C     C_R   0.882340 0.187708 0.181232 -0.107579
C21   C     C_R   0.034014 0.197694 0.238600 -0.175142
H9    H     H_    0.156792 0.152470 0.235340 0.128602
C22   C     C_R   0.022133 0.261418 0.304567 -0.183088
H10   H     H_    0.137108 0.264133 0.349753 0.125861
C23   C     C_R   0.857726 0.316647 0.315370 -0.103746
C24   C     C_R   0.714940 0.311124 0.254154 0.101489
C25   C     C_3   0.504470 0.295969 0.263559 -0.413334
C26   C     C_3   0.517627 0.228053 0.191894 -0.396848
H11   H     H_    0.419846 0.358530 0.248171 0.171774
H12   H     H_    0.468631 0.262933 0.323987 0.169896
H13   H     H_    0.441615 0.251601 0.134884 0.172994
H14   H     H_    0.488431 0.155733 0.210570 0.167463
C27   C     C_R   0.511779 0.685604 0.739118 0.055072
C28   C     C_R   0.354205 0.683351 0.684792 -0.167111
C29   C     C_R   0.201610 0.744137 0.701166 -0.091133
H15   H     H_    0.078598 0.745734 0.660289 0.134798
C30   C     C_R   0.211875 0.807805 0.767051 -0.190205
H16   H     H_    0.095344 0.855951 0.775387 0.118717
C31   C     C_R   0.376183 0.813448 0.818013 -0.099245
C32   C     C_R   0.522713 0.749476 0.803928 0.019461
C33   C     C_3   0.730351 0.767318 0.788991 -0.446284
C34   C     C_3   0.718771 0.698321 0.718438 0.487416
H17   H     H_    0.820977 0.744213 0.841994 0.207220
H18   H     H_    0.757277 0.838825 0.767298 0.115544
H19   H     H_    0.742416 0.727953 0.655463 0.026447
C35   C     C_R   0.509301 0.747422 0.310527 0.097818
C36   C     C_R   0.352804 0.687487 0.318620 -0.107577
C37   C     C_R   0.200314 0.698086 0.261821 -0.178297
H20   H     H_    0.077041 0.653144 0.265396 0.131257
C38   C     C_R   0.211935 0.762011 0.196003 -0.177959
H21   H     H_    0.096180 0.765243 0.151254 0.132278
C39   C     C_R   0.377032 0.816719 0.184701 -0.108702
C40   C     C_R   0.521214 0.810379 0.245196 0.096575
C41   C     C_3   0.730791 0.793929 0.234417 -0.412439
C42   C     C_3   0.717896 0.725721 0.305857 -0.397321
H22   H     H_    0.817790 0.855877 0.249519 0.170635
H23   H     H_    0.763627 0.760999 0.173643 0.172648
H24   H     H_    0.796814 0.748385 0.362415 0.170320
H25   H     H_    0.744023 0.653316 0.286666 0.167281
O11   O     O_R   0.229140 0.916090 0.913340 -0.543262
O12   O     O_R   0.558860 0.905090 0.086080 -0.539539
O13   O     O_R   0.729100 0.083920 0.086690 -0.539648
C43   C     C_R   0.389827 0.882866 0.114668 0.692705
O14   O     O_R   0.558860 0.905090 0.913930 -0.537591
O15   O     O_R   0.729100 0.083920 0.913310 -0.536261
C44   C     C_R   0.389768 0.883405 0.884922 0.709860
O16   O     O_R   0.229140 0.916080 0.086720 -0.540812
O17   O     O_3   0.395570 0.058660 0.000020 -0.367974
V3    V     V_3+5 0.670450 0.989140 0.000000 1.402243
O18   O     O_R   0.058810 0.094980 0.913910 -0.537570
C45   C     C_R   0.890074 0.116727 0.885324 0.694876
O19   O     O_R   0.058810 0.094980 0.086060 -0.542232
C46   C     C_R   0.890125 0.117093 0.114730 0.686403
V4    V     V_3+5 0.170450 0.010950 0.999970 1.403086
O20   O     O_3   0.895460 0.941370 0.999990 -0.371155
F1    F     F_    0.824993 0.619944 0.734532 -0.690163

loop_
_geom_bond_atom_site_label_1
_geom_bond_atom_site_label_2
_ccdc_geom_bond_type
C43   O16   A    
C29   H15   S    
C34   F1    S    
C21   H9    S    
C6    C7    A    
C20   C46   S    
C1    O6    A    
O15   C45   A    
C25   H11   S    
C27   C28   A    
C12   C15   A    
C13   C14   A    
O13   V3    S    
C41   H22   S    
C15   C16   A    
O14   C44   A    
O5    C3    A    
C17   C18   A    
C30   C31   A    
V2    O10   S    
O16   V4    S    
C5    C6    A    
C40   C41   S    
C33   H17   S    
O11   C44   A    
C24   C25   S    
O8    V2    S    
C26   H13   S    
C37   H20   S    
C41   H23   S    
C38   H21   S    
O1    V2    S    
C10   C14   A    
C4    C14   S    
O7    V1    S    
O18   C45   A    
O12   V3    S    
C35   C36   A    
C31   C32   A    
O13   C46   A    
C8    C9    A    
H1    C17   S    
C21   C22   A    
C33   C34   S    
O12   C43   A    
C27   C32   A    
O18   V4    S    
C25   H12   S    
O17   V4    S    
C41   C42   S    
C5    C10   A    
C11   C12   A    
C6    H3    S    
C19   C20   A    
O4    C2    A    
O15   V3    S    
C39   C40   A    
C12   C13   A    
C23   C24   A    
C35   C40   A    
C36   C37   A    
C32   C33   S    
V3    O20   S    
C33   H18   S    
O2    C1    A    
C22   H10   S    
C16   C17   A    
C27   C34   S    
C25   C26   S    
O19   V4    S    
O17   V3    S    
C22   C23   A    
O3    C4    A    
C19   C24   A    
C20   C21   A    
O6    V2    S    
O9    V2    S    
C9    C11   A    
C5    H2    S    
O14   V3    S    
O11   V4    S    
O2    V1    S    
C11   C45   S    
C28   C29   A    
C34   H19   S    
C1    C28   S    
O1    C2    A    
C13   C18   A    
C3    C23   S    
O5    V1    S    
O8    C3    A    
C8    H5    S    
C18   H8    S    
C29   C30   A    
O7    V2    S    
C31   C44   S    
C7    H4    S    
O4    V1    S    
O3    V1    S    
V1    O10   S    
C30   H16   S    
C35   C42   S    
O19   C46   A    
V4    O20   S    
C42   H24   S    
C39   C43   S    
C2    C36   S    
C26   H14   S    
C7    C8    A    
C15   H6    S    
C37   C38   A    
C16   H7    S    
C9    C10   A    
C38   C39   A    
O9    C4    A    
C42   H25   S    
C19   C26   S    
