data_mof_unit_17977.cif
_audit_creation_date              2012-12-10T20:28:45-0500
_audit_creation_method            fapswitch 2.2
_symmetry_space_group_name_H-M    P1
_symmetry_Int_Tables_number       1
_space_group_crystal_system       triclinic
_cell_length_a                    10.723653
_cell_length_b                    10.671579
_cell_length_c                    9.838797
_cell_angle_alpha                 89.617245
_cell_angle_beta                  91.109677
_cell_angle_gamma                 90.250235
_cell_volume                      1125.6889074

loop_
_atom_site_label
_atom_site_type_symbol
_atom_type_description
_atom_site_fract_x
_atom_site_fract_y
_atom_site_fract_z
_atom_type_partial_charge
C1    C     C_R   0.505326 0.259864 0.500536 0.868719
C2    C     C_R   0.550797 0.936250 0.379504 -0.242402
C3    C     C_R   0.525697 0.871381 0.500357 -0.098801
C4    C     C_R   0.260782 0.513472 0.499182 0.870681
C5    C     C_R   0.526667 0.934774 0.623395 0.148953
C6    C     C_3   0.438828 0.925784 0.739067 -0.490384
C7    C     C_3   0.440370 0.067622 0.740684 -0.505723
C8    C     C_R   0.392751 0.475001 0.068963 0.132715
C9    C     C_R   0.601185 0.540427 0.073905 -0.124366
C10   C     C_R   0.600630 0.541561 0.929798 -0.146982
C11   C     C_R   0.392877 0.475360 0.926482 0.147550
C12   C     C_R   0.065730 0.549128 0.622247 0.103923
C13   C     C_3   0.315169 0.359881 0.918204 -0.583715
C14   C     C_3   0.313512 0.359386 0.073118 0.312363
C15   C     C_R   0.504269 0.740137 0.499683 0.872275
C16   C     C_R   0.740577 0.491847 0.502195 0.873760
C17   C     C_R   0.122789 0.605622 0.737780 -0.160156
C18   C     C_R   0.068144 0.595858 0.864804 -0.166380
C19   C     C_R   0.957960 0.528270 0.878265 -0.180044
C20   C     C_R   0.896083 0.482394 0.762697 -0.173614
C21   C     C_R   0.943285 0.505422 0.631236 0.108618
C22   C     C_3   0.300892 0.149978 0.137344 0.081703
C23   C     C_R   0.128002 0.529609 0.498996 -0.127954
C24   C     C_3   0.227677 0.146814 0.269854 -0.333423
C25   C     C_3   0.164172 0.020095 0.290684 -0.963593
C26   C     C_R   0.061965 0.501269 0.379610 -0.229011
C27   C     C_R   0.935574 0.484247 0.383248 -0.218626
C28   C     C_R   0.874895 0.486747 0.507721 -0.125809
C29   C     C_R   0.527875 0.062552 0.624412 0.144820
C30   C     C_R   0.527750 0.128656 0.501941 -0.123004
C31   C     C_R   0.552507 0.065916 0.380481 -0.218902
H1    H     H_    0.107923 0.490085 0.283519 0.153650
H2    H     H_    0.885721 0.467666 0.288141 0.162349
H3    H     H_    0.563463 0.115904 0.285278 0.201249
H4    H     H_    0.560271 0.888096 0.283694 0.170165
H5    H     H_    0.346606 0.885505 0.708859 0.196766
H6    H     H_    0.483212 0.882891 0.831131 0.205936
H7    H     H_    0.486472 0.105783 0.833796 0.211414
H8    H     H_    0.222022 0.377193 0.870825 0.190337
H9    H     H_    0.362167 0.066392 0.134543 0.162608
H10   H     H_    0.235947 0.142324 0.047769 0.124183
H11   H     H_    0.291581 0.164629 0.357566 0.238013
H12   H     H_    0.348790 0.109745 0.712026 0.201973
H13   H     H_    0.155497 0.221165 0.267710 0.203284
H14   H     H_    0.099057 0.999780 0.204353 0.263149
H15   H     H_    0.110435 0.021542 0.386008 0.266940
H16   H     H_    0.234981 0.944558 0.299131 0.267295
H17   H     H_    0.814617 0.424911 0.778761 0.163592
H18   H     H_    0.683567 0.571214 0.129497 0.141746
H19   H     H_    0.681378 0.575566 0.877121 0.153677
H20   H     H_    0.366623 0.280851 0.874220 0.222394
H21   H     H_    0.220506 0.378119 0.116557 0.053977
H22   H     H_    0.209733 0.656928 0.730941 0.148312
H23   H     H_    0.114201 0.635692 0.953466 0.130099
H24   H     H_    0.919516 0.512676 0.977950 0.128633
N1    N     N_R   0.499160 0.499140 0.142800 -0.082656
N2    N     N_R   0.499160 0.499180 0.857150 -0.091336
O1    O     O_R   0.500020 0.316790 0.614690 -0.615262
O2    O     O_R   0.500000 0.316760 0.385350 -0.572022
O3    O     O_R   0.316770 0.500020 0.614690 -0.619861
O4    O     O_R   0.316760 0.499980 0.385350 -0.624181
O5    O     O_R   0.500000 0.683240 0.614650 -0.621722
O6    O     O_R   0.499980 0.683210 0.385310 -0.629096
O7    O     O_R   0.683240 0.500020 0.614650 -0.636527
O8    O     O_R   0.683230 0.499980 0.385310 -0.627967
O9    O     O_3   0.378931 0.257147 0.131662 -0.599722
Zn1   Zn    Zn3+2 0.500010 0.500020 0.653130 0.938227
Zn2   Zn    Zn3+2 0.499990 0.499980 0.346870 0.967192

loop_
_geom_bond_atom_site_label_1
_geom_bond_atom_site_label_2
_ccdc_geom_bond_type
C12   C17   A    
C16   C28   S    
C24   C25   S    
C26   H1    S    
C29   C30   A    
C7    C29   S    
C7    H12   S    
O2    Zn2   S    
C24   H11   S    
C9    C10   A    
C25   H16   S    
C19   C20   A    
O4    Zn2   S    
C30   C31   A    
O8    Zn2   S    
C22   H9    S    
C8    N1    A    
C17   C18   A    
C14   O9    S    
C31   H3    S    
C3    C15   S    
C9    N1    A    
C13   H20   S    
C1    O1    A    
C27   H2    S    
C11   C13   S    
C12   C23   A    
C4    O3    A    
C26   C27   A    
C20   H17   S    
C11   N2    A    
O5    Zn1   S    
N2    Zn1   S    
C8    C11   A    
C12   C21   A    
C1    C30   S    
C7    H7    S    
C15   O5    A    
C6    H5    S    
C2    C3    A    
C6    C7    S    
C5    C29   A    
C1    O2    A    
C5    C6    S    
C24   H13   S    
C22   C24   S    
C13   H8    S    
C22   H10   S    
C18   H23   S    
C25   H14   S    
C10   H19   S    
O7    Zn1   S    
C17   H22   S    
O1    Zn1   S    
C10   N2    A    
C9    H18   S    
C20   C21   A    
C25   H15   S    
C18   C19   A    
C23   C26   A    
C19   H24   S    
C27   C28   A    
C4    C23   S    
C15   O6    A    
O6    Zn2   S    
C22   O9    S    
C8    C14   S    
C16   O8    A    
C16   O7    A    
C13   C14   S    
N1    Zn2   S    
C4    O4    A    
C21   C28   A    
C2    H4    S    
C14   H21   S    
O3    Zn1   S    
C6    H6    S    
C2    C31   A    
C3    C5    A    
