data_mof_unit_59714.cif
_audit_creation_date              2012-10-26T19:56:20-0400
_audit_creation_method            fapswitch 2.2
_symmetry_space_group_name_H-M    P1
_symmetry_Int_Tables_number       1
_space_group_crystal_system       triclinic
_cell_length_a                    10.829881
_cell_length_b                    10.654609
_cell_length_c                    9.423448
_cell_angle_alpha                 91.309957
_cell_angle_beta                  90.851457
_cell_angle_gamma                 91.220479
_cell_volume                      1086.69528665

loop_
_atom_site_label
_atom_site_type_symbol
_atom_type_description
_atom_site_fract_x
_atom_site_fract_y
_atom_site_fract_z
_atom_type_partial_charge
C1    C     C_R   0.498969 0.259662 0.498561 0.605083
C2    C     C_3   0.397982 0.040226 0.563737 0.185825
C3    C     C_3   0.501965 0.876820 0.503854 0.010307
C4    C     C_3   0.498034 0.123180 0.496146 0.010305
C5    C     C_3   0.499315 0.963699 0.637722 -0.138394
C6    C     C_3   0.500684 0.036301 0.362278 -0.138398
C7    C     C_3   0.405175 0.557778 0.050265 -0.000383
C8    C     C_3   0.594825 0.442222 0.949735 -0.000383
C9    C     C_3   0.401727 0.444415 0.946080 -0.003634
C10   C     C_3   0.598273 0.555585 0.053919 -0.003634
C11   C     C_3   0.503661 0.613435 0.952626 0.000287
C12   C     C_R   0.501030 0.740338 0.501439 0.605083
C13   C     C_3   0.496339 0.386565 0.047374 0.000287
C14   C     C_R   0.262449 0.495968 0.498654 0.555345
C15   C     C_R   0.737551 0.504031 0.501346 0.555346
C16   C     C_R   0.106198 0.302528 0.015706 -0.116470
C17   C     C_R   0.893804 0.697473 0.984294 -0.116469
C18   C     C_R   0.066432 0.378406 0.128117 -0.107823
C19   C     C_R   0.933570 0.621594 0.871884 -0.107823
C20   C     C_R   0.109415 0.359825 0.267508 0.052512
C21   C     C_R   0.890585 0.640174 0.732492 0.052513
C22   C     C_R   0.192985 0.263302 0.291987 -0.041745
C23   C     C_R   0.871603 0.506112 0.503161 0.016057
C24   C     C_R   0.807015 0.736697 0.708013 -0.041744
C25   C     C_R   0.233653 0.188583 0.178800 -0.116118
C26   C     C_R   0.766348 0.811418 0.821199 -0.116118
C27   C     C_R   0.189974 0.207660 0.041147 -0.098335
C28   C     C_R   0.810027 0.792341 0.958852 -0.098335
C29   C     C_R   0.929048 0.441515 0.392503 -0.122931
C30   C     C_R   0.070952 0.558484 0.607497 -0.122931
C31   C     C_R   0.128397 0.493887 0.496839 0.016057
C32   C     C_R   0.943016 0.565959 0.612934 -0.019122
C33   C     C_R   0.056984 0.434041 0.387066 -0.019123
C34   C     C_3   0.598318 0.047087 0.567695 0.208084
C35   C     C_3   0.401681 0.952913 0.432305 0.208084
C36   C     C_3   0.602017 0.959773 0.436263 0.185823
Cl1   Cl    Cl    0.738207 0.905533 0.353113 -0.659113
Cl2   Cl    Cl    0.261792 0.094467 0.646886 -0.659111
Cu1   Cu    Cu3+1 0.500030 0.499990 0.643150 0.981273
Cu2   Cu    Cu3+1 0.499970 0.500010 0.356850 0.981273
H1    H     H_    0.221222 0.148945 0.954320 0.185113
H2    H     H_    0.927899 0.682769 0.091067 0.139572
H3    H     H_    0.000245 0.450474 0.107437 0.093758
H4    H     H_    0.999758 0.549527 0.892564 0.093757
H5    H     H_    0.225149 0.244780 0.398426 0.152686
H6    H     H_    0.774852 0.755219 0.601574 0.152686
H7    H     H_    0.297904 0.114728 0.197382 0.120926
H8    H     H_    0.702099 0.885274 0.802616 0.120933
H9    H     H_    0.873064 0.392620 0.311415 0.141621
H10   H     H_    0.126936 0.607379 0.688585 0.141621
H11   H     H_    0.497209 0.933579 0.749599 0.133302
H12   H     H_    0.778780 0.851057 0.045679 0.185114
H13   H     H_    0.502788 0.066421 0.250401 0.133302
H14   H     H_    0.766417 0.039338 0.635017 0.354412
H15   H     H_    0.233585 0.960666 0.364974 0.354407
H16   H     H_    0.319670 0.398320 0.894230 0.133747
H17   H     H_    0.680330 0.601680 0.105770 0.133748
H18   H     H_    0.325198 0.606176 0.097335 0.134949
H19   H     H_    0.674802 0.393823 0.902665 0.134949
H20   H     H_    0.506864 0.709157 0.908584 0.116558
H21   H     H_    0.493137 0.290843 0.091416 0.116558
H22   H     H_    0.072105 0.317233 0.908933 0.139572
N1    N     N_3   0.500090 0.499970 0.858290 -0.241072
N2    N     N_3   0.499910 0.500030 0.141710 -0.241072
O1    O     O_R   0.500060 0.316850 0.620870 -0.447576
O2    O     O_3   0.299003 0.897141 0.362178 -0.669257
O3    O     O_R   0.499940 0.683150 0.379130 -0.447576
O4    O     O_R   0.500000 0.316860 0.379090 -0.531416
O5    O     O_R   0.500000 0.683140 0.620910 -0.531416
O6    O     O_R   0.319670 0.500010 0.620890 -0.510157
O7    O     O_R   0.680330 0.499990 0.379110 -0.510157
O8    O     O_R   0.319620 0.500010 0.379110 -0.497867
O9    O     O_R   0.680380 0.499990 0.620890 -0.497867
O10   O     O_3   0.700996 0.102859 0.637822 -0.669264

loop_
_geom_bond_atom_site_label_1
_geom_bond_atom_site_label_2
_ccdc_geom_bond_type
C2    C35   S    
C12   O5    A    
C8    C13   S    
Cu2   O7    S    
C14   O6    A    
C14   C31   S    
C29   H9    S    
C7    C11   S    
C23   C29   A    
C36   Cl1   S    
C19   C21   A    
C24   C26   A    
C11   N1    S    
C8    H19   S    
C30   C31   A    
C29   C33   A    
C1    O4    A    
C6    C35   S    
C2    Cl2   S    
C17   H2    S    
C9    C13   S    
C3    C12   S    
H14   O10   S    
Cu2   O3    S    
C1    O1    A    
C31   C33   A    
C25   H7    S    
C7    H18   S    
C18   C20   A    
C26   H8    S    
C16   C27   A    
C15   C23   S    
C30   H10   S    
Cu1   O1    S    
C16   H22   S    
C21   C32   S    
C12   O3    A    
C4    C34   S    
C10   H17   S    
C4    C6    S    
Cu1   Cu2   S    
C35   O2    S    
C22   C25   A    
C2    C4    S    
C27   H1    S    
C3    C35   S    
C5    C34   S    
Cu1   O5    S    
C9    H16   S    
C34   O10   S    
C20   C33   S    
C8    C10   S    
C15   O9    A    
C20   C22   A    
C2    C5    S    
C6    H13   S    
C11   H20   S    
H15   O2    S    
Cu1   N1    S    
C19   H4    S    
C7    C9    S    
Cu2   O8    S    
C9    N1    S    
C17   C28   A    
C14   O8    A    
C10   N2    S    
C3    C5    S    
C25   C27   A    
C15   O7    A    
C26   C28   A    
Cu2   N2    S    
C1    C4    S    
C24   H6    S    
C23   C32   A    
C18   H3    S    
C30   C32   A    
C28   H12   S    
C13   N2    S    
C3    C36   S    
C17   C19   A    
Cu1   O6    S    
C6    C36   S    
C34   C36   S    
Cu1   O9    S    
C7    N2    S    
C10   C11   S    
C8    N1    S    
C22   H5    S    
C13   H21   S    
C16   C18   A    
Cu2   O4    S    
C21   C24   A    
C5    H11   S    
