data_mof_unit_6217.cif
_audit_creation_date              2012-10-26T20:21:46-0400
_audit_creation_method            fapswitch 2.2
_symmetry_space_group_name_H-M    P1
_symmetry_Int_Tables_number       1
_space_group_crystal_system       triclinic
_cell_length_a                    15.670933
_cell_length_b                    14.905513
_cell_length_c                    9.636681
_cell_angle_alpha                 88.697467
_cell_angle_beta                  89.23371
_cell_angle_gamma                 89.355054
_cell_volume                      2250.04975306

loop_
_atom_site_label
_atom_site_type_symbol
_atom_type_description
_atom_site_fract_x
_atom_site_fract_y
_atom_site_fract_z
_atom_type_partial_charge
C1    C     C_R   0.118389 0.381138 0.500336 0.638649
C2    C     C_R   0.999231 0.579052 0.923115 0.132238
C3    C     C_R   0.993355 0.578873 0.071350 0.112925
C4    C     C_R   0.006253 0.420919 0.928734 0.101148
C5    C     C_R   0.500786 0.920950 0.076890 0.132238
C6    C     C_R   0.495294 0.078876 0.922686 0.138584
C7    C     C_R   0.493738 0.079080 0.071266 0.101135
C8    C     C_R   0.506648 0.921127 0.928652 0.112846
C9    C     C_R   0.760485 0.307250 0.383125 0.275309
C10   C     C_R   0.250688 0.679565 0.600112 0.266010
C11   C     C_R   0.192636 0.750117 0.389719 0.249793
C12   C     C_R   0.881497 0.618733 0.499697 0.644822
C13   C     C_R   0.791472 0.266951 0.624815 0.244132
C14   C     C_R   0.169512 0.229274 0.559715 0.191287
C15   C     C_R   0.732255 0.661690 0.459383 0.195983
C16   C     C_R   0.833837 0.773522 0.536278 0.178710
C17   C     C_R   0.264223 0.335333 0.437353 0.175424
C18   C     C_R   0.249310 0.820438 0.399890 0.266071
C19   C     C_R   0.739516 0.192749 0.616873 0.275300
C20   C     C_R   0.708530 0.233047 0.375183 0.244133
C21   C     C_R   0.307360 0.749887 0.610285 0.249799
C22   C     C_R   0.767746 0.838308 0.540618 0.195994
C23   C     C_R   0.878098 0.384662 0.501789 0.575955
C24   C     C_R   0.330489 0.270727 0.440282 0.191321
C25   C     C_R   0.235777 0.164668 0.562652 0.175421
C26   C     C_R   0.666163 0.726476 0.463731 0.178680
C27   C     C_R   0.189968 0.681469 0.493276 -0.065930
C28   C     C_R   0.806945 0.321599 0.505352 -0.080717
C29   C     C_R   0.814369 0.685713 0.499618 0.061370
C30   C     C_R   0.185766 0.314423 0.501092 0.042422
C31   C     C_R   0.693055 0.178399 0.494646 -0.080717
C32   C     C_R   0.310030 0.818533 0.506725 -0.065903
C33   C     C_R   0.314235 0.185578 0.498909 0.042422
C34   C     C_R   0.119953 0.617481 0.497914 0.572443
C35   C     C_R   0.685632 0.814284 0.500388 0.061345
C36   C     C_2   0.002081 0.334659 0.154822 0.360340
C37   C     C_2   0.014739 0.665425 0.848412 0.352707
C38   C     C_2   0.973792 0.664522 0.141117 0.325116
C39   C     C_2   0.021486 0.334689 0.858208 0.341847
C40   C     C_2   0.485316 0.834580 0.151603 0.352845
C41   C     C_2   0.497900 0.165341 0.845179 0.360324
C42   C     C_2   0.478503 0.165308 0.141791 0.341828
C43   C     C_2   0.526187 0.835468 0.858887 0.324944
C44   C     C_R   0.618505 0.881267 0.500303 0.644832
C45   C     C_R   0.381611 0.118863 0.499664 0.638629
C46   C     C_R   0.380047 0.882520 0.502085 0.572490
C47   C     C_R   0.621903 0.115338 0.498211 0.575953
C48   C     C_R   0.004698 0.421123 0.077314 0.138579
Cu1   Cu    Cu3+1 0.000000 0.500000 0.640660 1.005524
Cu2   Cu    Cu3+1 0.000000 0.500000 0.359340 1.023256
Cu3   Cu    Cu3+1 0.500000 0.000000 0.640660 1.023291
Cu4   Cu    Cu3+1 0.500000 0.000000 0.359340 1.005626
H1    H     H_    0.058829 0.307536 0.203763 0.133496
H2    H     H_    0.239917 0.553674 0.652229 0.342858
H3    H     H_    0.153181 0.699994 0.223499 0.348557
H4    H     H_    0.811563 0.343836 0.776430 0.351805
H5    H     H_    0.077512 0.145306 0.598156 0.355426
H6    H     H_    0.672017 0.575964 0.348986 0.355088
H7    H     H_    0.927387 0.858180 0.537031 0.361206
H8    H     H_    0.315745 0.413589 0.296493 0.364494
H9    H     H_    0.260084 0.946328 0.347770 0.342836
H10   H     H_    0.731291 0.073847 0.699324 0.359962
H11   H     H_    0.688441 0.156159 0.223573 0.351799
H12   H     H_    0.977717 0.686714 0.760454 0.187316
H13   H     H_    0.346807 0.800015 0.776506 0.348538
H14   H     H_    0.828017 0.924053 0.650948 0.355121
H15   H     H_    0.422485 0.354698 0.401802 0.355435
H16   H     H_    0.184244 0.086410 0.703499 0.364505
H17   H     H_    0.572622 0.641804 0.462905 0.361238
H18   H     H_    0.000405 0.679508 0.239714 0.193330
H19   H     H_    0.988451 0.318412 0.765486 0.219443
H20   H     H_    0.522517 0.813204 0.239319 0.187177
H21   H     H_    0.441142 0.192464 0.796265 0.133500
H22   H     H_    0.511552 0.181592 0.234498 0.219432
H23   H     H_    0.499586 0.820503 0.760274 0.193394
H24   H     H_    0.768709 0.426153 0.300677 0.359958
N1    N     N_R   0.000000 0.500000 0.852070 -0.313410
N2    N     N_R   0.000000 0.500000 0.147930 -0.306575
N3    N     N_R   0.500000 0.000000 0.852070 -0.306542
N4    N     N_R   0.500000 0.000000 0.147930 -0.313366
O1    O     O_R   0.090170 0.409820 0.618740 -0.501926
O2    O     O_R   0.409830 0.090180 0.381260 -0.501929
O3    O     O_R   0.409830 0.090180 0.618740 -0.509552
O4    O     O_R   0.590170 0.909820 0.381260 -0.525255
O5    O     O_R   0.409830 0.909820 0.381260 -0.497287
O6    O     O_R   0.590170 0.090180 0.618740 -0.466500
O7    O     O_R   0.590170 0.090180 0.381260 -0.532263
O8    O     O_R   0.409830 0.909820 0.618740 -0.524472
O9    O     O_2   0.937249 0.290015 0.156006 -0.425623
O10   O     O_2   0.070764 0.715086 0.886868 -0.446672
O11   O     O_2   0.924652 0.719516 0.089272 -0.469657
O12   O     O_R   0.909830 0.590180 0.381260 -0.508935
O13   O     O_2   0.073916 0.280421 0.902688 -0.476717
O14   O     O_2   0.429151 0.785012 0.113388 -0.446613
O15   O     O_2   0.562731 0.209985 0.843969 -0.425634
O16   O     O_2   0.426057 0.219566 0.097330 -0.476728
O17   O     O_2   0.575294 0.780449 0.910746 -0.469789
O18   O     O_3   0.764590 0.363901 0.267988 -0.556458
O19   O     O_3   0.257046 0.609896 0.696605 -0.574846
O20   O     O_3   0.137641 0.752582 0.280154 -0.608628
O21   O     O_3   0.828569 0.282094 0.750557 -0.602656
O22   O     O_3   0.087619 0.210433 0.605834 -0.679346
O23   O     O_R   0.909830 0.590180 0.618740 -0.525228
O24   O     O_3   0.719264 0.575240 0.416223 -0.712869
O25   O     O_3   0.918000 0.794088 0.561003 -0.704130
O26   O     O_3   0.273579 0.418687 0.373444 -0.688520
O27   O     O_3   0.242953 0.890106 0.303396 -0.574780
O28   O     O_3   0.735408 0.136099 0.732012 -0.556455
O29   O     O_3   0.671435 0.217901 0.249442 -0.602662
O30   O     O_3   0.362350 0.747426 0.719857 -0.608634
O31   O     O_3   0.780738 0.924764 0.583769 -0.712867
O32   O     O_3   0.412380 0.289569 0.394158 -0.679335
O33   O     O_3   0.226422 0.081314 0.626563 -0.688520
O34   O     O_R   0.090170 0.409820 0.381260 -0.509552
O35   O     O_3   0.581997 0.705910 0.439019 -0.704106
O36   O     O_R   0.909830 0.409820 0.381260 -0.466520
O37   O     O_R   0.090170 0.590180 0.618740 -0.497534
O38   O     O_R   0.090170 0.590180 0.381260 -0.524432
O39   O     O_R   0.909830 0.409820 0.618740 -0.532249
O40   O     O_R   0.590170 0.909820 0.618740 -0.508915

loop_
_geom_bond_atom_site_label_1
_geom_bond_atom_site_label_2
_ccdc_geom_bond_type
C10   C27   A    
C36   O9    D    
C38   H18   S    
C11   C18   A    
C34   O38   A    
C9    O18   S    
C12   C29   S    
C33   C45   S    
C45   O2    A    
C24   O32   S    
C8    C43   S    
C19   C31   A    
C21   O30   S    
C41   O15   D    
C22   C35   A    
H7    O25   S    
C37   O10   D    
C42   O16   D    
Cu4   O5    S    
H4    O21   S    
C23   O39   A    
C14   O22   S    
H10   O28   S    
C44   O40   A    
C1    O1    A    
C7    C42   S    
C48   N2    A    
Cu4   O4    S    
C26   O35   S    
C39   O13   D    
C36   H1    S    
C23   O36   A    
C18   O27   S    
Cu1   O37   S    
C3    C38   S    
C6    C41   S    
H3    O20   S    
C8    N3    A    
C13   C28   A    
C15   O24   S    
Cu2   O36   S    
H16   O33   S    
C46   O5    A    
C19   O28   S    
C34   O37   A    
C10   C21   A    
C31   C47   S    
C17   C30   A    
C45   O3    A    
C14   C30   A    
Cu2   N2    S    
Cu3   O6    S    
C15   C29   A    
C46   O8    A    
C27   C34   S    
C43   H23   S    
C21   C32   A    
C42   H22   S    
C17   C24   A    
C13   C19   A    
Cu3   Cu4   S    
C47   O6    A    
C12   O23   A    
C15   C26   A    
C16   C29   A    
C38   O11   D    
C11   O20   S    
Cu2   O34   S    
C47   O7    A    
H11   O29   S    
H5    O22   S    
C25   O33   S    
C26   C35   A    
C9    C20   A    
C4    C39   S    
C11   C27   A    
Cu3   O40   S    
C23   C28   S    
C5    N4    A    
Cu4   O2    S    
C35   C44   S    
C16   O25   S    
Cu2   O12   S    
Cu1   Cu2   S    
H14   O31   S    
H2    O19   S    
C18   C32   A    
C1    O34   A    
C13   O21   S    
Cu3   O3    S    
C37   H12   S    
H8    O26   S    
C4    C48   A    
H17   O35   S    
C16   C22   A    
C40   H20   S    
Cu2   O38   S    
C32   C46   S    
C12   O12   A    
Cu4   O7    S    
C43   O17   D    
C40   O14   D    
C44   O4    A    
Cu3   O8    S    
Cu1   O23   S    
C5    C8    A    
C6    C7    A    
C24   C33   A    
C2    C3    A    
C4    N1    A    
C2    N1    A    
C17   O26   S    
C2    C37   S    
C6    N3    A    
Cu1   O39   S    
C1    C30   S    
Cu1   N1    S    
C36   C48   S    
Cu1   O1    S    
C14   C25   A    
C10   O19   S    
H9    O27   S    
Cu3   N3    S    
H13   O30   S    
C41   H21   S    
C20   O29   S    
H15   O32   S    
H6    O24   S    
C22   O31   S    
C5    C40   S    
C39   H19   S    
Cu4   N4    S    
C3    N2    A    
H24   O18   S    
C9    C28   A    
C25   C33   A    
C7    N4    A    
C20   C31   A    
