data_mof_unit_11904.cif
_audit_creation_date              2012-12-11T14:22:58-0500
_audit_creation_method            fapswitch 2.2
_symmetry_space_group_name_H-M    P1
_symmetry_Int_Tables_number       1
_space_group_crystal_system       triclinic
_cell_length_a                    11.035761
_cell_length_b                    10.93495
_cell_length_c                    18.871778
_cell_angle_alpha                 89.630858
_cell_angle_beta                  89.421367
_cell_angle_gamma                 60.198452
_cell_volume                      1976.0813141

loop_
_atom_site_label
_atom_site_type_symbol
_atom_type_description
_atom_site_fract_x
_atom_site_fract_y
_atom_site_fract_z
_atom_type_partial_charge
C1    C     C_R   0.233923 0.645921 0.609066 0.546508
C2    C     C_3   0.664288 0.555096 0.801348 -0.240592
C3    C     C_3   0.698700 0.673749 0.812126 0.059020
C4    C     C_3   0.669338 0.646398 0.676607 0.039621
C5    C     C_3   0.817354 0.622534 0.690397 -0.254242
C6    C     C_3   0.646448 0.539239 0.721716 -0.213169
C7    C     C_R   0.692135 0.144426 0.820085 -0.005842
C8    C     C_R   0.797144 0.154573 0.781351 0.011517
C9    C     C_R   0.795287 0.151200 0.705864 0.017892
C10   C     C_R   0.580649 0.142288 0.710369 -0.161325
C11   C     C_R   0.584239 0.141814 0.782523 -0.151664
C12   C     C_R   0.652953 0.621259 0.601305 0.540689
C13   C     C_R   0.901802 0.170839 0.814728 -0.123540
C14   C     C_R   0.008050 0.172002 0.774993 -0.135555
C15   C     C_R   0.013957 0.153956 0.701907 -0.139562
C16   C     C_R   0.909746 0.142067 0.667618 -0.102620
C17   C     C_R   0.678288 0.158170 0.671102 -0.008356
C18   C     C_R   0.165928 0.678018 0.831229 0.002678
C19   C     C_R   0.199313 0.549641 0.798071 0.017341
C20   C     C_R   0.193573 0.544474 0.723024 0.022375
C21   C     C_R   0.150566 0.784995 0.716916 -0.154042
C22   C     C_R   0.140263 0.794310 0.789497 -0.125611
C23   C     C_R   0.630762 0.224050 0.601340 0.537457
C24   C     C_R   0.234496 0.427350 0.838116 -0.087208
C25   C     C_R   0.245156 0.308872 0.806243 -0.144040
C26   C     C_R   0.229146 0.306498 0.733592 -0.148527
C27   C     C_R   0.201372 0.423162 0.692235 -0.092614
C28   C     C_R   0.180698 0.660724 0.682298 -0.017276
C29   C     C_R   0.675021 0.653972 0.171021 -0.001517
C30   C     C_R   0.793082 0.560218 0.213574 0.033265
C31   C     C_R   0.789339 0.587468 0.286301 0.020892
C32   C     C_R   0.537868 0.725790 0.277303 -0.146469
C33   C     C_R   0.546748 0.734150 0.204124 -0.146993
C34   C     C_R   0.284434 0.624716 0.392077 0.554645
C35   C     C_R   0.913709 0.439152 0.187283 -0.090687
C36   C     C_R   0.034084 0.369868 0.227649 -0.152998
C37   C     C_R   0.036567 0.415731 0.295762 -0.121351
C38   C     C_R   0.915255 0.525328 0.324974 -0.074851
C39   C     C_R   0.658000 0.660464 0.319507 -0.006751
C40   C     C_R   0.624610 0.178488 0.172487 -0.006171
C41   C     C_R   0.547342 0.137141 0.217856 0.035424
C42   C     C_R   0.577911 0.121662 0.290369 0.015754
C43   C     C_R   0.684520 0.267840 0.274210 -0.153111
C44   C     C_R   0.681443 0.255518 0.200858 -0.183466
C45   C     C_R   0.642697 0.624547 0.392674 0.521007
C46   C     C_R   0.438202 0.114730 0.194669 -0.086424
C47   C     C_R   0.375536 0.063204 0.241032 -0.152138
C48   C     C_R   0.421158 0.031243 0.310509 -0.118345
C49   C     C_R   0.528294 0.050695 0.333687 -0.079621
C50   C     C_R   0.641150 0.193427 0.319323 0.005802
C51   C     C_R   0.090330 0.706731 0.192692 0.007895
C52   C     C_R   0.074135 0.819924 0.235194 0.015577
C53   C     C_R   0.162024 0.793785 0.292291 0.041626
C54   C     C_R   0.246237 0.541065 0.278663 -0.164572
C55   C     C_R   0.180090 0.567668 0.213718 -0.131184
C56   C     C_R   0.615058 0.234540 0.393524 0.528400
C57   C     C_R   0.979689 0.960358 0.217695 -0.078149
C58   C     C_R   0.995706 0.070657 0.242274 -0.112471
C59   C     C_R   0.089151 0.046434 0.294930 -0.148678
C60   C     C_R   0.170950 0.910993 0.319756 -0.095283
C61   C     C_R   0.233674 0.652984 0.319641 0.000084
C62   C     C_R   0.703444 0.100112 0.895096 0.528371
C63   C     C_R   0.724161 0.688180 0.888026 0.561947
C64   C     C_R   0.116125 0.707655 0.904852 0.549203
C65   C     C_R   0.670139 0.111927 0.102485 0.525580
C66   C     C_R   0.698376 0.686269 0.097768 0.541630
C67   C     C_3   0.578767 0.813996 0.780304 -0.034484
C68   C     C_R   0.040419 0.738334 0.120138 0.542720
C69   C     C_3   0.560790 0.797019 0.700730 -0.217268
C70   C     C_3   0.835328 0.636624 0.770009 -0.242307
Cr1   Cr    Cr6+3 0.392940 0.397950 0.502230 0.996368
Cr2   Cr    Cr6+3 0.398400 0.708500 0.501260 0.986583
Cr3   Cr    Cr6+3 0.708640 0.393530 0.496460 0.999579
Cr4   Cr    Cr6+3 0.937880 0.938320 0.007620 1.014720
Cr5   Cr    Cr6+3 0.625560 0.937220 0.994510 1.034284
Cr6   Cr    Cr6+3 0.938080 0.625010 0.001190 1.001743
H1    H     H_    0.610171 0.894667 0.785794 0.142234
H2    H     H_    0.722810 0.430061 0.705412 0.160050
H3    H     H_    0.923745 0.535389 0.789376 0.162888
H4    H     H_    0.898189 0.515573 0.672546 0.147555
H5    H     H_    0.900995 0.187351 0.871075 0.143944
H6    H     H_    0.503965 0.129634 0.808648 0.169445
H7    H     H_    0.088246 0.181942 0.801749 0.146320
H8    H     H_    0.100356 0.145804 0.671047 0.107873
H9    H     H_    0.922684 0.120965 0.611364 0.136515
H10   H     H_    0.255807 0.421183 0.894214 0.136229
H11   H     H_    0.109603 0.895189 0.813077 0.189623
H12   H     H_    0.269686 0.217200 0.838173 0.141070
H13   H     H_    0.243920 0.211586 0.708854 0.111732
H14   H     H_    0.181174 0.417327 0.636959 0.138066
H15   H     H_    0.436799 0.769094 0.300943 0.125882
H16   H     H_    0.915534 0.392304 0.136740 0.135956
H17   H     H_    0.453724 0.798204 0.173395 0.136388
H18   H     H_    0.125532 0.281341 0.205300 0.105253
H19   H     H_    0.130924 0.363041 0.326814 0.124292
H20   H     H_    0.453343 0.816957 0.690626 0.174437
H21   H     H_    0.918328 0.556291 0.379031 0.133271
H22   H     H_    0.723364 0.333439 0.295569 0.156594
H23   H     H_    0.392271 0.145668 0.142810 0.143674
H24   H     H_    0.727693 0.301115 0.166456 0.115484
H25   H     H_    0.293801 0.045288 0.222111 0.115870
H26   H     H_    0.374536 0.992126 0.347577 0.100050
H27   H     H_    0.563587 0.020730 0.387655 0.128233
H28   H     H_    0.308637 0.433115 0.296628 0.140392
H29   H     H_    0.896500 0.981996 0.183669 0.153482
H30   H     H_    0.199644 0.479923 0.179990 0.142672
H31   H     H_    0.574455 0.876070 0.669503 0.098576
H32   H     H_    0.937826 0.174685 0.220427 0.121792
H33   H     H_    0.100274 0.131924 0.316130 0.118988
H34   H     H_    0.244361 0.903865 0.358177 0.141460
H35   H     H_    0.864380 0.719547 0.778276 0.120846
H36   H     H_    0.834140 0.700649 0.660106 0.114042
H37   H     H_    0.749925 0.454736 0.822700 0.129359
H38   H     H_    0.567416 0.577979 0.830692 0.155122
H39   H     H_    0.540156 0.554802 0.712349 0.138135
O1    O     O_R   0.507340 0.255690 0.581430 -0.523139
O2    O     O_R   0.524510 0.695820 0.424050 -0.532146
O3    O     O_R   0.736370 0.504260 0.414810 -0.522823
O4    O     O_R   0.691220 0.277270 0.422180 -0.502384
O5    O     O_3   0.499990 0.499990 0.499980 -0.261123
O6    O     O_R   0.089570 0.825450 0.930590 -0.497817
O7    O     O_R   0.818700 0.054260 0.929860 -0.511488
O8    O     O_R   0.606310 0.077010 0.915520 -0.520829
O9    O     O_R   0.646730 0.806540 0.917560 -0.467681
O10   O     O_R   0.837290 0.593240 0.915240 -0.534516
O11   O     O_R   0.065320 0.635310 0.931580 -0.513979
O12   O     O_R   0.280360 0.527380 0.578910 -0.506697
O13   O     O_R   0.068470 0.828620 0.091850 -0.510754
O14   O     O_R   0.799150 0.057200 0.079350 -0.531579
O15   O     O_R   0.585220 0.080180 0.076770 -0.527378
O16   O     O_R   0.627170 0.809480 0.067050 -0.484898
O17   O     O_R   0.816200 0.596410 0.076500 -0.541086
O18   O     O_R   0.045770 0.638240 0.081070 -0.503298
O19   O     O_3   0.833840 0.833520 0.001110 -0.267518
O20   O     O_R   0.260600 0.739610 0.584580 -0.522484
O21   O     O_R   0.532370 0.695050 0.573830 -0.509327
O22   O     O_R   0.744850 0.503430 0.576380 -0.526228
O23   O     O_R   0.699080 0.276500 0.571950 -0.511242
O24   O     O_R   0.498860 0.256520 0.419860 -0.537681
O25   O     O_R   0.272490 0.528150 0.429140 -0.498994
O26   O     O_R   0.252110 0.740440 0.423010 -0.536839
H40   H     H_    0.494812 0.138462 0.685379 0.146520
H41   H     H_    0.139698 0.874963 0.687696 0.159567
I1    I     I_    0.380049 0.896597 0.834459 -0.513072

loop_
_geom_bond_atom_site_label_1
_geom_bond_atom_site_label_2
_ccdc_geom_bond_type
C45   O3    A    
C57   H29   S    
C46   H23   S    
C34   O26   A    
C8    C13   A    
C47   H25   S    
C29   C33   A    
Cr6   O11   S    
C41   C42   A    
C23   O23   A    
C35   C36   A    
C67   H1    S    
C43   H22   S    
C69   H20   S    
C65   O15   A    
C69   H31   S    
Cr5   O19   S    
C7    C8    A    
C26   H13   S    
C7    C11   A    
C26   C27   A    
C17   C23   S    
Cr1   O5    S    
Cr5   O8    S    
C54   H28   S    
C36   C37   A    
C9    C16   A    
C15   H8    S    
C30   C31   A    
C2    H37   S    
Cr3   O4    S    
Cr2   O21   S    
C32   H15   S    
Cr3   O23   S    
C10   C17   A    
C15   C16   A    
C13   H5    S    
C37   H19   S    
C27   H14   S    
C18   C19   A    
C10   H40   S    
C32   C39   A    
C62   O8    A    
C23   O1    A    
C54   C55   A    
C53   C61   A    
Cr4   O13   S    
C19   C20   A    
C8    C9    A    
Cr2   O2    S    
C1    C28   S    
C41   C46   A    
C4    C12   S    
C68   O13   A    
C58   H32   S    
Cr5   O15   S    
C39   C45   S    
C35   H16   S    
C68   O18   A    
C59   C60   A    
Cr3   O5    S    
C13   C14   A    
Cr6   O10   S    
Cr1   O12   S    
C2    C6    S    
C14   H7    S    
C38   H21   S    
C67   I1    S    
C4    C69   S    
C53   C60   A    
Cr5   O16   S    
C63   O9    A    
C66   O17   A    
C11   H6    S    
Cr2   O26   S    
C54   C61   A    
C55   H30   S    
Cr5   O9    S    
C3    C70   S    
C60   H34   S    
C24   C25   A    
C21   H41   S    
C4    C6    S    
C52   C57   A    
C56   O24   A    
Cr6   O19   S    
C44   H24   S    
Cr2   O20   S    
Cr1   O24   S    
C20   C28   A    
C58   C59   A    
C25   H12   S    
C50   C56   S    
C51   C52   A    
C67   C69   S    
C37   C38   A    
C43   C44   A    
C7    C62   S    
C29   C30   A    
C47   C48   A    
C14   C15   A    
C48   H26   S    
Cr2   O5    S    
C22   H11   S    
C5    H4    S    
C63   O10   A    
C42   C50   A    
C30   C35   A    
C9    C17   A    
C40   C41   A    
Cr4   O7    S    
C21   C28   A    
C64   O11   A    
C40   C65   S    
C16   H9    S    
C56   O4    A    
C62   O7    A    
C52   C53   A    
C66   O16   A    
C45   O2    A    
C46   C47   A    
C48   C49   A    
Cr3   O3    S    
C70   H3    S    
C18   C22   A    
C3    C67   S    
C1    O12   A    
C4    C5    S    
C5    C70   S    
C33   H17   S    
C49   H27   S    
C65   O14   A    
Cr6   O18   S    
C43   C50   A    
Cr1   O25   S    
C20   C27   A    
C3    C63   S    
C5    H36   S    
C70   H35   S    
C31   C38   A    
C32   C33   A    
C19   C24   A    
C25   C26   A    
C1    O20   A    
Cr6   O17   S    
C2    H38   S    
C18   C64   S    
C57   C58   A    
Cr3   O22   S    
Cr4   O19   S    
C34   O25   A    
C59   H33   S    
C31   C39   A    
Cr1   O1    S    
C2    C3    S    
C51   C55   A    
C51   C68   S    
C34   C61   S    
C6    H39   S    
C6    H2    S    
C10   C11   A    
C42   C49   A    
C29   C66   S    
C36   H18   S    
C40   C44   A    
Cr4   O6    S    
C12   O21   A    
Cr4   O14   S    
C12   O22   A    
C21   C22   A    
C24   H10   S    
C64   O6    A    
