data_mof_unit_47040.cif
_audit_creation_date              2013-03-05T16:03:02-0500
_audit_creation_method            fapswitch 2.2
_symmetry_space_group_name_H-M    P1
_symmetry_Int_Tables_number       1
_space_group_crystal_system       triclinic
_cell_length_a                    6.966692
_cell_length_b                    18.370722
_cell_length_c                    20.11805
_cell_angle_alpha                 68.254478
_cell_angle_beta                  90.355345
_cell_angle_gamma                 90.59712
_cell_volume                      2391.40959852

loop_
_atom_site_label
_atom_site_type_symbol
_atom_site_description
_atom_site_fract_x
_atom_site_fract_y
_atom_site_fract_z
_atom_type_partial_charge
O1    O     O_R   0.488990 0.443920 0.942160 -0.570984
O2    O     O_R   0.823840 0.406530 0.087600 -0.602752
O3    O     O_R   0.999650 0.556080 0.057840 -0.574166
C1    C     C_R   0.655138 0.384297 0.115723 1.066742
O4    O     O_R   0.818390 0.434590 0.944530 -0.553055
O5    O     O_R   0.994160 0.584350 0.913750 -0.581082
C2    C     C_R   0.649713 0.420883 0.923810 0.948309
O6    O     O_R   0.494480 0.415650 0.086250 -0.577838
O7    O     O_3   0.662600 0.549100 0.990070 -0.267849
V1    V     V_3+5 0.935320 0.490890 0.001840 1.284295
O8    O     O_R   0.324240 0.593470 0.912400 -0.600323
C3    C     C_R   0.155393 0.616041 0.884759 1.046941
O9    O     O_R   0.329690 0.565410 0.055470 -0.552250
C4    C     C_R   0.161632 0.580539 0.074991 0.952374
V2    V     V_3+5 0.435990 0.509110 0.998160 1.282241
O10   O     O_3   0.158840 0.450900 0.009930 -0.263040
C5    C     C_3   0.926249 0.718544 0.226454 0.017043
C6    C     C_3   0.263686 0.680336 0.267285 -0.586367
C7    C     C_3   0.270014 0.732351 0.313167 1.357089
H1    H     H_    0.884635 0.656292 0.254359 0.169013
H2    H     H_    0.411770 0.671975 0.251496 0.282077
H3    H     H_    0.205909 0.621307 0.299813 0.249970
C8    C     C_1   0.110077 0.879177 0.374940 -0.141459
C9    C     C_3   0.136082 0.717411 0.199877 -0.159213
C10   C     C_3   0.917460 0.762796 0.280898 0.734587
C11   C     C_3   0.120157 0.799553 0.285303 -0.542971
C12   C     C_3   0.176471 0.853925 0.206405 0.187337
C13   C     C_3   0.211745 0.802380 0.160316 -0.410385
C14   C     C_1   0.114255 0.843885 0.334428 0.375547
C15   C     C_1   0.147377 0.669612 0.153887 0.255462
C16   C     C_1   0.154411 0.629249 0.117741 -0.194196
H4    H     H_    0.143315 0.829729 0.106909 0.216270
H5    H     H_    0.366520 0.798608 0.149462 0.270760
H6    H     H_    0.052203 0.892171 0.181850 0.195490
H7    H     H_    0.052362 0.522792 0.685973 0.299687
C17   C     C_R   0.180904 0.775061 0.877941 -0.306957
C18   C     C_R   0.187433 0.851219 0.877095 -0.198813
C19   C     C_R   0.171523 0.914688 0.812741 0.942107
C20   C     C_R   0.150967 0.902470 0.748752 -0.423087
C21   C     C_R   0.143448 0.825752 0.747862 0.028478
C22   C     C_R   0.157658 0.760733 0.813834 0.127556
C23   C     C_R   0.118739 0.813584 0.682723 -0.121358
C24   C     C_R   0.103155 0.735798 0.683590 -0.238358
C25   C     C_R   0.115396 0.670318 0.750111 -0.176225
C26   C     C_R   0.145001 0.683193 0.815085 -0.178112
C27   C     C_R   0.075742 0.721033 0.619505 0.513150
C28   C     C_R   0.057324 0.644855 0.621199 0.725757
C29   C     C_R   0.067496 0.581662 0.685545 -0.402402
C30   C     C_R   0.097868 0.593279 0.749328 0.643814
H8    H     H_    0.192347 0.727713 0.929493 0.126516
H9    H     H_    0.203549 0.860918 0.926753 0.184037
H10   H     H_    0.138611 0.953884 0.700183 0.154263
C31   C     C_R   0.701589 0.225931 0.122069 -0.305330
C32   C     C_R   0.726158 0.150060 0.122373 0.384110
C33   C     C_R   0.715448 0.086151 0.187293 -0.105572
C34   C     C_R   0.680490 0.097439 0.250778 -0.222257
C35   C     C_R   0.656987 0.173458 0.251546 0.105998
C36   C     C_R   0.668129 0.239126 0.186010 0.063857
C37   C     C_R   0.621864 0.184431 0.316351 -0.182498
C38   C     C_R   0.601772 0.261114 0.316128 0.024720
C39   C     C_R   0.612924 0.327484 0.250852 -0.125562
C40   C     C_R   0.644703 0.316260 0.185175 -0.221888
C41   C     C_R   0.575630 0.272448 0.381121 -0.326232
C42   C     C_R   0.561694 0.347031 0.383495 0.230855
C43   C     C_R   0.567288 0.413010 0.319354 0.115696
C44   C     C_R   0.594171 0.403291 0.253809 0.554106
H11   H     H_    0.708811 0.274537 0.071249 0.135264
H12   H     H_    0.734111 0.027002 0.189130 0.220363
H13   H     H_    0.672404 0.045676 0.299265 0.149202
H14   H     H_    0.572343 0.223236 0.431645 0.167233
O11   O     O_R   0.770890 0.084490 0.414040 -0.602333
O12   O     O_R   0.445980 0.065450 0.555510 -0.586071
O13   O     O_R   0.270670 0.915620 0.586180 -0.594032
C45   C     C_R   0.614873 0.079797 0.575773 0.951865
O14   O     O_R   0.441480 0.093500 0.412450 -0.591132
O15   O     O_R   0.266140 0.943870 0.442100 -0.581239
C46   C     C_R   0.610369 0.115636 0.384719 0.913961
O16   O     O_R   0.775410 0.056240 0.558120 -0.586070
O17   O     O_3   0.602660 0.950990 0.510100 -0.255270
V3    V     V_3+5 0.329740 0.009100 0.498130 1.240030
O18   O     O_R   0.936120 0.934420 0.444240 -0.567109
C47   C     C_R   0.103933 0.922097 0.422585 1.059088
O19   O     O_R   0.940610 0.906370 0.587310 -0.574107
C48   C     C_R   0.109386 0.882799 0.614362 1.060033
V4    V     V_3+5 0.829110 0.990690 0.501470 1.251501
O20   O     O_3   0.106080 0.049010 0.489880 -0.282256
C49   C     C_3   0.750566 0.290711 0.668656 -0.072894
C50   C     C_3   0.429115 0.235864 0.716872 -0.464234
C51   C     C_3   0.433424 0.288286 0.763164 0.062378
H15   H     H_    0.661705 0.328777 0.623048 0.206586
H16   H     H_    0.338302 0.183195 0.743541 0.265026
H17   H     H_    0.359071 0.266292 0.664279 0.286613
H18   H     H_    0.341711 0.258352 0.810918 0.190121
C52   C     C_1   0.643687 0.376378 0.877425 -0.138719
C53   C     C_3   0.635595 0.211743 0.704659 -0.263704
C54   C     C_3   0.775363 0.333352 0.722990 1.301639
C55   C     C_3   0.642281 0.294732 0.789474 -0.495534
C56   C     C_3   0.713830 0.209669 0.830650 0.533013
C57   C     C_3   0.729356 0.164116 0.779032 0.036978
C58   C     C_1   0.644070 0.339694 0.838030 0.372083
C59   C     C_1   0.627822 0.164974 0.657799 0.349476
C60   C     C_1   0.623125 0.126321 0.620213 -0.202568
H19   H     H_    0.884649 0.158118 0.769943 0.214749
H20   H     H_    0.611957 0.179654 0.874922 0.146581
N1    N     N_R   0.852489 0.710567 0.352753 0.276927
O21   O     O_R   0.784486 0.740842 0.396787 -0.205431
O22   O     O_R   0.868829 0.634709 0.375004 -0.266984
N2    N     N_R   0.791504 0.750664 0.166116 0.283746
O23   O     O_R   0.794943 0.824447 0.124854 -0.303678
O24   O     O_R   0.674141 0.703708 0.150561 -0.366923
F1    F     F_    0.786841 0.823494 0.256127 -0.590904
N3    N     N_R   0.338151 0.907492 0.203665 0.290046
O25   O     O_R   0.311707 0.965427 0.224965 -0.417668
O26   O     O_R   0.494117 0.907730 0.168386 -0.241487
F2    F     F_    0.173773 0.988647 0.812237 -0.621955
F3    F     F_    0.066215 0.779391 0.554273 -0.669552
F4    F     F_    0.029667 0.632176 0.559525 -0.510216
F5    F     F_    0.109966 0.527914 0.809587 -0.647017
N4    N     N_R   0.539552 0.490104 0.319994 0.282969
O27   O     O_R   0.413711 0.501688 0.362484 -0.286492
O28   O     O_R   0.633162 0.549774 0.275689 -0.319079
N5    N     N_R   0.762081 0.138186 0.056777 0.252790
O29   O     O_R   0.779085 0.067828 0.056432 -0.296851
O30   O     O_R   0.779729 0.197806 0.996783 -0.365768
N6    N     N_R   0.550821 0.354819 0.451905 0.281915
O31   O     O_R   0.657126 0.406508 0.465243 -0.238916
O32   O     O_R   0.455791 0.303395 0.504093 -0.373091
F6    F     F_    0.598514 0.468832 0.193398 -0.661517
F7    F     F_    0.733809 0.412197 0.689060 -0.631971
N7    N     N_R   0.352106 0.366517 0.725216 0.322537
O33   O     O_R   0.289715 0.406635 0.761948 -0.287159
O34   O     O_R   0.355994 0.399609 0.655732 -0.232070
N8    N     N_R   0.648673 0.084585 0.811797 0.258335
O35   O     O_R   0.752618 0.024529 0.816232 -0.320267
O36   O     O_R   0.478623 0.072585 0.840406 -0.318558
F8    F     F_    0.891452 0.210387 0.861987 -0.579059
N9    N     N_R   0.936568 0.282714 0.637759 0.270462
O37   O     O_R   0.010918 0.214728 0.647851 -0.411009
O38   O     O_R   0.023356 0.345468 0.594967 -0.211658
F9    F     F_    0.963905 0.328687 0.745907 -0.624551
F10   F     F_    0.236832 0.686194 0.384319 -0.580234
F11   F     F_    0.451565 0.764500 0.309413 -0.599839

loop_
_geom_bond_atom_site_label_1
_geom_bond_atom_site_label_2
_geom_bond_distance
_ccdc_geom_bond_type
C25   C30   1.425134 A    
C36   C40   1.421960 A    
C57   H19   1.111718 S    
C33   C34   1.390929 A    
C59   C60   1.214142 T    
C8    C47   1.450346 S    
C56   F8    1.387449 S    
C6    H2    1.110102 S    
C32   C33   1.397482 A    
O2    C1    1.302021 A    
O11   C46   1.296536 A    
C4    C16   1.454177 S    
C1    O6    1.299308 A    
C37   C46   1.485494 S    
N3    O26   1.300599 A    
C55   C56   1.558380 S    
C10   N1    1.478694 S    
C31   C32   1.403804 A    
C34   C35   1.413549 A    
N9    O38   1.300878 A    
C11   C12   1.579834 S    
C38   C41   1.411260 A    
C6    C9    1.551286 S    
C8    C14   1.215594 T    
C17   C18   1.393126 A    
O5    C3    1.297588 A    
C19   C20   1.392581 A    
C18   H9    1.082805 S    
C53   C57   1.568659 S    
C35   C37   1.414200 A    
V2    O10   2.168565 S    
C1    C40   1.491695 S    
C5    H1    1.107457 S    
N2    O23   1.301046 A    
C57   N8    1.469338 S    
C6    C7    1.555391 S    
C7    C11   1.560480 S    
V3    O20   1.709803 S    
O11   V4    1.996882 S    
O8    V2    2.002961 S    
C39   C44   1.423129 A    
C50   H17   1.109566 S    
N2    O24   1.301051 A    
C49   C53   1.573259 S    
C12   N3    1.475669 S    
C41   H14   1.081653 S    
O1    V2    1.963138 S    
O14   V3    1.998094 S    
O13   C48   1.299223 A    
C42   N6    1.437966 S    
N9    O37   1.301418 A    
C45   C60   1.448309 S    
C21   C23   1.417884 A    
C20   H10   1.082162 S    
C32   N5    1.438849 S    
C50   C53   1.557016 S    
C37   C38   1.415453 A    
C7    F10   1.386399 S    
C6    H3    1.111093 S    
O9    C4    1.302172 A    
C49   C54   1.570872 S    
C17   C22   1.416649 A    
C49   N9    1.472656 S    
H7    C29   1.082382 S    
N3    O25   1.301281 A    
C33   H12   1.082651 S    
N4    O28   1.299890 A    
C12   H6    1.112373 S    
C5    C9    1.562652 S    
C28   C29   1.384015 A    
C9    C13   1.554147 S    
C13   H4    1.110309 S    
C23   C48   1.489068 S    
O12   C45   1.298962 A    
C5    N2    1.472948 S    
O15   C47   1.300984 A    
C20   C21   1.416514 A    
O4    C2    1.297543 A    
C10   C11   1.575066 S    
V4    O20   2.168600 S    
O18   C47   1.301060 A    
C51   N7    1.472362 S    
O17   V3    2.158441 S    
C51   C55   1.563540 S    
C38   C39   1.424817 A    
N7    O34   1.301847 A    
C24   C25   1.432867 A    
C54   F9    1.382314 S    
C18   C19   1.389374 A    
N1    O22   1.302231 A    
O19   C48   1.301645 A    
C50   H16   1.109553 S    
C52   C58   1.215789 T    
C15   C16   1.217287 T    
C31   C36   1.415562 A    
C54   C55   1.565404 S    
C43   N4    1.436175 S    
O14   C46   1.300412 A    
O3    C4    1.301500 A    
O16   V4    1.980033 S    
C21   C22   1.422743 A    
O19   V4    2.002865 S    
C13   H5    1.109433 S    
C56   C57   1.561287 S    
C7    F11   1.380870 S    
O9    V2    1.964083 S    
N6    O31   1.301465 A    
C23   C24   1.425624 A    
N5    O30   1.300378 A    
O2    V1    1.997992 S    
O17   V4    1.713619 S    
C55   C58   1.494691 S    
C17   H8    1.081930 S    
C25   C26   1.425427 A    
N6    O32   1.301443 A    
O7    V1    2.158374 S    
C2    C52   1.450900 S    
C27   C28   1.391782 A    
C29   C30   1.391227 A    
O1    C2    1.303804 A    
O15   V3    1.971427 S    
C3    C26   1.487002 S    
O5    V1    1.999082 S    
N4    O27   1.300995 A    
O6    V2    2.001405 S    
N1    O21   1.301662 A    
C27   F3    1.354206 S    
C5    C10   1.589318 S    
C42   C43   1.405883 A    
N7    O33   1.300939 A    
O7    V2    1.717258 S    
O4    V1    1.979148 S    
O12   V3    1.978983 S    
O3    V1    1.971448 S    
V1    O10   1.709723 S    
C19   F2    1.354875 S    
C35   C36   1.421419 A    
N8    O35   1.300958 A    
C56   H20   1.112119 S    
O13   V3    1.999141 S    
C44   F6    1.357619 S    
C43   C44   1.408522 A    
C51   H18   1.114645 S    
C39   C40   1.429607 A    
C31   H11   1.080918 S    
C24   C27   1.423828 A    
C9    C15   1.495875 S    
C10   F1    1.386926 S    
C41   C42   1.392937 A    
C30   F5    1.356792 S    
C28   F4    1.356881 S    
C50   C51   1.568194 S    
C11   C14   1.496425 S    
C34   H13   1.082233 S    
C45   O16   1.301217 A    
C49   H15   1.113854 S    
C12   C13   1.573211 S    
N8    O36   1.300901 A    
C22   C26   1.417170 A    
N5    O29   1.301741 A    
O18   V4    1.964327 S    
C53   C59   1.492788 S    
O8    C3    1.302328 A    
C54   F7    1.386152 S    
