data_mof_unit_38052.cif
_audit_creation_date              2012-12-11T14:11:05-0500
_audit_creation_method            fapswitch 2.2
_symmetry_space_group_name_H-M    P1
_symmetry_Int_Tables_number       1
_space_group_crystal_system       triclinic
_cell_length_a                    20.05585
_cell_length_b                    17.161283
_cell_length_c                    15.641971
_cell_angle_alpha                 90.06888
_cell_angle_beta                  51.280505
_cell_angle_gamma                 89.962247
_cell_volume                      4200.46174288

loop_
_atom_site_label
_atom_site_type_symbol
_atom_type_description
_atom_site_fract_x
_atom_site_fract_y
_atom_site_fract_z
_atom_type_partial_charge
C1    C     C_R   0.374348 0.197046 0.994469 0.621986
C2    C     C_3   0.667341 0.732639 0.454450 0.288489
C3    C     C_3   0.807440 0.185112 0.407268 0.372392
C4    C     C_3   0.320034 0.746339 0.553099 0.315238
C5    C     C_3   0.711164 0.699196 0.579498 0.253612
C6    C     C_3   0.167341 0.232640 0.454450 0.288490
C7    C     C_3   0.307440 0.685112 0.407269 0.372393
C8    C     C_3   0.820034 0.246339 0.553099 0.315238
C9    C     C_2   0.211473 0.734915 0.065921 -0.157476
C10   C     C_2   0.713062 0.312385 0.053581 -0.070646
C11   C     C_2   0.788317 0.734881 0.934430 -0.151107
C12   C     C_R   0.665339 0.830919 0.942051 0.554677
C13   C     C_2   0.287188 0.312413 0.945956 -0.079818
C14   C     C_2   0.711473 0.234915 0.065921 -0.157476
C15   C     C_2   0.213062 0.812385 0.053581 -0.070646
C16   C     C_2   0.288317 0.234882 0.934429 -0.151107
C17   C     C_2   0.787188 0.812413 0.945956 -0.079818
C18   C     C_R   0.405695 0.799169 0.204811 0.874832
C19   C     C_R   0.654180 0.168692 0.776735 0.713542
C20   C     C_R   0.595951 0.799565 0.793046 0.835599
C21   C     C_R   0.344022 0.166310 0.223423 0.658446
C22   C     C_R   0.905695 0.299169 0.204811 0.874832
C23   C     C_R   0.625357 0.197064 0.005941 0.617112
C24   C     C_R   0.154180 0.668692 0.776735 0.713542
C25   C     C_R   0.095951 0.299565 0.793046 0.835599
C26   C     C_R   0.844022 0.666310 0.223423 0.658447
C27   C     C_R   0.329216 0.914058 0.954227 -0.120177
C28   C     C_R   0.640285 0.107691 0.094230 -0.209294
C29   C     C_R   0.670879 0.914202 0.045569 -0.098174
C30   C     C_R   0.359710 0.107655 0.905779 -0.206013
C31   C     C_R   0.829216 0.414058 0.954227 -0.120177
C32   C     C_R   0.140285 0.607691 0.094231 -0.209295
C33   C     C_R   0.170879 0.414202 0.045569 -0.098173
C34   C     C_R   0.334875 0.830854 0.057623 0.556997
C35   C     C_R   0.859710 0.607655 0.905779 -0.206013
C36   C     C_R   0.354316 0.077711 0.317269 0.463299
C37   C     C_R   0.587118 0.889037 0.700222 0.556581
C38   C     C_R   0.646191 0.077432 0.683133 0.463387
C39   C     C_R   0.413595 0.888788 0.298942 0.574453
C40   C     C_R   0.854316 0.577711 0.317269 0.463298
C41   C     C_R   0.087118 0.389037 0.700222 0.556581
C42   C     C_R   0.146191 0.577431 0.683133 0.463386
C43   C     C_R   0.913595 0.388788 0.298942 0.574452
C44   C     C_R   0.340118 0.183236 0.942846 0.054694
C45   C     C_R   0.874348 0.697046 0.994469 0.621986
C46   C     C_R   0.715863 0.855737 0.968382 -0.113218
C47   C     C_R   0.659762 0.183233 0.057340 0.054146
C48   C     C_R   0.284403 0.855567 0.031150 -0.093978
C49   C     C_R   0.840118 0.683236 0.942846 0.054694
C50   C     C_R   0.215863 0.355737 0.968382 -0.113218
C51   C     C_R   0.159762 0.683233 0.057340 0.054146
C52   C     C_R   0.784403 0.355567 0.031150 -0.093977
C53   C     C_R   0.398776 0.811180 0.296262 -0.194800
C54   C     C_R   0.698968 0.134471 0.674568 -0.110130
C55   C     C_R   0.603739 0.812276 0.700959 -0.103926
C56   C     C_R   0.165339 0.330919 0.942051 0.554677
C57   C     C_R   0.300129 0.131820 0.325140 -0.004587
C58   C     C_R   0.898775 0.311180 0.296262 -0.194800
C59   C     C_R   0.198968 0.634471 0.674568 -0.110130
C60   C     C_R   0.103739 0.312276 0.700959 -0.103926
C61   C     C_R   0.800129 0.631820 0.325140 -0.004587
C62   C     C_3   0.174201 0.140977 0.544755 0.285417
C63   C     C_3   0.704343 0.790591 0.489342 0.264115
C64   C     C_3   0.842339 0.142652 0.458249 0.218666
C65   C     C_3   0.284925 0.788245 0.502606 0.190832
C66   C     C_3   0.674202 0.640977 0.544755 0.285419
C67   C     C_R   0.125357 0.697064 0.005941 0.617112
C68   C     C_3   0.204344 0.290591 0.489342 0.264114
C69   C     C_3   0.342338 0.642652 0.458249 0.218670
C70   C     C_3   0.784925 0.288245 0.502606 0.190830
C71   C     C_3   0.605268 0.700922 0.572942 0.619154
C72   C     C_3   0.271809 0.231560 0.463163 0.558111
C73   C     C_3   0.396136 0.715195 0.438962 0.626668
C74   C     C_3   0.732487 0.217066 0.519572 0.569859
C75   C     C_3   0.105268 0.200923 0.572942 0.619156
C76   C     C_3   0.771809 0.731560 0.463163 0.558110
C77   C     C_3   0.896136 0.215195 0.438962 0.626670
C78   C     C_R   0.834875 0.330854 0.057623 0.556997
C79   C     C_3   0.232487 0.717066 0.519572 0.569856
C80   C     C_3   0.642924 0.759439 0.607853 -0.305499
C81   C     C_3   0.235381 0.172656 0.426907 -0.272433
C82   C     C_3   0.360450 0.757500 0.388094 -0.324884
C83   C     C_3   0.766594 0.173912 0.572330 -0.372286
C84   C     C_3   0.142924 0.259439 0.607853 -0.305499
C85   C     C_3   0.735381 0.672655 0.426907 -0.272432
C86   C     C_3   0.860450 0.257500 0.388094 -0.324884
C87   C     C_3   0.266594 0.673912 0.572330 -0.372286
C88   C     C_3   0.211164 0.199196 0.579499 0.253611
F1    F     F_    0.425784 0.729275 0.153359 -0.565623
F2    F     F_    0.357352 0.248168 0.407442 -0.630158
F3    F     F_    0.480700 0.714177 0.396674 -0.605029
F4    F     F_    0.648477 0.219760 0.559424 -0.625408
F5    F     F_    0.019390 0.185501 0.630074 -0.596490
F6    F     F_    0.857352 0.748169 0.407441 -0.630158
F7    F     F_    0.980700 0.214178 0.396674 -0.605029
F8    F     F_    0.148477 0.719760 0.559424 -0.625408
F9    F     F_    0.676233 0.236143 0.797194 -0.632568
F10   F     F_    0.578518 0.728729 0.841267 -0.580298
F11   F     F_    0.319330 0.233295 0.205381 -0.641426
F12   F     F_    0.925784 0.229275 0.153359 -0.565624
F13   F     F_    0.176233 0.736143 0.797194 -0.632567
F14   F     F_    0.078518 0.228729 0.841267 -0.580298
F15   F     F_    0.819330 0.733295 0.205381 -0.641427
F16   F     F_    0.519390 0.685500 0.630074 -0.596490
H1    H     H_    0.310323 0.946020 0.912948 0.158612
H2    H     H_    0.669377 0.342888 0.046903 0.226220
H3    H     H_    0.741388 0.704917 0.933330 0.194615
H4    H     H_    0.331279 0.342873 0.951894 0.222534
H5    H     H_    0.758077 0.204896 0.067670 0.193420
H6    H     H_    0.169377 0.842888 0.046903 0.226220
H7    H     H_    0.241388 0.204917 0.933330 0.194615
H8    H     H_    0.831279 0.842873 0.951894 0.222534
H9    H     H_    0.436846 0.262341 0.021224 0.336964
H10   H     H_    0.751182 0.779166 0.805834 0.329321
H11   H     H_    0.560544 0.262306 0.982900 0.336124
H12   H     H_    0.649190 0.079922 0.148491 0.165086
H13   H     H_    0.249115 0.779651 0.193996 0.326525
H14   H     H_    0.936846 0.762341 0.021224 0.336964
H15   H     H_    0.251182 0.279166 0.805834 0.329321
H16   H     H_    0.060544 0.762306 0.982900 0.336125
H17   H     H_    0.749115 0.279651 0.193996 0.326526
H18   H     H_    0.406142 0.052953 0.382131 0.363690
H19   H     H_    0.523045 0.964435 0.687236 0.344145
H20   H     H_    0.718152 0.041661 0.533362 0.364389
H21   H     H_    0.439183 0.878670 0.398940 0.344201
H22   H     H_    0.906142 0.552953 0.382131 0.363690
H23   H     H_    0.689698 0.946225 0.086930 0.158602
H24   H     H_    0.023045 0.464435 0.687236 0.344145
H25   H     H_    0.218152 0.541661 0.533362 0.364389
H26   H     H_    0.939183 0.378670 0.398940 0.344201
H27   H     H_    0.118644 0.060630 0.653362 0.367949
H28   H     H_    0.762594 0.868749 0.377405 0.381919
H29   H     H_    0.886808 0.054804 0.483600 0.363215
H30   H     H_    0.206399 0.865400 0.607273 0.383487
H31   H     H_    0.618644 0.560630 0.653363 0.367948
H32   H     H_    0.262595 0.368749 0.377405 0.381919
H33   H     H_    0.386808 0.554804 0.483600 0.363214
H34   H     H_    0.350868 0.079794 0.851449 0.159901
H35   H     H_    0.706399 0.365400 0.607273 0.383487
H36   H     H_    0.279747 0.140521 0.603123 0.372286
H37   H     H_    0.600119 0.790493 0.428058 0.375123
H38   H     H_    0.757356 0.109933 0.371590 0.354979
H39   H     H_    0.365988 0.824934 0.590329 0.342892
H40   H     H_    0.779748 0.640522 0.603122 0.372286
H41   H     H_    0.100120 0.290494 0.428057 0.375123
H42   H     H_    0.257354 0.609935 0.371591 0.354979
H43   H     H_    0.865987 0.324935 0.590330 0.342892
H44   H     H_    0.810323 0.446020 0.912948 0.158612
H45   H     H_    0.149190 0.579922 0.148491 0.165086
H46   H     H_    0.189698 0.446225 0.086930 0.158602
H47   H     H_    0.850868 0.579794 0.851449 0.159900
H48   H     H_    0.258077 0.704896 0.067670 0.193419
N1    N     N_R   0.408680 0.130810 0.995780 -0.138564
N2    N     N_R   0.578590 0.132790 0.846380 -0.180408
N3    N     N_R   0.578590 0.867210 0.846380 -0.173822
N4    N     N_R   0.421410 0.132790 0.153620 -0.173637
N5    N     N_R   0.921410 0.367210 0.153620 -0.177105
N6    N     N_R   0.078590 0.632790 0.846380 -0.180408
N7    N     N_R   0.078590 0.367210 0.846380 -0.173822
N8    N     N_R   0.921410 0.632790 0.153620 -0.173637
N9    N     N_R   0.403840 0.921910 0.935760 -0.098629
N10   N     N_R   0.596160 0.078090 0.064240 -0.076315
N11   N     N_R   0.596160 0.921910 0.064240 -0.086245
N12   N     N_R   0.591320 0.869190 0.004220 -0.091893
N13   N     N_R   0.403840 0.078090 0.935760 -0.079825
N14   N     N_R   0.903840 0.421910 0.935760 -0.098629
N15   N     N_R   0.096160 0.578090 0.064240 -0.076315
N16   N     N_R   0.096160 0.421910 0.064240 -0.086245
N17   N     N_R   0.903840 0.578090 0.935760 -0.079825
N18   N     N_R   0.426250 0.076100 0.213650 -0.149170
N19   N     N_R   0.573750 0.923900 0.786350 -0.185538
N20   N     N_R   0.573750 0.076100 0.786350 -0.121159
N21   N     N_R   0.426250 0.923900 0.213650 -0.151447
N22   N     N_R   0.926250 0.576100 0.213650 -0.149170
N23   N     N_R   0.591320 0.130810 0.004220 -0.141659
N24   N     N_R   0.073750 0.423900 0.786350 -0.185538
N25   N     N_R   0.073750 0.576100 0.786350 -0.121158
N26   N     N_R   0.926250 0.423900 0.213650 -0.151447
N27   N     N_R   0.408680 0.869190 0.995780 -0.089922
N28   N     N_R   0.908680 0.630810 0.995780 -0.138564
N29   N     N_R   0.091320 0.369190 0.004220 -0.091893
N30   N     N_R   0.091320 0.630810 0.004220 -0.141659
N31   N     N_R   0.908680 0.369190 0.995780 -0.089921
N32   N     N_R   0.421410 0.867210 0.153620 -0.177105
Ni1   Ni    Ni4+2 0.500000 0.131570 0.000000 0.214168
Ni2   Ni    Ni4+2 0.500000 0.868430 0.000000 0.342169
Ni3   Ni    Ni4+2 0.000000 0.631570 0.000000 0.214169
Ni4   Ni    Ni4+2 0.000000 0.368430 0.000000 0.342169
Ni5   Ni    Ni4+2 0.488900 1.000000 0.862310 0.207035
Ni6   Ni    Ni4+2 0.511100 0.000000 0.137690 0.226442
Ni7   Ni    Ni4+2 0.988900 0.500000 0.862310 0.207035
Ni8   Ni    Ni4+2 0.011100 0.500000 0.137690 0.226442
O1    O     O_3   0.395508 0.269722 0.007476 -0.705726
O2    O     O_3   0.555016 0.915727 0.649475 -0.641454
O3    O     O_3   0.658137 0.036011 0.599397 -0.687274
O4    O     O_3   0.442251 0.919542 0.351982 -0.714042
O5    O     O_3   0.847565 0.551520 0.405175 -0.646962
O6    O     O_3   0.055017 0.415727 0.649475 -0.641454
O7    O     O_3   0.158137 0.536011 0.599397 -0.687274
O8    O     O_3   0.942251 0.419542 0.351982 -0.714042
O9    O     O_3   0.159293 0.061967 0.572199 -0.601519
O10   O     O_3   0.721448 0.869016 0.458583 -0.616604
O11   O     O_3   0.873747 0.066350 0.433395 -0.640498
O12   O     O_3   0.687980 0.779086 0.861105 -0.701162
O13   O     O_3   0.253604 0.864667 0.527164 -0.622201
O14   O     O_3   0.659294 0.561967 0.572199 -0.601518
O15   O     O_3   0.221449 0.369016 0.458583 -0.616604
O16   O     O_3   0.373746 0.566350 0.433395 -0.640497
O17   O     O_3   0.753604 0.364667 0.527164 -0.622201
O18   O     O_3   0.234992 0.181184 0.644237 -0.620676
O19   O     O_3   0.644918 0.749752 0.388021 -0.568149
O20   O     O_3   0.800021 0.152191 0.331755 -0.585918
O21   O     O_3   0.328602 0.778890 0.627731 -0.574392
O22   O     O_3   0.734993 0.681185 0.644237 -0.620677
O23   O     O_3   0.602883 0.269728 0.994928 -0.698636
O24   O     O_3   0.144918 0.249753 0.388020 -0.568148
O25   O     O_3   0.300021 0.652191 0.331755 -0.585918
O26   O     O_3   0.828602 0.278890 0.627731 -0.574392
O27   O     O_3   0.312310 0.779316 0.138656 -0.712322
O28   O     O_3   0.895508 0.769722 0.007476 -0.705727
O29   O     O_3   0.187980 0.279086 0.861105 -0.701162
O30   O     O_3   0.102883 0.769728 0.994928 -0.698636
O31   O     O_3   0.812310 0.279316 0.138656 -0.712322
O32   O     O_3   0.347565 0.051520 0.405175 -0.646963

loop_
_geom_bond_atom_site_label_1
_geom_bond_atom_site_label_2
_ccdc_geom_bond_type
C27   C48   A    
H29   O11   S    
C14   H5    S    
C40   N22   A    
C71   F16   S    
H22   O5    S    
C28   C47   A    
C30   H34   S    
C20   N3    A    
C8    C83   S    
C64   C77   S    
C29   N11   A    
N11   N12   A    
C9    C51   S    
N5    Ni4   S    
H38   O20   S    
C74   C83   S    
C39   N21   A    
C10   C52   S    
N6    Ni3   S    
C66   C85   S    
C79   C87   S    
C19   F9    S    
C28   N10   A    
C6    C75   S    
C62   O9    S    
N27   Ni2   S    
C23   O23   S    
C3    C64   S    
H35   O17   S    
C23   N23   A    
N15   Ni8   S    
C39   C53   A    
C75   F5    S    
C2    O19   S    
N1    Ni1   S    
C65   C79   S    
C42   O7    S    
C63   O10   S    
C26   C61   A    
N14   Ni7   S    
N12   Ni2   S    
C33   H46   S    
C20   C55   A    
C4    C65   S    
C21   F11   S    
C24   N6    A    
C75   C84   S    
N15   N30   A    
N23   Ni1   S    
C63   C76   S    
C27   H1    S    
C42   N25   A    
N21   Ni6   S    
H15   O29   S    
C72   F2    S    
C38   O3    S    
N19   Ni5   S    
C2    C85   S    
C24   F13   S    
C74   F4    S    
C3    C74   S    
C70   C74   S    
C71   C80   S    
C9    H48   S    
C28   H12   S    
C45   N28   A    
C76   F6    S    
H42   O25   S    
C32   H45   S    
N21   N32   A    
C35   C49   A    
N13   Ni5   S    
H19   O2    S    
C69   C73   S    
C43   O8    S    
C25   C60   A    
C18   N32   A    
N9    N27   A    
C36   O32   S    
N17   N28   A    
C72   C81   S    
C18   C53   A    
C78   O31   S    
H39   O21   S    
C6    C68   S    
C6    C81   S    
C88   O18   S    
C40   O5    S    
C3    C86   S    
C15   H6    S    
C30   C44   A    
C34   N27   A    
C35   H47   S    
C15   C48   S    
C13   H4    S    
C52   C78   A    
C58   C86   S    
C54   C83   S    
C72   C88   S    
N29   Ni4   S    
C37   N19   A    
H24   O6    S    
C63   C80   S    
H11   O23   S    
C43   N26   A    
C23   C47   A    
H37   O19   S    
N2    N20   A    
C68   C84   S    
N8    N22   A    
C22   F12   S    
C17   C46   S    
C73   F3    S    
N9    Ni5   S    
C36   C57   A    
C10   C14   D    
C4    C87   S    
N2    Ni1   S    
C5    C66   S    
H30   O13   S    
N10   N23   A    
H21   O4    S    
C33   C50   A    
N4    Ni1   S    
C62   C88   S    
C77   F7    S    
C50   C56   A    
C40   C61   A    
C53   C82   S    
C7    O25   S    
N7    Ni4   S    
C67   O30   S    
C1    O1    S    
C64   C83   S    
C21   C57   A    
C11   C49   S    
C67   N30   A    
C26   F15   S    
C12   N12   A    
H41   O24   S    
N26   Ni8   S    
C1    C44   A    
C66   C71   S    
C38   C54   A    
C31   N14   A    
C45   C49   A    
C68   C72   S    
C68   O15   S    
H17   O31   S    
C6    O24   S    
C51   C67   A    
C5    C80   S    
C1    N1    A    
C4    C73   S    
H25   O7    S    
C61   C85   S    
H31   O14   S    
C25   N7    A    
C31   H44   S    
N28   Ni3   S    
C12   C46   A    
C62   C81   S    
C77   C86   S    
H27   O9    S    
N7    N24   A    
C29   H23   S    
C11   H3    S    
C8    C77   S    
C35   N17   A    
C57   C81   S    
C62   C75   S    
C10   H2    S    
C33   N16   A    
C34   C48   A    
N17   Ni7   S    
C2    C71   S    
C70   C86   S    
C17   H8    S    
C73   C82   S    
N10   Ni6   S    
C2    C63   S    
C19   C54   A    
C7    C79   S    
C26   N8    A    
C32   C51   A    
C3    O20   S    
C19   N2    A    
C16   C44   S    
C11   C17   D    
C69   O16   S    
H16   O30   S    
C4    O21   S    
H26   O8    S    
N1    N13   A    
C34   O27   S    
C18   F1    S    
H9    O1    S    
N6    N25   A    
N14   N31   A    
C84   C88   S    
C41   C60   A    
C41   O6    S    
N24   Ni7   S    
N3    Ni2   S    
C69   C87   S    
C42   C59   A    
C22   C58   A    
H32   O15   S    
C13   C16   D    
C38   N20   A    
C14   C47   S    
C22   N5    A    
N20   Ni5   S    
C39   O4    S    
N18   Ni6   S    
C36   N18   A    
N25   Ni7   S    
N16   Ni8   S    
C31   C52   A    
C29   C46   A    
C45   O28   S    
C65   O13   S    
C37   O2    S    
C5    C76   S    
C7    C69   S    
C9    C15   D    
C79   F8    S    
H43   O26   S    
N31   Ni4   S    
C27   N9    A    
H40   O22   S    
C55   C80   S    
C60   C84   S    
C65   C82   S    
C56   O29   S    
C64   O11   S    
C24   C59   A    
C66   O14   S    
C5    O22   S    
H20   O3    S    
N4    N18   A    
C21   N4    A    
N32   Ni2   S    
H13   O27   S    
N11   Ni6   S    
H10   O12   S    
N30   Ni3   S    
C12   O12   S    
C25   F14   S    
C59   C87   S    
C8    O26   S    
N5    N26   A    
C41   N24   A    
C13   C50   S    
C37   C55   A    
N3    N19   A    
C7    C82   S    
C20   F10   S    
C16   H7    S    
N16   N29   A    
C56   N29   A    
C32   N15   A    
C8    C70   S    
C70   O17   S    
H14   O28   S    
C43   C58   A    
H18   O32   S    
C30   N13   A    
N8    Ni3   S    
H28   O10   S    
C76   C85   S    
C78   N31   A    
H36   O18   S    
N22   Ni8   S    
H33   O16   S    
