data_mof_unit_62252.cif
_audit_creation_date              2013-03-05T16:01:31-0500
_audit_creation_method            fapswitch 2.2
_symmetry_space_group_name_H-M    P1
_symmetry_Int_Tables_number       1
_space_group_crystal_system       triclinic
_cell_length_a                    21.379042
_cell_length_b                    29.189572
_cell_length_c                    29.190306
_cell_angle_alpha                 90.001306
_cell_angle_beta                  89.998849
_cell_angle_gamma                 90.00234
_cell_volume                      18216.0669872

loop_
_atom_site_label
_atom_site_type_symbol
_atom_site_description
_atom_site_fract_x
_atom_site_fract_y
_atom_site_fract_z
_atom_type_partial_charge
O1    O     O_R   0.000000 0.964340 0.063140 -0.602207
O2    O     O_R   0.000000 0.964340 0.936860 -0.603802
O3    O     O_R   0.500000 0.464340 0.563140 -0.602217
O4    O     O_R   0.500000 0.464340 0.436860 -0.603788
O5    O     O_R   0.000000 0.035640 0.063120 -0.597656
O6    O     O_R   1.000000 0.035640 0.936880 -0.593191
O7    O     O_R   0.500000 0.535640 0.563120 -0.597728
O8    O     O_R   0.500000 0.535640 0.436880 -0.593127
C1    C     C_R   0.999999 0.999997 0.086741 0.902516
C2    C     C_R   1.000000 0.999996 0.913259 0.903294
C3    C     C_R   0.499999 0.499997 0.586741 0.902480
C4    C     C_R   0.500000 0.499996 0.413259 0.903337
O9    O     O_R   0.093030 0.964340 0.000000 -0.627939
O10   O     O_R   0.906970 0.964340 0.000000 -0.624703
O11   O     O_R   0.593030 0.464340 0.500000 -0.627946
O12   O     O_R   0.406970 0.464340 0.500000 -0.624702
O13   O     O_R   0.093040 0.035640 0.000000 -0.605366
O14   O     O_R   0.906960 0.035640 0.000000 -0.617046
O15   O     O_R   0.593040 0.535640 0.500000 -0.605366
O16   O     O_R   0.406960 0.535640 0.500000 -0.617047
C5    C     C_R   0.122786 0.999968 0.000008 0.921527
C6    C     C_R   0.877217 0.999964 0.000001 0.921704
C7    C     C_R   0.622785 0.499968 0.500013 0.921539
C8    C     C_R   0.377217 0.499964 0.500001 0.921707
Zn1   Zn    Zn3+2 0.000000 0.952380 0.000000 0.962789
Zn2   Zn    Zn3+2 0.500000 0.452380 0.500000 0.962792
Zn3   Zn    Zn3+2 0.000000 0.047600 0.000000 1.006693
Zn4   Zn    Zn3+2 0.500000 0.547600 0.500000 1.006665
C9    C     C_3   0.229587 0.021407 0.037833 -0.258571
C10   C     C_3   0.770452 0.021330 0.962122 -0.209554
C11   C     C_3   0.770446 0.021337 0.037863 -0.254073
C12   C     C_3   0.229570 0.021267 0.962082 -0.197174
C13   C     C_3   0.729590 0.521709 0.537663 -0.258643
C14   C     C_3   0.270452 0.521328 0.462121 -0.209544
C15   C     C_3   0.270446 0.521340 0.537862 -0.254082
C16   C     C_3   0.729564 0.520963 0.461916 -0.197153
C17   C     C_3   0.270668 0.042027 0.999911 0.453860
C18   C     C_3   0.729371 0.042036 0.999986 0.455010
C19   C     C_3   0.770666 0.542025 0.499574 0.453964
C20   C     C_3   0.229371 0.542036 0.499984 0.455018
H1    H     H_    0.211169 0.039705 0.068327 0.154936
H2    H     H_    0.788892 0.039564 0.931599 0.167748
H3    H     H_    0.788880 0.039570 0.068391 0.153317
H4    H     H_    0.211137 0.039445 0.931523 0.163569
H5    H     H_    0.711176 0.540252 0.568009 0.155031
H6    H     H_    0.288892 0.539560 0.431597 0.167758
H7    H     H_    0.288880 0.539573 0.568388 0.153307
H8    H     H_    0.711127 0.538894 0.431214 0.163449
C21   C     C_3   0.310505 0.998906 0.999996 -0.100506
C22   C     C_3   0.689494 0.998932 0.999995 -0.090643
C23   C     C_3   0.810505 0.498907 0.500002 -0.100485
C24   C     C_3   0.189494 0.498932 0.499995 -0.090642
C25   C     C_3   0.270281 0.977541 0.037805 -0.224112
C26   C     C_3   0.729718 0.977474 0.962232 -0.224488
C27   C     C_3   0.729714 0.977483 0.037762 -0.203741
C28   C     C_3   0.270270 0.977396 0.962272 -0.224953
C29   C     C_3   0.770285 0.477846 0.537984 -0.224064
C30   C     C_3   0.229718 0.477472 0.462233 -0.224478
C31   C     C_3   0.229714 0.477485 0.537763 -0.203751
C32   C     C_3   0.770267 0.477094 0.462455 -0.224983
C33   C     C_3   0.229011 0.955949 0.000082 -0.132157
C34   C     C_3   0.770969 0.955947 0.000000 -0.135847
C35   C     C_3   0.729011 0.455952 0.500438 -0.132165
C36   C     C_3   0.270969 0.455947 0.500002 -0.135847
C37   C     C_3   0.189632 0.999816 0.000003 -0.048604
C38   C     C_3   0.810375 0.999803 0.999997 -0.062354
C39   C     C_3   0.689632 0.499816 0.500010 -0.048621
C40   C     C_3   0.310376 0.499803 0.499997 -0.062356
H9    H     H_    0.288735 0.959615 0.068504 0.163865
H10   H     H_    0.711265 0.959488 0.931566 0.165373
H11   H     H_    0.711260 0.959506 0.068432 0.162995
H12   H     H_    0.288718 0.959347 0.931641 0.164903
H13   H     H_    0.788740 0.460168 0.568826 0.163998
H14   H     H_    0.211265 0.459484 0.431569 0.165385
H15   H     H_    0.211260 0.459509 0.568434 0.162987
H16   H     H_    0.788716 0.458802 0.431970 0.164784
H17   H     H_    0.210075 0.920532 0.000151 0.155646
H18   H     H_    0.789882 0.920525 0.000004 0.156110
H19   H     H_    0.710077 0.420536 0.500794 0.155652
H20   H     H_    0.289882 0.420525 0.500009 0.156111
C41   C     C_1   1.000000 0.000010 0.137408 -0.215736
C42   C     C_1   0.999999 0.000007 0.862592 -0.212681
C43   C     C_1   0.499999 0.500010 0.637408 -0.215781
C44   C     C_1   0.499999 0.500007 0.362592 -0.212628
C45   C     C_1   1.000000 0.000014 0.179605 0.008666
C46   C     C_1   0.999998 0.000011 0.820395 0.011239
C47   C     C_1   0.500000 0.500014 0.679605 0.008613
C48   C     C_1   0.499999 0.500011 0.320395 0.011305
C49   C     C_1   0.000001 0.000013 0.229425 0.013150
C50   C     C_1   0.999998 0.000010 0.770575 0.014944
C51   C     C_1   0.500000 0.500013 0.729425 0.013103
C52   C     C_1   0.499998 0.500009 0.270575 0.015005
C53   C     C_1   0.000001 0.000009 0.271622 0.012543
C54   C     C_1   0.999998 0.000006 0.728378 0.013716
C55   C     C_1   0.500001 0.500009 0.771622 0.012502
C56   C     C_1   0.499998 0.500006 0.228378 0.013770
C57   C     C_1   0.000001 0.000002 0.321443 0.010252
C58   C     C_1   0.999998 0.000000 0.678557 0.010896
C59   C     C_1   0.500001 0.500002 0.821443 0.010216
C60   C     C_1   0.499998 0.500000 0.178557 0.010942
C61   C     C_1   0.000002 0.999996 0.363641 -0.194105
C62   C     C_1   0.999998 0.999996 0.636359 -0.193785
C63   C     C_1   0.500001 0.499997 0.863641 -0.194132
C64   C     C_1   0.499998 0.499996 0.136359 -0.193746
O17   O     O_R   0.500000 0.063090 0.964350 -0.587659
O18   O     O_R   0.500000 0.063090 0.035650 -0.585881
O19   O     O_R   0.000000 0.563090 0.464350 -0.587329
O20   O     O_R   0.000000 0.563090 0.535650 -0.586306
C65   C     C_R   0.500008 0.086696 0.000000 1.025808
C66   C     C_R   0.000010 0.586696 0.500000 1.025844
O21   O     O_R   0.406990 0.999940 0.964350 -0.611479
O22   O     O_R   0.593010 0.999940 0.035650 -0.614537
O23   O     O_R   0.593010 0.999940 0.964350 -0.613638
O24   O     O_R   0.406990 0.999940 0.035650 -0.620132
O25   O     O_R   0.906990 0.499940 0.464350 -0.611093
O26   O     O_R   0.093010 0.499940 0.535650 -0.614534
O27   O     O_R   0.093010 0.499940 0.464350 -0.613645
O28   O     O_R   0.906990 0.499940 0.535650 -0.620449
C67   C     C_R   0.377322 0.998429 0.999999 0.960370
C68   C     C_R   0.622679 0.998468 0.999999 0.955808
C69   C     C_R   0.877322 0.498433 0.500000 0.960397
C70   C     C_R   0.122679 0.498468 0.499999 0.955798
Zn5   Zn    Zn3+2 0.500000 0.999950 0.952390 1.019003
Zn6   Zn    Zn3+2 0.500000 0.999950 0.047610 1.008821
Zn7   Zn    Zn3+2 0.000000 0.499950 0.452390 1.019450
Zn8   Zn    Zn3+2 0.000000 0.499950 0.547610 1.008448
O29   O     O_R   0.500000 0.936790 0.964340 -0.612197
O30   O     O_R   0.500000 0.936790 0.035660 -0.612157
O31   O     O_R   0.000000 0.436790 0.464340 -0.612208
O32   O     O_R   0.000000 0.436790 0.535660 -0.612138
C71   C     C_R   0.500000 0.913187 1.000000 0.880462
C72   C     C_R   1.000000 0.413187 0.499999 0.880460
O33   O     O_R   0.052540 0.063140 0.500000 -0.591517
O34   O     O_R   0.947460 0.063140 0.500000 -0.591408
O35   O     O_R   0.552540 0.563140 0.000000 -0.591516
O36   O     O_R   0.447460 0.563140 0.000000 -0.591409
C73   C     C_R   0.000001 0.085663 0.500000 0.876355
C74   C     C_R   0.500001 0.585663 0.000000 0.876352
O37   O     O_R   0.052540 0.999990 0.436840 -0.590767
O38   O     O_R   0.947460 0.999990 0.563160 -0.590543
O39   O     O_R   0.947460 0.999990 0.436840 -0.590550
O40   O     O_R   0.052540 0.999990 0.563160 -0.590578
O41   O     O_R   0.552540 0.499990 0.936840 -0.590777
O42   O     O_R   0.447460 0.499990 0.063160 -0.590533
O43   O     O_R   0.447460 0.499990 0.936840 -0.590557
O44   O     O_R   0.552540 0.499990 0.063160 -0.590565
C75   C     C_R   0.000001 0.999991 0.414313 0.877121
C76   C     C_R   0.999999 0.999991 0.585687 0.877082
C77   C     C_R   0.500000 0.499991 0.914313 0.877105
C78   C     C_R   0.499999 0.499991 0.085687 0.877095
Zn9   Zn    Zn3+2 0.070140 0.999990 0.500000 0.985034
Zn10  Zn    Zn3+2 0.929860 0.999990 0.500000 0.985389
Zn11  Zn    Zn3+2 0.570140 0.499990 0.000000 0.985045
Zn12  Zn    Zn3+2 0.429860 0.499990 0.000000 0.985402
O45   O     O_R   0.052520 0.936840 0.500000 -0.589026
O46   O     O_R   0.947480 0.936840 0.500000 -0.589013
O47   O     O_R   0.552520 0.436840 0.000000 -0.589026
O48   O     O_R   0.447480 0.436840 0.000000 -0.589006
C79   C     C_R   0.999999 0.914301 0.500000 0.877762
C80   C     C_R   0.499999 0.414301 0.000000 0.877762
C81   C     C_1   0.500002 0.137358 0.000002 -0.071774
C82   C     C_1   0.000005 0.637358 0.500002 -0.071669
C83   C     C_1   0.499997 0.179552 0.000005 0.077371
C84   C     C_1   0.999999 0.679552 0.500004 0.077360
C85   C     C_1   0.499993 0.229377 0.000007 0.046346
C86   C     C_1   0.999995 0.729377 0.500006 0.046300
C87   C     C_1   0.999994 0.771580 0.500005 0.033367
C88   C     C_1   0.499993 0.271580 0.000006 0.033388
C89   C     C_1   0.999995 0.821412 0.500004 0.020966
C90   C     C_1   0.499994 0.321412 0.000004 0.020981
C91   C     C_1   0.999996 0.863617 0.500002 -0.188567
C92   C     C_1   0.499996 0.363617 0.000003 -0.188555
C93   C     C_1   0.500001 0.862529 0.999999 -0.212330
C94   C     C_1   0.000001 0.362528 0.499999 -0.212322
C95   C     C_1   0.500001 0.820337 0.999999 0.002799
C96   C     C_1   0.000001 0.320337 0.499999 0.002803
C97   C     C_1   0.500002 0.770524 0.999999 0.009702
C98   C     C_1   0.000002 0.270524 0.499999 0.009705
C99   C     C_1   0.000003 0.228332 0.499999 0.010110
C100  C     C_1   0.500003 0.728332 0.999999 0.010108
C101  C     C_1   0.000003 0.178519 0.499999 0.007799
C102  C     C_1   0.500003 0.678519 0.999999 0.007798
C103  C     C_1   0.000003 0.136326 0.500000 -0.196187
C104  C     C_1   0.500003 0.636326 1.000000 -0.196185
S1    S     S_3+6 0.300748 0.098971 0.999861 0.023457
O49   O     O_2   0.337762 0.106622 0.956786 -0.278083
O50   O     O_2   0.247611 0.132605 0.001706 -0.273633
O51   O     O_3   0.347627 0.106629 0.045452 -0.551426
H21   H     H_    0.322005 0.097445 0.072189 0.346271
S2    S     S_3+6 0.699694 0.099085 0.999954 0.024334
O52   O     O_2   0.659623 0.106059 0.958256 -0.278980
O53   O     O_2   0.661014 0.106948 0.042210 -0.315237
O54   O     O_3   0.759486 0.136454 0.998809 -0.506316
H22   H     H_    0.785623 0.128313 0.025619 0.345727
S3    S     S_3+6 0.800743 0.598967 0.499071 0.023448
O55   O     O_2   0.837794 0.606268 0.455954 -0.277536
O56   O     O_2   0.747603 0.632614 0.500617 -0.273709
O57   O     O_3   0.847579 0.606997 0.544622 -0.552138
H23   H     H_    0.821901 0.598101 0.571426 0.346353
S4    S     S_3+6 0.199694 0.599085 0.499949 0.024325
O58   O     O_2   0.159623 0.606057 0.458251 -0.278941
O59   O     O_2   0.161014 0.606950 0.542205 -0.315302
O60   O     O_3   0.259486 0.636454 0.498802 -0.506315
H24   H     H_    0.285623 0.628315 0.525613 0.345718

loop_
_geom_bond_atom_site_label_1
_geom_bond_atom_site_label_2
_geom_bond_distance
_ccdc_geom_bond_type
C11   C38   1.531527 S    
C59   C63   1.231775 T    
O60   H24   0.990572 S    
C21   C25   1.531814 S    
O33   C73   1.301506 A    
S2    O52   1.502312 D    
O25   C69   1.219491 A    
C47   C51   1.454267 S    
O35   C74   1.301506 A    
C13   H5    1.110214 S    
C19   C23   1.519770 S    
O33   Zn9   1.881351 S    
O3    C3    1.248140 A    
C60   C64   1.231775 T    
C15   H7    1.110215 S    
O38   C76   1.301584 A    
O34   C73   1.301502 A    
C98   C99   1.231569 T    
C66   C82   1.478782 S    
C16   C39   1.531750 S    
C9    H1    1.110224 S    
C95   C97   1.454000 S    
C54   C58   1.454293 S    
C35   H19   1.110237 S    
O7    C3    1.248147 A    
C10   C26   1.548238 S    
O37   C75   1.301584 A    
C31   C36   1.545342 S    
C13   C19   1.535890 S    
C16   C19   1.535723 S    
C11   H3    1.110217 S    
C32   C35   1.545321 S    
C14   C20   1.535667 S    
C36   C40   1.532458 S    
O20   Zn8   1.875811 S    
C15   C31   1.548177 S    
C83   C85   1.454359 S    
O22   Zn6   2.018870 S    
C55   C59   1.454293 S    
O41   Zn11  1.881671 S    
Zn8   O32   1.876318 S    
C7    C39   1.429123 S    
S3    O56   1.502463 D    
C27   C34   1.545341 S    
C52   C56   1.231735 T    
O36   Zn12  1.881320 S    
O17   Zn5   1.875796 S    
O21   C67   1.219466 A    
C64   C78   1.479122 S    
C6    C38   1.429011 S    
O42   C78   1.301584 A    
S2    O54   1.680714 S    
C62   C76   1.479122 S    
O5    Zn3   1.875280 S    
C25   C33   1.545366 S    
C17   S1    1.782206 S    
O16   C8    1.220130 A    
C33   H17   1.110241 S    
S4    O58   1.502313 D    
C28   H12   1.110199 S    
C58   C62   1.231775 T    
C26   H10   1.110188 S    
C13   C29   1.548035 S    
C9    C25   1.548088 S    
C29   C35   1.545375 S    
O57   H23   0.990437 S    
C14   H6    1.110206 S    
Zn9   O45   1.881404 S    
O4    C4    1.248142 A    
C74   C104  1.478837 S    
O38   Zn10  1.881669 S    
O16   Zn4   2.019496 S    
O24   C67   1.219516 A    
Zn6   O30   1.876318 S    
O31   C72   1.248270 A    
O24   Zn6   2.018886 S    
O11   C7    1.219070 A    
C88   C90   1.454575 S    
C25   H9    1.110191 S    
O12   C8    1.219002 A    
O26   Zn8   2.018870 S    
O48   C80   1.301372 A    
C36   H20   1.110232 S    
O9    Zn1   2.019285 S    
C24   C70   1.428506 S    
C81   C83   1.231648 T    
C100  C102  1.454020 S    
C50   C54   1.231735 T    
C82   C84   1.231648 T    
O46   C79   1.301372 A    
C30   C36   1.545353 S    
C24   C30   1.531951 S    
C35   C39   1.532442 S    
C34   C38   1.532458 S    
O45   C79   1.301372 A    
O13   Zn3   2.019522 S    
Zn10  O46   1.881434 S    
O1    C1    1.248140 A    
O19   Zn7   1.875796 S    
C87   C89   1.454575 S    
C46   C50   1.454270 S    
C101  C103  1.231604 T    
C14   C40   1.531575 S    
O22   C68   1.219481 A    
C45   C49   1.454267 S    
S1    O51   1.680934 S    
C72   C94   1.478712 S    
C20   S4    1.782019 S    
C4    C44   1.479000 S    
C18   S2    1.782019 S    
C20   C24   1.519790 S    
C8    C40   1.429011 S    
C19   S3    1.782190 S    
C2    C42   1.479000 S    
C49   C53   1.231738 T    
O13   C5    1.220117 A    
O7    Zn4   1.875280 S    
O51   H21   0.990463 S    
C79   C91   1.479444 S    
O28   C69   1.219491 A    
O40   Zn9   1.881654 S    
O15   C7    1.220117 A    
O27   C70   1.219454 A    
O5    C1    1.248147 A    
C63   C77   1.479122 S    
C24   C31   1.531924 S    
O40   C76   1.301581 A    
O37   Zn9   1.881671 S    
O23   C68   1.219454 A    
C17   C21   1.519777 S    
C53   C57   1.454293 S    
Zn5   O29   1.876334 S    
O6    Zn3   1.875267 S    
O23   Zn5   2.018884 S    
C57   C61   1.231775 T    
O8    C4    1.248145 A    
C97   C100  1.231569 T    
O34   Zn10  1.881320 S    
C80   C92   1.479444 S    
O9    C5    1.219070 A    
C48   C52   1.454270 S    
C12   C17   1.535762 S    
O15   Zn4   2.019522 S    
C10   C38   1.531574 S    
C93   C95   1.231566 T    
O26   C70   1.219481 A    
C33   C37   1.532454 S    
C23   C29   1.531831 S    
O43   Zn12  1.881657 S    
O36   C74   1.301502 A    
C85   C88   1.231876 T    
C86   C87   1.231873 T    
C23   C69   1.428551 S    
O19   C66   1.248079 A    
C22   C68   1.428506 S    
O18   Zn6   1.875811 S    
O2    C2    1.248142 A    
O30   C71   1.248266 A    
C31   H15   1.110187 S    
C30   H14   1.110187 S    
C89   C91   1.231960 T    
O42   Zn12  1.881669 S    
O17   C65   1.248083 A    
C61   C75   1.479122 S    
S2    O53   1.502648 D    
C71   C93   1.478712 S    
C102  C104  1.231604 T    
C5    C37   1.429130 S    
O14   C6    1.220130 A    
C29   H13   1.110185 S    
C34   H18   1.110232 S    
O3    Zn2   1.875840 S    
O14   Zn3   2.019496 S    
C44   C48   1.231732 T    
O20   C66   1.248095 A    
O11   Zn2   2.019285 S    
O12   Zn2   2.019316 S    
O25   Zn7   2.018872 S    
C43   C47   1.231732 T    
O6    C2    1.248145 A    
O4    Zn2   1.875859 S    
O21   Zn5   2.018872 S    
O1    Zn1   1.875840 S    
C9    C37   1.531734 S    
O44   C78   1.301581 A    
C18   C22   1.519790 S    
O47   C80   1.301372 A    
C21   C28   1.531893 S    
C26   C34   1.545353 S    
S1    O49   1.502327 D    
C22   C27   1.531925 S    
O35   Zn11  1.881351 S    
C11   C18   1.535816 S    
O32   C72   1.248266 A    
C3    C43   1.479000 S    
S3    O57   1.680927 S    
O29   C71   1.248270 A    
C84   C86   1.454362 S    
C15   C20   1.535815 S    
C22   C26   1.531950 S    
C13   C39   1.531728 S    
C42   C46   1.231732 T    
O10   C6    1.219002 A    
C73   C103  1.478837 S    
C21   C67   1.428552 S    
O44   Zn11  1.881654 S    
C90   C92   1.231960 T    
C15   C40   1.531527 S    
S4    O60   1.680713 S    
O8    Zn4   1.875267 S    
C56   C60   1.454293 S    
C96   C98   1.454000 S    
C94   C96   1.231566 T    
C32   H16   1.110186 S    
C16   H8    1.110208 S    
O2    Zn1   1.875859 S    
O10   Zn1   2.019316 S    
Zn11  O47   1.881404 S    
C41   C45   1.231735 T    
S1    O50   1.502476 D    
O39   C75   1.301581 A    
C51   C55   1.231738 T    
S3    O55   1.502312 D    
Zn7   O31   1.876334 S    
O41   C77   1.301584 A    
O43   C77   1.301581 A    
C12   H4    1.110220 S    
S4    O59   1.502648 D    
O54   H22   0.990573 S    
C9    C17   1.535872 S    
C14   C30   1.548238 S    
Zn12  O48   1.881434 S    
C16   C32   1.548304 S    
C28   C33   1.545343 S    
C10   H2    1.110208 S    
C65   C81   1.478782 S    
C23   C32   1.531866 S    
O28   Zn8   2.018886 S    
C10   C18   1.535667 S    
C11   C27   1.548175 S    
O27   Zn7   2.018884 S    
C12   C28   1.548268 S    
C27   H11   1.110187 S    
O39   Zn10  1.881657 S    
C1    C41   1.478997 S    
C12   C37   1.531761 S    
C99   C101  1.454020 S    
O18   C65   1.248090 A    
