data_mof_unit_42887.cif
_audit_creation_date              2012-10-26T19:04:40-0400
_audit_creation_method            fapswitch 2.2
_symmetry_space_group_name_H-M    P1
_symmetry_Int_Tables_number       1
_space_group_crystal_system       triclinic
_cell_length_a                    9.601999
_cell_length_b                    10.775964
_cell_length_c                    13.428121
_cell_angle_alpha                 92.428
_cell_angle_beta                  72.423759
_cell_angle_gamma                 90.018827
_cell_volume                      1323.2522712

loop_
_atom_site_label
_atom_site_type_symbol
_atom_type_description
_atom_site_fract_x
_atom_site_fract_y
_atom_site_fract_z
_atom_type_partial_charge
C1    C     C_R   0.498388 0.737423 0.503776 0.545374
C2    C     C_R   0.373913 0.485442 0.814477 -0.006732
C3    C     C_R   0.281586 0.879632 0.670207 -0.108834
C4    C     C_R   0.421653 0.493312 0.699750 0.522076
C5    C     C_R   0.177420 0.948732 0.747683 -0.124204
C6    C     C_R   0.177391 0.077800 0.747565 -0.121068
C7    C     C_R   0.281529 0.138574 0.669944 -0.103405
C8    C     C_R   0.386757 0.070448 0.589424 0.027694
C9    C     C_R   0.386763 0.939168 0.589570 0.026119
C10   C     C_R   0.495512 0.871631 0.510964 0.001202
C11   C     C_R   0.605307 0.932658 0.437337 -0.149327
C12   C     C_R   0.432794 0.474987 0.979218 0.034191
C13   C     C_R   0.605307 0.060653 0.437167 -0.153717
C14   C     C_R   0.495523 0.129544 0.510648 0.004163
C15   C     C_R   0.914592 0.337237 0.359596 -0.094656
C16   C     C_R   0.498599 0.262914 0.503253 0.521620
C17   C     C_R   0.015392 0.257599 0.290513 -0.179073
C18   C     C_R   0.158675 0.256341 0.290988 -0.167100
C19   C     C_R   0.202082 0.334854 0.360422 -0.083711
C20   C     C_R   0.103538 0.419178 0.431295 0.156324
C21   C     C_R   0.954091 0.419761 0.431065 0.155862
C22   C     C_R   0.898401 0.576283 0.565773 -0.001770
C23   C     C_R   0.471057 0.448780 0.869804 0.026328
C24   C     C_R   0.046303 0.576334 0.565688 -0.004988
C25   C     C_R   0.578463 0.497429 0.299990 0.536025
C26   C     C_R   0.787922 0.393916 0.024311 -0.139617
C27   C     C_R   0.622336 0.479570 0.185992 -0.005316
C28   C     C_R   0.231681 0.525657 0.870384 -0.143171
C29   C     C_R   0.187976 0.536092 0.978744 -0.146653
C30   C     C_R   0.287393 0.513677 0.032902 -0.120232
C31   C     C_R   0.541205 0.460454 0.030559 0.028363
C32   C     C_R   0.679589 0.407489 0.974795 0.048988
C33   C     C_R   0.707401 0.366621 0.870811 -0.145500
C34   C     C_R   0.604147 0.385341 0.819412 -0.123803
C35   C     C_R   0.517250 0.499308 0.135348 -0.135390
C36   C     C_R   0.759224 0.429312 0.129642 -0.149589
Cu1   Cu    Cu3+1 0.359340 0.500010 0.500010 0.908089
Cu2   Cu    Cu3+1 0.640660 0.499990 0.499990 0.915453
H1    H     H_    0.841983 0.413485 0.167556 0.121957
H2    H     H_    0.237037 0.193605 0.237404 0.125185
H3    H     H_    0.314088 0.324713 0.354820 0.185462
H4    H     H_    0.809941 0.320592 0.828671 0.107505
H5    H     H_    0.078807 0.638934 0.619542 0.108426
H6    H     H_    0.893776 0.353552 0.982060 0.106705
H7    H     H_    0.416874 0.545241 0.179958 0.125157
H8    H     H_    0.154413 0.551562 0.830225 0.124562
H9    H     H_    0.245820 0.524487 0.116868 0.109641
H10   H     H_    0.077359 0.565655 0.021038 0.122454
H11   H     H_    0.629237 0.346223 0.740536 0.155048
H12   H     H_    0.280225 0.779830 0.675699 0.127168
H13   H     H_    0.689601 0.880676 0.378085 0.128933
H14   H     H_    0.097608 0.901922 0.808890 0.108708
H15   H     H_    0.097531 0.131168 0.808670 0.107442
H16   H     H_    0.279978 0.238892 0.675230 0.140632
H17   H     H_    0.689587 0.106224 0.377772 0.112010
H18   H     H_    0.820562 0.638876 0.619707 0.124173
H19   H     H_    0.807354 0.329953 0.353483 0.177766
H20   H     H_    0.981596 0.195954 0.236534 0.114452
N1    N     N_R   0.852480 0.498790 0.499000 -0.245470
N2    N     N_R   0.148360 0.498710 0.498970 -0.243056
O1    O     O_R   0.381190 0.680360 0.500010 -0.497352
O2    O     O_R   0.618760 0.680340 0.500000 -0.493074
O3    O     O_R   0.323240 0.499990 0.650990 -0.517091
O4    O     O_R   0.560820 0.499960 0.650980 -0.504896
O5    O     O_R   0.381240 0.319660 0.500000 -0.524627
O6    O     O_R   0.618810 0.319640 0.499990 -0.521160
O7    O     O_R   0.439180 0.500040 0.349020 -0.519715
O8    O     O_R   0.676760 0.500010 0.349010 -0.516963

loop_
_geom_bond_atom_site_label_1
_geom_bond_atom_site_label_2
_ccdc_geom_bond_type
Cu1   O1    S    
C5    H14   S    
C26   C32   A    
Cu1   Cu2   S    
C3    C9    A    
C27   C36   A    
C25   C27   S    
C29   C30   A    
C15   H19   S    
C9    C10   A    
C4    O4    A    
C2    C4    S    
C19   C20   A    
C25   O7    A    
C17   H20   S    
C24   N2    A    
C23   C34   A    
C27   C35   A    
C32   C33   A    
C2    C23   A    
C17   C18   A    
C3    C5    A    
C26   H6    S    
C7    C8    A    
C31   C32   A    
C13   C14   A    
C1    O2    A    
C11   C13   A    
C12   C23   A    
C28   H8    S    
C6    C7    A    
C25   O8    A    
C11   H13   S    
C33   H4    S    
Cu1   O7    S    
C22   C24   A    
C4    O3    A    
C28   C29   A    
Cu1   O3    S    
C3    H12   S    
Cu2   O8    S    
C21   N1    A    
C31   C35   A    
C12   C31   A    
C5    C6    A    
C24   H5    S    
C14   C16   S    
Cu1   N2    S    
C16   O6    A    
C10   C11   A    
C6    H15   S    
Cu2   N1    S    
C35   H7    S    
Cu2   O6    S    
C30   H9    S    
C15   C21   A    
C33   C34   A    
C20   C21   A    
C18   C19   A    
C26   C36   A    
C22   N1    A    
C15   C17   A    
Cu2   O4    S    
C18   H2    S    
C2    C28   A    
C34   H11   S    
C22   H18   S    
C16   O5    A    
C8    C14   A    
C7    H16   S    
C12   C30   A    
C20   N2    A    
C29   H10   S    
C36   H1    S    
C1    C10   S    
C19   H3    S    
Cu1   O5    S    
Cu2   O2    S    
C8    C9    A    
C13   H17   S    
C1    O1    A    
