data_mof_unit_8524.cif
_audit_creation_date              2013-03-05T16:01:11-0500
_audit_creation_method            fapswitch 2.2
_symmetry_space_group_name_H-M    P1
_symmetry_Int_Tables_number       1
_space_group_crystal_system       triclinic
_cell_length_a                    7.22833
_cell_length_b                    38.206232
_cell_length_c                    40.082085
_cell_angle_alpha                 90.028085
_cell_angle_beta                  89.922565
_cell_angle_gamma                 89.82073
_cell_volume                      11069.293662

loop_
_atom_site_label
_atom_site_type_symbol
_atom_site_description
_atom_site_fract_x
_atom_site_fract_y
_atom_site_fract_z
_atom_type_partial_charge
O1    O     O_R   0.564240 0.782760 0.216890 -0.595637
O2    O     O_R   0.435760 0.217240 0.783110 -0.582167
O3    O     O_R   0.435760 0.217240 0.716890 -0.592038
O4    O     O_R   0.564240 0.782760 0.283110 -0.583450
O5    O     O_R   0.064240 0.717240 0.283110 -0.597504
O6    O     O_R   0.935760 0.282760 0.716890 -0.581519
O7    O     O_R   0.935760 0.282760 0.783110 -0.592953
O8    O     O_R   0.064240 0.717240 0.216890 -0.581866
O9    O     O_R   0.234510 0.787070 0.282870 -0.594898
O10   O     O_R   0.765490 0.212930 0.717130 -0.583510
O11   O     O_R   0.765490 0.212930 0.782870 -0.590631
O12   O     O_R   0.234510 0.787070 0.217130 -0.582875
O13   O     O_R   0.734510 0.712930 0.217130 -0.588344
O14   O     O_R   0.265490 0.287070 0.782870 -0.583793
O15   O     O_R   0.265490 0.287070 0.717130 -0.590451
O16   O     O_R   0.734510 0.712930 0.282870 -0.587255
C1    C     C_R   0.404038 0.796314 0.293054 0.946097
C2    C     C_R   0.597880 0.204243 0.706480 0.941392
C3    C     C_R   0.595955 0.204018 0.793166 0.941844
C4    C     C_R   0.402305 0.795718 0.206510 0.943771
C5    C     C_R   0.904407 0.703996 0.206860 0.939861
C6    C     C_R   0.097301 0.295710 0.793474 0.943201
C7    C     C_R   0.095708 0.295979 0.706817 0.940796
C8    C     C_R   0.902825 0.703864 0.293216 0.950355
O17   O     O_3   0.397750 0.727090 0.250000 -0.279383
O18   O     O_3   0.602250 0.272910 0.750000 -0.279595
O19   O     O_3   0.897750 0.772910 0.250000 -0.278786
O20   O     O_3   0.102250 0.227090 0.750000 -0.279785
V1    V     V_3+5 0.122890 0.754250 0.250000 1.169590
V2    V     V_3+5 0.877110 0.245750 0.750000 1.171984
V3    V     V_3+5 0.622890 0.745750 0.250000 1.167813
V4    V     V_3+5 0.377110 0.254250 0.750000 1.171409
C9    C     C_R   0.874988 0.605621 0.425295 0.480826
C10   C     C_R   0.963106 0.390401 0.573867 0.476789
C11   C     C_R   0.100207 0.391242 0.928159 0.485605
C12   C     C_R   0.011788 0.607938 0.074401 0.476637
C13   C     C_R   0.380643 0.891470 0.071233 0.536654
C14   C     C_R   0.481858 0.108323 0.925830 0.477288
C15   C     C_R   0.626265 0.110287 0.570749 0.482440
C16   C     C_R   0.578755 0.895361 0.420892 0.524567
O21   O     O_2   0.830473 0.639365 0.431350 -0.570994
O22   O     O_2   0.916516 0.356561 0.569359 -0.585125
O23   O     O_2   0.153502 0.357997 0.934382 -0.573692
O24   O     O_2   0.056348 0.641767 0.069154 -0.581299
O25   O     O_2   0.321822 0.858670 0.064783 -0.577338
O26   O     O_2   0.436292 0.142161 0.931062 -0.582966
O27   O     O_2   0.675016 0.143873 0.565308 -0.575703
O28   O     O_2   0.625077 0.861492 0.425739 -0.577838
N1    N     N_R   0.908373 0.594713 0.393144 -0.168793
N2    N     N_R   0.025788 0.401508 0.604461 -0.167775
N3    N     N_R   0.062972 0.401551 0.896001 -0.169077
N4    N     N_R   0.957143 0.597126 0.105600 -0.168228
N5    N     N_R   0.418072 0.901456 0.103498 -0.163971
N6    N     N_R   0.538932 0.097544 0.894724 -0.168132
N7    N     N_R   0.585143 0.099261 0.602561 -0.168757
N8    N     N_R   0.521932 0.906436 0.389906 -0.160311
C17   C     C_R   0.942114 0.560015 0.386465 0.599273
C18   C     C_R   0.065592 0.436206 0.609699 0.590417
C19   C     C_R   0.019784 0.435815 0.889120 0.596926
C20   C     C_R   0.919135 0.562484 0.111524 0.594855
C21   C     C_R   0.464255 0.935559 0.110464 0.569559
C22   C     C_R   0.576839 0.062843 0.888772 0.592989
C23   C     C_R   0.545764 0.064687 0.608601 0.597115
C24   C     C_R   0.488811 0.941338 0.384117 0.574034
C25   C     C_R   0.788686 0.619516 0.339480 0.391201
C26   C     C_R   0.949475 0.378705 0.661405 0.393190
C27   C     C_R   0.193266 0.378912 0.842309 0.390998
C28   C     C_R   0.045576 0.620766 0.161650 0.389311
C29   C     C_R   0.301628 0.879398 0.158632 0.381842
C30   C     C_R   0.454131 0.121114 0.838473 0.391401
C31   C     C_R   0.703789 0.121323 0.657353 0.388209
C32   C     C_R   0.579239 0.880155 0.333241 0.379718
C33   C     C_R   0.795755 0.645732 0.314777 -0.301342
C34   C     C_R   0.976322 0.353392 0.686483 -0.282513
C35   C     C_R   0.192557 0.353518 0.816847 -0.294385
C36   C     C_R   0.023761 0.646558 0.186466 -0.284738
C37   C     C_R   0.308924 0.854043 0.184085 -0.292612
C38   C     C_R   0.477463 0.146683 0.813543 -0.284741
C39   C     C_R   0.697270 0.146476 0.683059 -0.289661
C40   C     C_R   0.540629 0.853612 0.309812 -0.290177
C41   C     C_R   0.020556 0.677659 0.347137 0.131772
C42   C     C_R   0.160851 0.318368 0.648707 0.122993
C43   C     C_R   0.989704 0.317096 0.849818 0.131636
C44   C     C_R   0.834759 0.681208 0.149154 0.123176
C45   C     C_R   0.497257 0.816497 0.149156 0.084060
C46   C     C_R   0.665388 0.181233 0.850890 0.124613
C47   C     C_R   0.495777 0.182872 0.649679 0.130422
C48   C     C_R   0.334337 0.825291 0.348836 0.097888
C49   C     C_R   0.043566 0.648610 0.368434 0.200340
C50   C     C_R   0.171757 0.347006 0.626459 0.212632
C51   C     C_R   0.951736 0.345784 0.871016 0.206035
C52   C     C_R   0.816643 0.651934 0.127817 0.219700
C53   C     C_R   0.522651 0.844409 0.126525 0.191311
C54   C     C_R   0.680525 0.152291 0.872692 0.213093
C55   C     C_R   0.463713 0.154310 0.627997 0.208690
C56   C     C_R   0.354663 0.853664 0.371062 0.179086
C57   C     C_R   0.915242 0.620582 0.366579 -0.055013
C58   C     C_R   0.051064 0.376073 0.631076 -0.056014
C59   C     C_R   0.067600 0.375700 0.869427 -0.052529
C60   C     C_R   0.937704 0.622907 0.132054 -0.057964
C61   C     C_R   0.415414 0.875343 0.129928 -0.014828
C62   C     C_R   0.559921 0.123314 0.868309 -0.056517
C63   C     C_R   0.582374 0.124641 0.629645 -0.052913
C64   C     C_R   0.483799 0.880471 0.364248 -0.013775
C65   C     C_R   0.921337 0.546400 0.445652 -0.055868
C66   C     C_R   0.983889 0.449603 0.552214 -0.055551
C67   C     C_R   0.043196 0.450315 0.948047 -0.055454
C68   C     C_R   0.988669 0.548438 0.053641 -0.056456
C69   C     C_R   0.442211 0.950388 0.051611 -0.059051
C70   C     C_R   0.503622 0.048739 0.946463 -0.056097
C71   C     C_R   0.582826 0.051300 0.549584 -0.055125
C72   C     C_R   0.556217 0.954717 0.442221 -0.055686
C73   C     C_R   0.891812 0.582133 0.452164 -0.056000
C74   C     C_R   0.951078 0.413808 0.546846 -0.050815
C75   C     C_R   0.079981 0.414889 0.954844 -0.053996
C76   C     C_R   0.018258 0.584210 0.047585 -0.051269
C77   C     C_R   0.403806 0.915112 0.044651 -0.065529
C78   C     C_R   0.474053 0.084540 0.952582 -0.051452
C79   C     C_R   0.615094 0.087001 0.543575 -0.053038
C80   C     C_R   0.585959 0.918853 0.447908 -0.065516
C81   C     C_R   0.882246 0.593699 0.485300 -0.080433
C82   C     C_R   0.908021 0.402141 0.514640 -0.090391
C83   C     C_R   0.094956 0.403840 0.988058 -0.083134
C84   C     C_R   0.053171 0.595522 0.014943 -0.087835
C85   C     C_R   0.389426 0.904220 0.011368 -0.083256
C86   C     C_R   0.437913 0.095814 0.985223 -0.088602
C87   C     C_R   0.634981 0.098666 0.510626 -0.084241
C88   C     C_R   0.619548 0.907148 0.480469 -0.093590
C89   C     C_R   0.939596 0.535041 0.412396 -0.087019
C90   C     C_R   0.035908 0.461070 0.584220 -0.083562
C91   C     C_R   0.018962 0.461092 0.914763 -0.082915
C92   C     C_R   0.944227 0.537321 0.086141 -0.083867
C93   C     C_R   0.466155 0.960959 0.084946 -0.080581
C94   C     C_R   0.549638 0.037641 0.914006 -0.083096
C95   C     C_R   0.553839 0.039857 0.582546 -0.083821
C96   C     C_R   0.514751 0.966244 0.409729 -0.088713
C97   C     C_R   0.910022 0.675102 0.318351 -0.252150
C98   C     C_R   0.082022 0.323235 0.680548 -0.261497
C99   C     C_R   0.090080 0.322628 0.820149 -0.266727
C100  C     C_R   0.917874 0.676698 0.180642 -0.265331
C101  C     C_R   0.407621 0.822708 0.179869 -0.237340
C102  C     C_R   0.583324 0.176703 0.819341 -0.262456
C103  C     C_R   0.592968 0.177282 0.679687 -0.267452
C104  C     C_R   0.420201 0.825903 0.317228 -0.221347
H1    H     H_    0.858020 0.621039 0.491051 0.171266
H2    H     H_    0.880520 0.374745 0.509829 0.169145
H3    H     H_    0.124484 0.376741 0.994011 0.169810
H4    H     H_    0.077802 0.622905 0.009596 0.169818
H5    H     H_    0.358726 0.877231 0.005276 0.168346
H6    H     H_    0.413378 0.123223 0.990626 0.169689
H7    H     H_    0.661342 0.125987 0.505263 0.169592
H8    H     H_    0.644876 0.879701 0.485532 0.169601
C105  C     C_R   0.976201 0.510297 0.532067 0.038859
C106  C     C_R   0.940991 0.485695 0.465548 0.038198
C107  C     C_R   0.996887 0.487488 0.034244 0.038858
C108  C     C_R   0.017335 0.511163 0.967248 0.038358
C109  C     C_R   0.493048 0.987745 0.965623 0.038160
C110  C     C_R   0.470860 0.011238 0.032676 0.037791
C111  C     C_R   0.558233 0.015427 0.462526 0.037904
C112  C     C_R   0.569809 0.990679 0.529268 0.037400
C113  C     C_R   0.937261 0.461528 0.492543 0.042617
C114  C     C_R   0.940661 0.534407 0.505789 0.042265
C115  C     C_R   0.023641 0.535753 0.993856 0.043137
C116  C     C_R   0.030549 0.463106 0.008093 0.042821
C117  C     C_R   0.465957 0.035934 0.006154 0.042989
C118  C     C_R   0.457424 0.963357 0.991632 0.042630
C119  C     C_R   0.583279 0.966562 0.502303 0.042131
C120  C     C_R   0.583984 0.039478 0.489260 0.042276
C121  C     C_R   0.965476 0.473892 0.525536 0.087370
C122  C     C_R   0.933937 0.522079 0.472410 0.089317
C123  C     C_R   0.003165 0.523812 0.027170 0.087798
C124  C     C_R   0.030414 0.474942 0.974543 0.088963
C125  C     C_R   0.487441 0.024059 0.972823 0.087704
C126  C     C_R   0.456808 0.975075 0.025227 0.090682
C127  C     C_R   0.566445 0.978992 0.469083 0.088979
C128  C     C_R   0.579071 0.027072 0.522622 0.088838
C129  C     C_R   0.025304 0.521220 0.564580 -0.199022
C130  C     C_R   0.954740 0.474864 0.431886 -0.199944
C131  C     C_R   0.954792 0.476920 0.067190 -0.199550
C132  C     C_R   0.996082 0.521410 0.933573 -0.200473
C133  C     C_R   0.536426 0.977190 0.932704 -0.199633
C134  C     C_R   0.491652 0.021308 0.066410 -0.203122
C135  C     C_R   0.521273 0.026419 0.429498 -0.200064
C136  C     C_R   0.544042 0.979777 0.562663 -0.200190
C137  C     C_R   0.058618 0.496975 0.589934 -0.044435
C138  C     C_R   0.958239 0.499173 0.405898 -0.042220
C139  C     C_R   0.924772 0.501461 0.092452 -0.042937
C140  C     C_R   0.992700 0.496709 0.907924 -0.038740
C141  C     C_R   0.568531 0.001754 0.907592 -0.043253
C142  C     C_R   0.493797 0.996487 0.091953 -0.035657
C143  C     C_R   0.495868 0.002214 0.403792 -0.047431
C144  C     C_R   0.532037 0.004009 0.588664 -0.040129
O29   O     O_2   0.132874 0.446686 0.639434 -0.495384
O30   O     O_2   0.978558 0.549680 0.354946 -0.492158
O31   O     O_2   0.858428 0.552356 0.141847 -0.493973
O32   O     O_2   0.978246 0.445454 0.857629 -0.492834
O33   O     O_2   0.639469 0.052684 0.858554 -0.494870
O34   O     O_2   0.508949 0.944911 0.141886 -0.493093
O35   O     O_2   0.429305 0.951937 0.353875 -0.496934
O36   O     O_2   0.499653 0.054287 0.639666 -0.492992
C145  C     C_R   0.910420 0.570449 0.511637 -0.201277
C146  C     C_R   0.905267 0.425397 0.487830 -0.201037
C147  C     C_R   0.066396 0.427310 0.014238 -0.200228
C148  C     C_R   0.051657 0.571887 0.988433 -0.201133
C149  C     C_R   0.420270 0.927681 0.985306 -0.198316
C150  C     C_R   0.438325 0.072102 0.011668 -0.200738
C151  C     C_R   0.615529 0.075531 0.483917 -0.201116
C152  C     C_R   0.614054 0.930402 0.507288 -0.196916
H9    H     H_    0.905679 0.356155 0.710205 0.187609
H10   H     H_    0.703536 0.644278 0.293541 0.194713
H11   H     H_    0.097591 0.644098 0.209862 0.188876
H12   H     H_    0.280158 0.356915 0.795141 0.194546
H13   H     H_    0.404338 0.144194 0.790084 0.188508
H14   H     H_    0.229148 0.857884 0.206706 0.192878
H15   H     H_    0.612736 0.853507 0.286091 0.188068
H16   H     H_    0.782351 0.143014 0.705051 0.193979
H17   H     H_    0.099445 0.506587 0.614255 0.179081
H18   H     H_    0.973291 0.489645 0.380578 0.178444
H19   H     H_    0.889599 0.492123 0.117165 0.178967
H20   H     H_    0.972585 0.505764 0.882578 0.179385
H21   H     H_    0.604779 0.992423 0.882904 0.178928
H22   H     H_    0.513771 0.005391 0.117352 0.180165
H23   H     H_    0.463269 0.011891 0.379085 0.178708
H24   H     H_    0.508608 0.994417 0.613738 0.179169
H25   H     H_    0.046591 0.548417 0.570705 0.134346
H26   H     H_    0.971287 0.447713 0.425048 0.133838
H27   H     H_    0.936826 0.449758 0.073781 0.134191
H28   H     H_    0.974077 0.548356 0.926519 0.134508
H29   H     H_    0.553886 0.950005 0.926046 0.134224
H30   H     H_    0.514324 0.048184 0.073580 0.134981
H31   H     H_    0.503012 0.053653 0.423151 0.133734
H32   H     H_    0.524835 0.952629 0.569185 0.134380
H33   H     H_    0.901620 0.581152 0.536513 0.134574
H34   H     H_    0.871155 0.414611 0.463731 0.133385
H35   H     H_    0.080034 0.417034 0.039192 0.134128
H36   H     H_    0.079859 0.582386 0.963966 0.133936
H37   H     H_    0.407189 0.917534 0.960289 0.133608
H38   H     H_    0.409495 0.082566 0.036151 0.134041
H39   H     H_    0.632402 0.086324 0.459230 0.133494
H40   H     H_    0.640431 0.919582 0.531694 0.133445
N9    N     N_2   0.076353 0.710944 0.358875 -0.116423
H41   H     H_    0.139012 0.726073 0.341037 0.181303
C153  C     C_3   0.931403 0.729011 0.377174 -0.870716
H42   H     H_    0.984726 0.753629 0.388063 0.257369
H43   H     H_    0.880498 0.712437 0.398037 0.289647
H44   H     H_    0.814154 0.735551 0.360336 0.231807
N10   N     N_2   0.207789 0.284070 0.637289 -0.116291
H45   H     H_    0.210879 0.265419 0.655724 0.156974
C154  C     C_3   0.098491 0.271909 0.609286 -0.832587
H46   H     H_    0.141899 0.245029 0.602269 0.254383
H47   H     H_    0.118463 0.288820 0.587106 0.285678
H48   H     H_    0.949394 0.271452 0.616103 0.240042
N11   N     N_2   0.950351 0.282374 0.860867 -0.118263
H49   H     H_    0.972427 0.263276 0.843210 0.157565
C155  C     C_3   0.039455 0.272750 0.891966 -0.838842
H50   H     H_    0.008219 0.245085 0.898090 0.252781
H51   H     H_    0.988202 0.289121 0.912901 0.286652
H52   H     H_    0.192004 0.275602 0.889713 0.244538
N12   N     N_2   0.788435 0.715525 0.137546 -0.116882
H53   H     H_    0.811092 0.734906 0.154846 0.149968
C156  C     C_3   0.869946 0.725446 0.105839 -0.819007
H54   H     H_    0.841046 0.753511 0.100773 0.240401
H55   H     H_    0.809983 0.710170 0.085023 0.279701
H56   H     H_    0.022392 0.721579 0.106454 0.251184
N13   N     N_2   0.539275 0.781693 0.138872 -0.123239
H57   H     H_    0.556567 0.764377 0.158169 0.177585
C157  C     C_3   0.409233 0.767770 0.114812 -0.910096
H58   H     H_    0.270877 0.764619 0.126561 0.248740
H59   H     H_    0.457946 0.741868 0.105888 0.266858
H60   H     H_    0.396321 0.785209 0.092782 0.282593
N14   N     N_2   0.710680 0.215458 0.862561 -0.116940
H61   H     H_    0.709668 0.234396 0.844380 0.156612
C158  C     C_3   0.603954 0.226956 0.891237 -0.833760
H62   H     H_    0.644502 0.253952 0.898235 0.254708
H63   H     H_    0.629752 0.209912 0.913138 0.286654
H64   H     H_    0.453830 0.226917 0.885231 0.241347
N15   N     N_2   0.453503 0.217614 0.638899 -0.118396
H65   H     H_    0.473607 0.236582 0.656720 0.156971
C159  C     C_3   0.541829 0.227772 0.607866 -0.835313
H66   H     H_    0.509657 0.255547 0.602216 0.252474
H67   H     H_    0.490701 0.211804 0.586716 0.285869
H68   H     H_    0.694468 0.224849 0.609911 0.244920
N16   N     N_2   0.250393 0.794331 0.360795 -0.124130
H69   H     H_    0.161181 0.782943 0.344115 0.183159
C160  C     C_3   0.381734 0.770358 0.375964 -0.945415
H70   H     H_    0.460483 0.756101 0.356356 0.239217
H71   H     H_    0.308371 0.751247 0.391900 0.275117
H72   H     H_    0.480361 0.784573 0.392344 0.283856
N17   N     N_2   0.189926 0.648442 0.392631 -0.087970
H73   H     H_    0.197695 0.626494 0.407439 0.181021
C161  C     C_3   0.371812 0.658302 0.380552 -0.775362
H74   H     H_    0.402742 0.644961 0.356560 0.254989
H75   H     H_    0.478880 0.650686 0.399064 0.269667
H76   H     H_    0.381582 0.686992 0.377170 0.238790
N18   N     N_2   0.298864 0.345590 0.599030 -0.104296
H77   H     H_    0.286406 0.365038 0.581446 0.178829
C162  C     C_3   0.490995 0.340242 0.607966 -0.808481
H78   H     H_    0.542466 0.363037 0.622324 0.278306
H79   H     H_    0.574889 0.337373 0.584926 0.277534
H80   H     H_    0.510060 0.316184 0.623030 0.241914
N19   N     N_2   0.801035 0.343838 0.894206 -0.099421
H81   H     H_    0.790127 0.364178 0.910924 0.185292
C163  C     C_3   0.622700 0.335826 0.879615 -0.818699
H82   H     H_    0.585031 0.356061 0.860939 0.269746
H83   H     H_    0.515095 0.335380 0.899423 0.267847
H84   H     H_    0.623997 0.309812 0.867356 0.241754
N20   N     N_2   0.679058 0.652150 0.102136 -0.103883
H85   H     H_    0.684410 0.631790 0.085356 0.180141
C164  C     C_3   0.491311 0.658128 0.113528 -0.823329
H86   H     H_    0.448235 0.636745 0.130506 0.278733
H87   H     H_    0.396596 0.658818 0.091777 0.278085
H88   H     H_    0.478270 0.683422 0.126866 0.245446
N21   N     N_2   0.652312 0.841113 0.099753 -0.109502
H89   H     H_    0.681503 0.815888 0.092300 0.197855
C165  C     C_3   0.819451 0.861351 0.104027 -0.796249
H90   H     H_    0.908404 0.858483 0.081577 0.262947
H91   H     H_    0.897530 0.851862 0.126143 0.251975
H92   H     H_    0.786523 0.889540 0.107165 0.269996
N22   N     N_2   0.812243 0.153165 0.899375 -0.101922
H93   H     H_    0.805535 0.132917 0.916226 0.179898
C166  C     C_3   0.002001 0.159626 0.889486 -0.810621
H94   H     H_    0.051439 0.138416 0.872778 0.276175
H95   H     H_    0.091204 0.160400 0.911981 0.277063
H96   H     H_    0.016163 0.185056 0.876479 0.241726
N23   N     N_2   0.315725 0.156121 0.604307 -0.100245
H97   H     H_    0.309547 0.136018 0.587265 0.184388
C167  C     C_3   0.134738 0.163292 0.618403 -0.819854
H98   H     H_    0.097410 0.142604 0.636602 0.272426
H99   H     H_    0.029527 0.163793 0.598237 0.270420
H100  H     H_    0.131404 0.189037 0.631145 0.241816
N24   N     N_2   0.252203 0.854481 0.401521 -0.112421
H101  H     H_    0.226042 0.830449 0.412168 0.211405
C168  C     C_3   0.089777 0.876610 0.400673 -0.786251
H102  H     H_    0.027247 0.877934 0.425962 0.250570
H103  H     H_    0.986248 0.865632 0.383101 0.272417
H104  H     H_    0.126785 0.903610 0.392938 0.264673
N25   N     N_R   0.817832 0.406472 0.667087 0.256020
O37   O     O_R   0.718912 0.418886 0.642687 -0.402944
O38   O     O_R   0.781114 0.416770 0.697343 -0.316278
N26   N     N_R   0.650136 0.592629 0.336993 0.251633
O39   O     O_R   0.571049 0.580225 0.363651 -0.406935
O40   O     O_R   0.585936 0.583535 0.307945 -0.320801
N27   N     N_R   0.177211 0.592917 0.166956 0.254701
O41   O     O_R   0.269072 0.579485 0.142092 -0.403771
O42   O     O_R   0.220973 0.583481 0.197134 -0.316642
N28   N     N_R   0.323201 0.407337 0.840443 0.251250
O43   O     O_R   0.400135 0.419526 0.867370 -0.405001
O44   O     O_R   0.383309 0.418082 0.811604 -0.318991
N29   N     N_R   0.322090 0.093505 0.833125 0.254893
O45   O     O_R   0.226893 0.080810 0.857869 -0.404378
O46   O     O_R   0.281133 0.083654 0.802945 -0.317162
N30   N     N_R   0.175568 0.908445 0.162036 0.259059
O47   O     O_R   0.092696 0.921443 0.136023 -0.406562
O48   O     O_R   0.126175 0.919330 0.191514 -0.309286
N31   N     N_R   0.719221 0.905644 0.325449 0.260072
O49   O     O_R   0.822867 0.918807 0.348773 -0.403271
O50   O     O_R   0.756714 0.913167 0.294509 -0.314918
N32   N     N_R   0.835327 0.093036 0.659632 0.251763
O51   O     O_R   0.916866 0.081021 0.633000 -0.405157
O52   O     O_R   0.891466 0.082132 0.688672 -0.318333

loop_
_geom_bond_atom_site_label_1
_geom_bond_atom_site_label_2
_geom_bond_distance
_ccdc_geom_bond_type
C155  H51   1.108950 S    
C106  C113  1.423038 A    
C161  H74   1.110298 S    
C10   O22   1.349178 S    
C70   C78   1.405151 A    
N25   O37   1.301116 A    
C21   C93   1.410355 A    
O15   V4    1.989289 S    
C163  H83   1.110850 S    
C168  H102  1.110330 S    
O16   V3    1.989286 S    
C19   C91   1.410012 A    
N14   H61   1.027208 S    
C158  H64   1.111845 S    
C106  C122  1.417694 A    
C66   C90   1.407436 A    
C87   C151  1.395506 A    
C7    C98   1.484420 S    
C110  C126  1.417386 A    
C11   C75   1.406927 A    
C76   C84   1.400955 A    
C20   C92   1.410586 A    
N6    C62   1.454273 S    
C37   H14   1.083544 S    
C140  H20   1.083236 S    
C35   H12   1.083434 S    
C118  C126  1.418829 A    
C75   C83   1.401019 A    
C69   C93   1.406708 A    
N26   O39   1.301397 A    
C53   C61   1.417799 A    
C72   C80   1.405098 A    
N19   H81   1.028627 S    
C6    C99   1.483945 S    
C32   N31   1.440610 S    
C13   N5    1.375607 A    
C10   N2    1.375219 A    
C146  H34   1.079119 S    
C34   C98   1.400554 A    
O10   V2    1.991656 S    
C163  H82   1.109985 S    
C29   N30   1.440039 S    
N30   O47   1.301131 A    
O12   C4    1.327666 A    
C30   C62   1.422957 A    
O13   C5    1.337912 A    
C150  H38   1.079253 S    
C85   H5    1.083250 S    
O6    V2    1.986066 S    
C56   C64   1.414387 A    
C11   N3    1.374680 A    
C12   O24   1.349499 S    
C13   O25   1.349575 S    
C143  H23   1.083206 S    
C15   O27   1.349518 S    
C168  H104  1.110715 S    
C16   O28   1.349807 S    
O1    C4    1.336487 A    
O2    C3    1.325246 A    
N12   C156  1.451127 S    
C52   N20   1.432271 S    
C29   C61   1.421485 A    
O7    C6    1.336237 A    
C43   C51   1.412506 A    
C18   O29   1.348926 S    
C83   C147  1.394685 A    
C81   C145  1.394747 A    
C160  H71   1.106485 S    
C108  C132  1.414026 A    
C82   C146  1.394804 A    
C33   C97   1.402826 A    
O10   C2    1.328152 A    
C85   C149  1.395004 A    
C108  C124  1.417438 A    
C159  H67   1.108689 S    
C37   C101  1.401742 A    
C95   C144  1.400871 A    
N1    C57   1.454051 S    
C130  C138  1.396190 A    
C13   C77   1.407324 A    
C54   C62   1.422234 A    
C148  H36   1.079167 S    
C166  H94   1.108962 S    
C49   C57   1.420912 A    
C134  C142  1.395939 A    
N20   C164  1.448680 S    
C110  C117  1.422122 A    
O17   V3    1.778738 S    
N10   C154  1.450550 S    
N22   C166  1.449197 S    
O18   V4    1.778739 S    
N29   O45   1.301191 A    
O12   V1    1.991026 S    
O19   V1    1.774652 S    
C29   C37   1.408118 A    
C71   C95   1.407466 A    
C31   C39   1.409240 A    
N18   C162  1.448591 S    
C138  H18   1.083223 S    
C154  H46   1.108906 S    
C1    C104  1.493496 S    
O8    V1    1.985906 S    
C65   C73   1.405430 A    
C2    C103  1.488247 S    
C161  H75   1.111093 S    
C18   C90   1.411262 A    
C46   N14   1.427689 S    
C142  H22   1.083223 S    
C156  H54   1.110652 S    
C157  H60   1.110302 S    
N21   C165  1.446755 S    
C26   C34   1.408456 A    
O1    V3    1.984943 S    
N1    C17   1.373313 A    
O2    V4    1.984940 S    
N9    H41   1.025505 S    
N23   C167  1.449595 S    
N4    C20   1.373317 A    
C87   H7    1.083241 S    
C45   C53   1.412607 A    
C134  H30   1.079230 S    
C39   C103  1.402427 A    
C40   C104  1.404386 A    
C53   N21   1.429028 S    
N8    C24   1.373960 A    
C118  C149  1.412932 A    
C11   O23   1.349624 S    
C12   N4    1.375023 A    
C55   N23   1.432843 S    
C113  C121  1.419240 A    
C166  H96   1.107814 S    
C82   H2    1.083261 S    
N15   H65   1.028062 S    
C26   N25   1.440712 S    
C162  H79   1.109295 S    
N23   H97   1.028743 S    
C72   C96   1.407393 A    
C55   C63   1.420954 A    
C158  H62   1.109188 S    
C164  H87   1.109536 S    
C130  H26   1.079051 S    
C105  C129  1.414244 A    
N2    C58   1.454709 S    
C34   H9    1.083617 S    
C71   C128  1.422938 A    
C113  C146  1.413039 A    
O11   V2    1.991023 S    
C45   C101  1.410042 A    
C167  H99   1.110680 S    
N4    C60   1.453225 S    
C47   C55   1.414562 A    
C28   C60   1.422708 A    
N24   C168  1.445098 S    
N28   O44   1.301424 A    
C153  H44   1.112018 S    
N17   H73   1.029017 S    
N32   O52   1.301436 A    
N13   C157  1.449693 S    
C49   N17   1.436198 S    
C39   H16   1.083433 S    
N31   O50   1.301514 A    
N27   O42   1.301503 A    
C116  C124  1.418980 A    
C27   C35   1.407828 A    
C12   C76   1.406404 A    
C135  H31   1.079019 S    
C119  C127  1.419131 A    
C120  C128  1.419423 A    
C31   C63   1.421876 A    
C165  H92   1.109311 S    
C4    C101  1.485364 S    
C22   O33   1.348932 S    
C112  C136  1.414281 A    
C156  H56   1.111641 S    
C157  H58   1.111741 S    
C27   C59   1.421174 A    
C8    C97   1.492010 S    
C28   C36   1.408181 A    
C88   C152  1.394718 A    
C9    C73   1.407344 A    
C17   O30   1.348840 S    
C119  C152  1.412988 A    
O14   C6    1.327985 A    
C32   C40   1.410565 A    
C35   C99   1.401571 A    
C86   H6    1.083258 S    
C15   C79   1.408611 A    
C158  H63   1.108905 S    
C131  H27   1.079177 S    
C68   C92   1.407412 A    
C70   C94   1.407206 A    
C129  H25   1.079118 S    
C30   N29   1.440921 S    
C73   C81   1.401064 A    
C51   N19   1.433171 S    
N16   H69   1.027027 S    
C44   C52   1.414117 A    
C51   C59   1.420500 A    
C77   C85   1.401315 A    
C155  H50   1.109061 S    
C20   O31   1.348921 S    
C79   C87   1.401388 A    
C165  H91   1.111812 S    
C48   C56   1.410905 A    
C44   N12   1.430366 S    
C43   C99   1.408587 A    
C90   C137  1.400859 A    
C69   C77   1.404854 A    
C41   C97   1.407848 A    
C84   H4    1.083270 S    
O11   C3    1.337671 A    
C94   C141  1.401062 A    
N26   O40   1.301441 A    
C38   C102  1.400268 A    
C164  H88   1.107851 S    
C131  C139  1.395942 A    
C9    N1    1.374990 A    
C153  H42   1.107241 S    
C129  C137  1.396044 A    
C23   O36   1.348905 S    
C38   H13   1.083594 S    
C41   N9    1.415754 S    
C66   C121  1.422286 A    
C132  C140  1.395493 A    
C133  C141  1.396198 A    
C15   N7    1.375468 A    
C108  C115  1.421818 A    
N5    C61   1.455741 S    
C16   N8    1.375191 A    
N30   O48   1.301474 A    
C159  H66   1.109166 S    
C136  C144  1.396099 A    
C163  H84   1.108511 S    
C115  C123  1.418987 A    
C151  H39   1.079084 S    
C41   C49   1.410042 A    
C168  H103  1.111359 S    
C155  H52   1.111938 S    
C165  H90   1.110439 S    
O7    V2    1.985903 S    
C89   C138  1.400848 A    
C109  C133  1.414018 A    
C92   C139  1.400836 A    
N25   O38   1.301491 A    
C107  C131  1.414098 A    
C93   C142  1.401008 A    
C40   H15   1.083659 S    
C67   C124  1.421228 A    
N19   C163  1.449741 S    
C115  C148  1.412822 A    
C65   C122  1.422225 A    
C96   C143  1.401110 A    
N20   H85   1.028694 S    
N2    C18   1.373546 A    
C144  H24   1.083221 S    
N18   H77   1.028211 S    
C69   C126  1.421407 A    
C32   C64   1.420664 A    
C132  H28   1.079137 S    
N24   H101  1.030601 S    
C147  H35   1.079204 S    
C160  H70   1.111238 S    
C116  C147  1.412985 A    
C145  H33   1.079181 S    
C114  C122  1.419095 A    
C120  C151  1.413273 A    
C149  H37   1.079267 S    
N8    C64   1.455745 S    
O4    C1    1.327700 A    
C16   C80   1.407260 A    
C84   C148  1.394175 A    
C3    C102  1.483113 S    
C106  C130  1.414367 A    
C50   N18   1.432715 S    
C46   C102  1.408314 A    
C43   N11   1.428121 S    
O13   V3    1.987029 S    
O14   V4    1.987026 S    
C21   O34   1.348942 S    
C80   C88   1.401063 A    
C19   O32   1.348981 S    
N6    C22   1.373692 A    
C42   C50   1.414176 A    
C105  C114  1.422737 A    
C9    O21   1.349604 S    
C68   C76   1.405185 A    
C167  H98   1.109522 S    
C157  H59   1.108325 S    
C26   C58   1.422725 A    
N21   H89   1.029979 S    
N11   H49   1.028202 S    
C86   C150  1.394715 A    
O3    V4    1.983249 S    
O4    V3    1.983247 S    
N22   H93   1.028425 S    
C14   C78   1.407016 A    
C56   N24   1.427351 S    
C24   O35   1.348730 S    
C105  C121  1.417591 A    
C54   N22   1.433289 S    
C5    C100  1.483074 S    
C27   N28   1.439932 S    
C109  C125  1.417432 A    
N27   O41   1.301202 A    
C30   C38   1.408075 A    
C162  H78   1.109160 S    
C152  H40   1.079190 S    
C139  H19   1.083228 S    
C164  H86   1.108625 S    
C137  H17   1.083226 S    
C42   N10   1.427545 S    
C66   C74   1.405234 A    
C17   C89   1.411405 A    
C31   N32   1.440243 S    
C160  H72   1.112468 S    
C141  H21   1.083214 S    
C159  H68   1.111755 S    
C117  C125  1.418872 A    
N7    C63   1.455326 S    
C25   C33   1.409749 A    
C111  C120  1.424052 A    
O3    C2    1.337453 A    
C47   N15   1.428436 S    
C112  C119  1.422959 A    
C46   C54   1.413802 A    
N31   O49   1.300754 A    
C133  H29   1.079245 S    
C166  H95   1.109635 S    
C14   N6    1.375235 A    
C117  C150  1.412865 A    
O9    V1    1.991653 S    
C91   C140  1.400648 A    
O15   C7    1.338565 A    
O16   C8    1.330800 A    
C111  C127  1.417847 A    
C112  C128  1.417623 A    
N5    C21   1.374650 A    
C88   H8    1.083252 S    
O5    V1    1.986064 S    
C36   C100  1.400574 A    
N3    C59   1.452508 S    
C154  H47   1.108787 S    
C14   O26   1.349344 S    
C114  C145  1.413011 A    
C45   N13   1.423685 S    
C33   H10   1.083355 S    
C161  H76   1.107004 S    
C136  H32   1.079121 S    
C67   C91   1.407389 A    
C156  H55   1.107601 S    
C28   N27   1.441220 S    
C65   C89   1.407513 A    
C153  H43   1.112129 S    
N7    C23   1.373682 A    
N9    C153  1.450909 S    
C23   C95   1.411558 A    
N11   C155  1.450861 S    
O8    C5    1.325575 A    
C110  C134  1.413951 A    
C67   C75   1.405416 A    
C71   C79   1.405344 A    
C36   H11   1.083573 S    
O9    C1    1.340489 A    
C83   H3    1.083260 S    
N15   C159  1.450981 S    
C162  H80   1.108308 S    
C81   H1    1.083249 S    
N3    C19   1.373071 A    
N12   H53   1.027881 S    
C48   N16   1.414717 S    
C52   C60   1.420926 A    
N13   H57   1.025589 S    
C70   C125  1.421431 A    
N14   C158  1.450583 S    
C135  C143  1.396861 A    
C109  C118  1.422345 A    
C167  H100  1.108294 S    
N10   H45   1.026986 S    
C107  C116  1.422186 A    
C10   C74   1.407519 A    
C47   C103  1.409758 A    
C22   C94   1.410811 A    
O20   V2    1.774653 S    
C25   C57   1.421651 A    
C42   C98   1.408991 A    
N28   O43   1.301436 A    
O5    C8    1.337621 A    
O6    C7    1.325658 A    
N17   C161  1.451352 S    
C48   C104  1.410247 A    
N32   O51   1.301424 A    
C154  H48   1.111654 S    
C74   C82   1.401184 A    
C107  C123  1.417445 A    
C72   C127  1.422873 A    
C44   C100  1.408948 A    
N29   O46   1.301493 A    
C68   C123  1.421279 A    
C25   N26   1.440397 S    
C24   C96   1.412505 A    
C78   C86   1.401199 A    
C111  C135  1.414588 A    
C50   C58   1.421941 A    
N16   C160  1.451399 S    
