data_mof_unit_49142.cif
_audit_creation_date              2012-12-11T14:44:28-0500
_audit_creation_method            fapswitch 2.2
_symmetry_space_group_name_H-M    P1
_symmetry_Int_Tables_number       1
_space_group_crystal_system       triclinic
_cell_length_a                    19.951056
_cell_length_b                    7.230843
_cell_length_c                    19.677812
_cell_angle_alpha                 90.011544
_cell_angle_beta                  98.319491
_cell_angle_gamma                 90.018363
_cell_volume                      2808.90550695

loop_
_atom_site_label
_atom_site_type_symbol
_atom_type_description
_atom_site_fract_x
_atom_site_fract_y
_atom_site_fract_z
_atom_type_partial_charge
O1    O     O_R   0.673210 0.377390 0.686390 -0.535821
O2    O     O_R   0.326790 0.622610 0.313610 -0.535821
O3    O     O_R   0.826790 0.877390 0.813610 -0.535862
O4    O     O_R   0.173210 0.122610 0.186390 -0.535862
O5    O     O_R   0.810750 0.706450 0.681250 -0.539900
O6    O     O_R   0.189250 0.293550 0.318750 -0.539900
O7    O     O_R   0.689250 0.206450 0.818750 -0.539878
O8    O     O_R   0.310750 0.793550 0.181250 -0.539878
C1    C     C_R   0.831118 0.538498 0.665362 0.701492
C2    C     C_R   0.168882 0.461502 0.334638 0.701492
C3    C     C_R   0.668882 0.038486 0.834637 0.701579
C4    C     C_R   0.331118 0.961514 0.165362 0.701579
O9    O     O_R   0.672750 0.707060 0.678240 -0.539770
O10   O     O_R   0.327250 0.292940 0.321760 -0.539770
O11   O     O_R   0.827250 0.207060 0.821760 -0.539940
O12   O     O_R   0.172750 0.792940 0.178240 -0.539941
O13   O     O_R   0.687800 0.877990 0.810580 -0.538433
O14   O     O_R   0.312200 0.122010 0.189420 -0.538433
O15   O     O_R   0.812200 0.377990 0.689420 -0.538408
O16   O     O_R   0.187800 0.622010 0.310580 -0.538408
C5    C     C_R   0.648314 0.539984 0.661233 0.689504
C6    C     C_R   0.351686 0.460016 0.338767 0.689504
C7    C     C_R   0.851683 0.040070 0.838780 0.689574
C8    C     C_R   0.148316 0.959930 0.161220 0.689574
O17   O     O_3   0.755100 0.544060 0.793420 -0.376249
O18   O     O_3   0.244900 0.455940 0.206580 -0.376249
O19   O     O_3   0.744900 0.044060 0.706580 -0.376165
O20   O     O_3   0.255100 0.955940 0.293420 -0.376165
V1    V     V_3+5 0.749050 0.818670 0.741950 1.394224
V2    V     V_3+5 0.250950 0.181330 0.258050 1.394224
V3    V     V_3+5 0.750950 0.318670 0.758050 1.394144
V4    V     V_3+5 0.249050 0.681330 0.241950 1.394144
C9    C     C_R   0.087606 0.956279 0.107025 -0.064506
C10   C     C_R   0.912393 0.043721 0.892975 -0.064506
C11   C     C_R   0.412463 0.456659 0.392872 -0.064374
C12   C     C_R   0.587537 0.543341 0.607128 -0.064374
C13   C     C_R   0.005707 0.223560 0.955530 -0.197768
C14   C     C_R   0.994293 0.776440 0.044470 -0.197769
C15   C     C_R   0.493624 0.722178 0.545262 -0.197010
C16   C     C_R   0.506376 0.277822 0.454738 -0.197010
C17   C     C_R   0.952900 0.204710 0.900982 -0.158359
C18   C     C_R   0.047100 0.795290 0.099018 -0.158359
C19   C     C_R   0.546541 0.703373 0.599710 -0.158393
C20   C     C_R   0.453459 0.296627 0.400290 -0.158393
C21   C     C_R   0.927288 0.899106 0.940504 -0.238060
C22   C     C_R   0.072712 0.100894 0.059496 -0.238061
C23   C     C_R   0.573065 0.399591 0.559106 -0.237906
C24   C     C_R   0.426935 0.600409 0.440894 -0.237906
C25   C     C_R   0.980320 0.918024 0.996083 0.157751
C26   C     C_R   0.019680 0.081976 0.003917 0.157750
C27   C     C_R   0.519939 0.418486 0.503618 0.157371
C28   C     C_R   0.480061 0.581514 0.496382 0.157371
H1    H     H_    0.103575 0.224925 0.064377 0.124737
H2    H     H_    0.896425 0.775075 0.935623 0.124737
H3    H     H_    0.395662 0.723648 0.436468 0.124579
H4    H     H_    0.604338 0.276352 0.563532 0.124579
H5    H     H_    0.056768 0.681360 0.134823 0.131026
H6    H     H_    0.943232 0.318640 0.865177 0.131026
H7    H     H_    0.444085 0.183430 0.364087 0.130691
H8    H     H_    0.555915 0.816570 0.635913 0.130691
H9    H     H_    0.035213 0.349976 0.960156 0.121708
H10   H     H_    0.964787 0.650024 0.039844 0.121708
H11   H     H_    0.463717 0.847881 0.541092 0.121788
H12   H     H_    0.536283 0.152119 0.458908 0.121788
C29   C     C_R   0.575794 0.177843 0.891592 -0.218752
C30   C     C_R   0.424206 0.822157 0.108408 -0.218752
C31   C     C_R   0.924209 0.677905 0.608396 -0.218757
C32   C     C_R   0.075791 0.322095 0.391603 -0.218757
C33   C     C_R   0.619638 0.028664 0.884470 -0.078916
C34   C     C_R   0.380362 0.971336 0.115530 -0.078916
C35   C     C_R   0.880354 0.528695 0.615520 -0.078882
C36   C     C_R   0.119646 0.471305 0.384479 -0.078882
C37   C     C_R   0.615346 0.868341 0.924316 -0.217173
C38   C     C_R   0.384654 0.131659 0.075684 -0.217173
C39   C     C_R   0.884641 0.368321 0.575681 -0.217170
C40   C     C_R   0.115359 0.631679 0.424318 -0.217171
C41   C     C_R   0.568341 0.856690 0.970854 0.089330
C42   C     C_R   0.431659 0.143310 0.029146 0.089330
C43   C     C_R   0.931638 0.356666 0.529136 0.089323
C44   C     C_R   0.068362 0.643334 0.470864 0.089323
C45   C     C_R   0.524030 0.005878 0.976955 0.055764
C46   C     C_R   0.475970 0.994122 0.023045 0.055764
C47   C     C_R   0.975968 0.505884 0.523043 0.055742
C48   C     C_R   0.024032 0.494116 0.476957 0.055742
C49   C     C_R   0.527626 0.166686 0.936977 0.089802
C50   C     C_R   0.472374 0.833314 0.063023 0.089802
C51   C     C_R   0.972390 0.666730 0.563025 0.089814
C52   C     C_R   0.027610 0.333270 0.436974 0.089814
C53   C     C_R   0.564810 0.698324 0.011430 -0.192750
C54   C     C_R   0.435190 0.301676 0.988570 -0.192750
C55   C     C_R   0.935138 0.198271 0.488542 -0.192742
C56   C     C_R   0.064862 0.801729 0.511458 -0.192742
C57   C     C_R   0.517340 0.686875 0.057155 -0.186459
C58   C     C_R   0.482659 0.313125 0.942845 -0.186459
C59   C     C_R   0.982609 0.186813 0.442820 -0.186381
C60   C     C_R   0.017391 0.813187 0.557180 -0.186381
H13   H     H_    0.578234 0.301398 0.860830 0.126483
H14   H     H_    0.421766 0.698602 0.139170 0.126483
H15   H     H_    0.921769 0.801502 0.639146 0.126499
H16   H     H_    0.078231 0.198498 0.360854 0.126500
H17   H     H_    0.649078 0.752979 0.919613 0.130377
H18   H     H_    0.350922 0.247021 0.080386 0.130377
H19   H     H_    0.850910 0.252919 0.580394 0.130364
H20   H     H_    0.149090 0.747081 0.419606 0.130363
H21   H     H_    0.598595 0.582688 0.007583 0.134201
H22   H     H_    0.401405 0.417312 0.992417 0.134201
H23   H     H_    0.901327 0.082625 0.492371 0.134161
H24   H     H_    0.098673 0.917375 0.507629 0.134161
H25   H     H_    0.515636 0.562905 0.087778 0.136387
H26   H     H_    0.484364 0.437095 0.912222 0.136387
H27   H     H_    0.984286 0.062824 0.412180 0.136372
H28   H     H_    0.015714 0.937176 0.587820 0.136371

loop_
_geom_bond_atom_site_label_1
_geom_bond_atom_site_label_2
_ccdc_geom_bond_type
O17   V3    S    
C24   H3    S    
C47   C51   A    
C40   H20   S    
O19   V1    S    
O13   V1    S    
O3    C7    A    
O1    V3    S    
C44   C48   A    
O15   V3    S    
C45   C46   A    
C5    C12   S    
C42   C54   A    
O1    C5    A    
C6    C11   S    
C60   H28   S    
C41   C53   A    
C13   C17   A    
C9    C18   A    
O9    V1    S    
C17   H6    S    
C14   C18   A    
O4    C8    A    
C20   H7    S    
C56   C60   A    
C12   C23   A    
O2    V4    S    
O3    V1    S    
C34   C38   A    
C56   H24   S    
C2    O16   A    
C43   C47   A    
O2    C6    A    
C33   C37   A    
O14   V2    S    
C21   C25   A    
C16   C20   A    
C43   C55   A    
C31   H15   S    
C38   H18   S    
O11   C7    A    
C15   C28   A    
C52   C59   A    
O12   C8    A    
C39   H19   S    
C9    C22   A    
C10   C17   A    
O10   V2    S    
C11   C24   A    
C18   H5    S    
C1    O15   A    
C54   C58   A    
O5    V1    S    
O7    V3    S    
C27   C28   A    
O8    V4    S    
C55   H23   S    
C54   H22   S    
C14   C25   A    
O18   V4    S    
C15   C19   A    
C46   C50   A    
C58   H26   S    
C32   C36   A    
C48   C52   A    
C44   C56   A    
O7    C3    A    
C32   H16   S    
O5    C1    A    
C50   C57   A    
C49   C58   A    
C42   C46   A    
C13   H9    S    
C47   C48   A    
C41   C45   A    
O8    C4    A    
C7    C10   S    
C51   C60   A    
O9    C5    A    
C36   C40   A    
C10   C21   A    
C29   C49   A    
C11   C20   A    
C19   H8    S    
O6    V2    S    
C21   H2    S    
C32   C52   A    
C1    C35   S    
C53   H21   S    
O16   V4    S    
C4    C34   S    
C3    O13   A    
C40   C44   A    
C30   C50   A    
C23   C27   A    
C3    C33   S    
O11   V3    S    
O12   V4    S    
C16   C27   A    
C15   H11   S    
C22   C26   A    
C31   C51   A    
C8    C9    S    
C16   H12   S    
O10   C6    A    
O20   V2    S    
C29   H13   S    
C59   H27   S    
C35   C39   A    
C13   C26   A    
C30   H14   S    
C30   C34   A    
C29   C33   A    
C22   H1    S    
C37   H17   S    
C31   C35   A    
C53   C57   A    
O4    V2    S    
O6    C2    A    
C55   C59   A    
C24   C28   A    
C25   C26   A    
C38   C42   A    
C4    O14   A    
C37   C41   A    
C12   C19   A    
C39   C43   A    
C45   C49   A    
C57   H25   S    
C23   H4    S    
C14   H10   S    
C2    C36   S    
