data_mof_unit_31752.cif
_audit_creation_date              2012-12-10T19:03:07-0500
_audit_creation_method            fapswitch 2.2
_symmetry_space_group_name_H-M    P1
_symmetry_Int_Tables_number       1
_space_group_crystal_system       triclinic
_cell_length_a                    10.73616
_cell_length_b                    10.81372
_cell_length_c                    9.546097
_cell_angle_alpha                 89.936769
_cell_angle_beta                  89.735329
_cell_angle_gamma                 90.206704
_cell_volume                      1108.26139644

loop_
_atom_site_label
_atom_site_type_symbol
_atom_type_description
_atom_site_fract_x
_atom_site_fract_y
_atom_site_fract_z
_atom_type_partial_charge
C1    C     C_R   0.498499 0.262340 0.500108 0.794456
C2    C     C_3   0.878292 0.500350 0.499317 0.158114
C3    C     C_3   0.928424 0.616752 0.575667 -0.387181
C4    C     C_3   0.929737 0.501319 0.347122 -0.379857
C5    C     C_R   0.503115 0.063481 0.625516 0.093117
C6    C     C_R   0.488166 0.129124 0.500841 -0.133640
C7    C     C_R   0.457085 0.064500 0.378115 -0.194599
C8    C     C_R   0.456902 0.935551 0.377906 -0.217091
C9    C     C_R   0.487575 0.870700 0.500586 -0.108341
C10   C     C_R   0.502818 0.936034 0.625245 0.143292
C11   C     C_3   0.605362 0.928354 0.730267 -0.536958
C12   C     C_R   0.259836 0.499817 0.500074 0.748750
C13   C     C_3   0.606797 0.069148 0.729744 -0.205679
C14   C     C_R   0.566098 0.587250 0.073110 0.262659
C15   C     C_R   0.425210 0.421959 0.074941 -0.057297
C16   C     C_R   0.425048 0.422097 0.926018 -0.030730
C17   C     C_R   0.565997 0.587324 0.925671 0.265057
C18   C     C_3   0.703145 0.607915 0.918701 -0.503896
C19   C     C_3   0.703432 0.606904 0.077303 -0.505375
C20   C     C_R   0.498260 0.737619 0.499943 0.798975
C21   C     C_R   0.740228 0.500331 0.499690 0.754077
C22   C     C_3   0.071065 0.383593 0.576327 -0.379989
C23   C     C_3   0.927242 0.383255 0.574900 -0.372798
C24   C     C_3   0.072252 0.617054 0.574785 -0.371985
C25   C     C_3   0.072158 0.499175 0.347193 -0.365585
C26   C     C_3   0.121909 0.499917 0.499760 0.157641
Cu1   Cu    Cu3+1 0.499990 0.499980 0.640670 0.950437
Cu2   Cu    Cu3+1 0.500010 0.500020 0.359330 0.938922
H1    H     H_    0.104111 0.382055 0.686668 0.170683
H2    H     H_    0.898306 0.586383 0.292228 0.166093
H3    H     H_    0.107148 0.701580 0.520493 0.152501
H4    H     H_    0.893613 0.701921 0.523493 0.148183
H5    H     H_    0.437786 0.113089 0.281465 0.160466
H6    H     H_    0.437764 0.887266 0.280959 0.171151
H7    H     H_    0.573186 0.885499 0.830120 0.215083
H8    H     H_    0.691694 0.887185 0.685777 0.174807
H9    H     H_    0.694081 0.109264 0.685156 0.130279
H10   H     H_    0.366698 0.356953 0.131203 0.122406
H11   H     H_    0.106392 0.298446 0.524402 0.151655
H12   H     H_    0.366486 0.357133 0.870528 0.139419
H13   H     H_    0.754206 0.528169 0.873186 0.225708
H14   H     H_    0.727551 0.699505 0.873205 0.183206
H15   H     H_    0.753205 0.525571 0.120068 0.220652
H16   H     H_    0.728981 0.697556 0.124051 0.189580
H17   H     H_    0.892942 0.298687 0.520783 0.151481
H18   H     H_    0.891674 0.379923 0.684562 0.176787
H19   H     H_    0.106640 0.620377 0.684543 0.173163
H20   H     H_    0.894462 0.618464 0.685834 0.167825
H21   H     H_    0.107962 0.581197 0.288705 0.171233
H22   H     H_    0.105006 0.415007 0.291151 0.165607
H23   H     H_    0.894405 0.419635 0.288321 0.173354
N1    N     N_R   0.500800 0.500930 0.147930 -0.183439
N2    N     N_R   0.500800 0.500890 0.852020 -0.181753
O1    O     O_R   0.500000 0.319640 0.618810 -0.574852
O2    O     O_R   0.500010 0.319680 0.381230 -0.577735
O3    O     O_R   0.317690 0.499960 0.618790 -0.592273
O4    O     O_R   0.317700 0.500000 0.381210 -0.594416
O5    O     O_R   0.499990 0.680320 0.618770 -0.575435
O6    O     O_R   0.500000 0.680360 0.381190 -0.585611
O7    O     O_R   0.682300 0.500000 0.618790 -0.584307
O8    O     O_R   0.682310 0.500040 0.381210 -0.584341
C27   C     C_2   0.567332 0.125907 0.866755 0.903000
O9    O     O_2   0.634146 0.203217 0.922230 -0.611261
O10   O     O_R   0.454935 0.090575 0.930060 -0.780871
H24   H     H_    0.438972 0.135876 0.021207 0.307476

loop_
_geom_bond_atom_site_label_1
_geom_bond_atom_site_label_2
_ccdc_geom_bond_type
C2    C4    S    
C1    O1    A    
Cu1   N2    S    
C15   H10   S    
C6    C7    A    
C23   H17   S    
C22   H1    S    
C11   C13   S    
C9    C10   A    
C9    C20   S    
C21   O8    A    
O10   H24   S    
Cu1   O3    S    
C2    C21   S    
C11   H7    S    
C4    C25   S    
C1    O2    A    
Cu1   O1    S    
C4    H2    S    
C7    C8    A    
C23   H18   S    
C8    H6    S    
C15   N1    A    
Cu2   O8    S    
C20   O6    A    
Cu2   N1    S    
C14   C17   A    
C3    C24   S    
C12   O3    A    
C13   H9    S    
C16   H12   S    
C5    C6    A    
C12   O4    A    
C16   N2    A    
C11   H8    S    
Cu2   O2    S    
C19   H15   S    
C17   C18   S    
C27   O9    D    
C2    C3    S    
Cu1   O7    S    
C18   H14   S    
C3    H4    S    
C24   C26   S    
C25   H21   S    
Cu2   O6    S    
C10   C11   S    
C7    H5    S    
C4    H23   S    
C20   O5    A    
C15   C16   A    
C17   N2    A    
C3    H20   S    
C5    C10   A    
C19   H16   S    
C21   O7    A    
C18   C19   S    
C22   C26   S    
C18   H13   S    
C2    C23   S    
C25   H22   S    
C27   O10   S    
C22   H11   S    
C24   H3    S    
C25   C26   S    
Cu2   O4    S    
C24   H19   S    
C5    C13   S    
C14   C19   S    
C22   C23   S    
C14   N1    A    
C13   C27   S    
C1    C6    S    
C12   C26   S    
C8    C9    A    
Cu1   Cu2   S    
Cu1   O5    S    
