data_mof_unit_59227.cif
_audit_creation_date              2012-10-26T19:42:15-0400
_audit_creation_method            fapswitch 2.2
_symmetry_space_group_name_H-M    P1
_symmetry_Int_Tables_number       1
_space_group_crystal_system       triclinic
_cell_length_a                    9.607828
_cell_length_b                    10.830041
_cell_length_c                    17.372469
_cell_angle_alpha                 93.278604
_cell_angle_beta                  86.026367
_cell_angle_gamma                 92.621378
_cell_volume                      1798.77914785

loop_
_atom_site_label
_atom_site_type_symbol
_atom_type_description
_atom_site_fract_x
_atom_site_fract_y
_atom_site_fract_z
_atom_type_partial_charge
C1    C     C_R   0.503537 0.736998 0.496245 0.542438
C2    C     C_R   0.526165 0.488882 0.265813 0.030407
C3    C     C_R   0.319916 0.861465 0.403348 -0.126387
C4    C     C_R   0.481913 0.501482 0.649750 0.571892
C5    C     C_R   0.188247 0.902426 0.392856 -0.068698
C6    C     C_R   0.144212 0.010572 0.432383 0.302337
C7    C     C_R   0.241514 0.089802 0.469578 -0.082183
C8    C     C_R   0.379230 0.052374 0.476426 -0.042525
C9    C     C_R   0.406722 0.928414 0.454697 0.002873
C10   C     C_R   0.509819 0.870863 0.491648 -0.001267
C11   C     C_R   0.598015 0.940554 0.539495 -0.132578
C12   C     C_R   0.343067 0.502956 0.776237 -0.126152
C13   C     C_R   0.588769 0.068508 0.549506 0.009685
C14   C     C_R   0.484491 0.127138 0.512699 0.004634
C15   C     C_R   0.863564 0.349271 0.388454 -0.052062
C16   C     C_R   0.495456 0.262226 0.504691 0.587944
C17   C     C_R   0.939962 0.283401 0.330418 -0.147052
C18   C     C_R   0.083671 0.279525 0.331795 0.004049
C19   C     C_R   0.150343 0.345948 0.391040 -0.071660
C20   C     C_R   0.077872 0.425154 0.445817 0.130885
C21   C     C_R   0.928707 0.426025 0.445249 0.180873
C22   C     C_R   0.923364 0.571606 0.551550 0.027655
C23   C     C_R   0.408249 0.468237 0.146985 -0.089154
C24   C     C_R   0.071245 0.571771 0.551420 0.018007
C25   C     C_R   0.518002 0.497661 0.350246 0.534768
C26   C     C_R   0.473165 0.505261 0.734182 0.031158
C27   C     C_R   0.596243 0.513235 0.773491 -0.105040
C28   C     C_R   0.589609 0.517230 0.853545 -0.103762
C29   C     C_R   0.459604 0.511815 0.895568 0.044108
C30   C     C_R   0.336530 0.506819 0.856619 -0.112090
C31   C     C_2   0.678945 0.133781 0.606301 0.292117
C32   C     C_2   0.161972 0.200567 0.273036 0.225037
C33   C     C_R   0.402612 0.479176 0.226952 -0.094032
C34   C     C_R   0.655806 0.485944 0.223382 -0.126419
C35   C     C_R   0.661379 0.475872 0.142977 -0.110864
C36   C     C_R   0.537790 0.469426 0.104405 0.045292
C37   C     C_2   0.449511 0.513472 0.980123 -0.131023
C38   C     C_2   0.546764 0.464895 0.019745 -0.128992
Cu1   Cu    Cu3+1 0.359340 0.500010 0.500010 0.932698
Cu2   Cu    Cu3+1 0.640660 0.499990 0.499990 0.999424
H1    H     H_    0.698038 0.517187 0.742541 0.136213
H2    H     H_    0.301080 0.479111 0.258176 0.132321
H3    H     H_    0.258010 0.330120 0.393711 0.211217
H4    H     H_    0.124093 0.630727 0.593569 0.121555
H5    H     H_    0.752577 0.491854 0.252116 0.124695
H6    H     H_    0.637935 0.424139 0.989813 0.120319
H7    H     H_    0.235456 0.504118 0.888426 0.103915
H8    H     H_    0.310974 0.457823 0.118953 0.101580
H9    H     H_    0.246632 0.497858 0.747190 0.128383
H10   H     H_    0.358429 0.554455 0.009977 0.115678
H11   H     H_    0.686349 0.526404 0.882151 0.102410
H12   H     H_    0.762114 0.475392 0.110821 0.101695
H13   H     H_    0.784970 0.024453 0.381056 0.365053
H14   H     H_    0.773374 0.091872 0.621082 0.153499
H15   H     H_    0.106977 0.148456 0.228407 0.124438
H16   H     H_    0.669334 0.893847 0.572607 0.148816
H17   H     H_    0.347798 0.772099 0.377102 0.141708
H18   H     H_    0.115759 0.842929 0.361254 0.152448
H19   H     H_    0.203215 0.171127 0.501275 0.173860
H20   H     H_    0.865975 0.630404 0.593774 0.114639
H21   H     H_    0.753911 0.332672 0.387523 0.180772
H22   H     H_    0.885216 0.229099 0.286718 0.127094
N1    N     N_R   0.852190 0.498790 0.499250 -0.239031
N2    N     N_R   0.148060 0.498710 0.499220 -0.254704
O1    O     O_R   0.381190 0.680360 0.500010 -0.507535
O2    O     O_2   0.935793 0.151299 0.491007 -0.329223
O3    O     O_3   0.885426 0.014707 0.366081 -0.549547
O4    O     O_2   0.645523 0.230673 0.640461 -0.497903
O5    O     O_2   0.288232 0.192336 0.273716 -0.528308
O6    O     O_R   0.618760 0.680340 0.500000 -0.488570
O7    O     O_R   0.367440 0.500030 0.613600 -0.512912
O8    O     O_R   0.605010 0.500010 0.613590 -0.483524
O9    O     O_R   0.381240 0.319660 0.500000 -0.543094
O10   O     O_R   0.618810 0.319640 0.499990 -0.464581
O11   O     O_R   0.394990 0.499990 0.386410 -0.539246
O12   O     O_R   0.632560 0.499970 0.386400 -0.536434
O13   O     O_2   0.908726 0.926414 0.499766 -0.327828
S1    S     S_3+6 0.964151 0.028532 0.449744 -0.046209

loop_
_geom_bond_atom_site_label_1
_geom_bond_atom_site_label_2
_ccdc_geom_bond_type
C35   C36   A    
C12   H9    S    
C7    C8    A    
O13   S1    D    
Cu1   N2    S    
C26   C27   A    
C37   C38   D    
Cu2   N1    S    
Cu2   O6    S    
C5    H18   S    
C16   O10   A    
C33   H2    S    
C28   C29   A    
C18   C19   A    
C22   H20   S    
C5    C6    A    
C28   H11   S    
C6    S1    S    
C34   C35   A    
C22   N1    A    
C19   C20   A    
C8    C9    A    
C23   C33   A    
C1    O1    A    
Cu1   O11   S    
C9    C10   A    
C32   H15   S    
C2    C34   A    
C24   N2    A    
C13   C14   A    
Cu1   O1    S    
O3    S1    S    
C7    H19   S    
C19   H3    S    
C31   O4    D    
O2    S1    D    
C38   H6    S    
C16   O9    A    
C30   H7    S    
Cu1   Cu2   S    
Cu2   O12   S    
C12   C26   A    
C25   O11   A    
C20   N2    A    
C29   C30   A    
C3    C9    A    
C17   H22   S    
C27   H1    S    
C17   C18   A    
C15   H21   S    
C34   H5    S    
C32   O5    D    
C3    H17   S    
C2    C33   A    
C24   H4    S    
C14   C16   S    
C18   C32   S    
C4    O8    A    
C15   C17   A    
C8    C14   A    
C23   H8    S    
Cu2   O8    S    
C12   C30   A    
C13   C31   S    
C1    C10   S    
C3    C5    A    
C4    C26   S    
C6    C7    A    
C1    O6    A    
C25   O12   A    
C36   C38   S    
C37   H10   S    
C11   C13   A    
Cu2   O10   S    
C2    C25   S    
C22   C24   A    
Cu1   O9    S    
C31   H14   S    
H13   O3    S    
C21   N1    A    
C10   C11   A    
C15   C21   A    
C20   C21   A    
C23   C36   A    
C29   C37   S    
C35   H12   S    
Cu1   O7    S    
C4    O7    A    
C11   H16   S    
C27   C28   A    
