data_mof_unit_44294.cif
_audit_creation_date              2012-12-10T19:43:25-0500
_audit_creation_method            fapswitch 2.2
_symmetry_space_group_name_H-M    P1
_symmetry_Int_Tables_number       1
_space_group_crystal_system       triclinic
_cell_length_a                    10.822979
_cell_length_b                    10.794978
_cell_length_c                    9.636847
_cell_angle_alpha                 90.422824
_cell_angle_beta                  88.299483
_cell_angle_gamma                 96.595642
_cell_volume                      1117.95630446

loop_
_atom_site_label
_atom_site_type_symbol
_atom_type_description
_atom_site_fract_x
_atom_site_fract_y
_atom_site_fract_z
_atom_type_partial_charge
C1    C     C_R   0.487468 0.261934 0.499404 0.812735
C2    C     C_R   0.266975 0.704582 0.023191 -0.108158
C3    C     C_R   0.940674 0.515646 0.378876 -0.231420
C4    C     C_R   0.870557 0.484200 0.499472 -0.091817
C5    C     C_R   0.930762 0.457833 0.622331 0.020357
C6    C     C_R   0.059917 0.478947 0.624554 -0.212762
C7    C     C_R   0.129747 0.515559 0.503842 -0.043009
C8    C     C_R   0.068898 0.539914 0.380971 0.021337
C9    C     C_R   0.870938 0.442165 0.876369 -0.145152
C10   C     C_R   0.803764 0.380128 0.986698 -0.122897
C11   C     C_R   0.728998 0.267958 0.963620 -0.112121
C12   C     C_R   0.263438 0.507633 0.501530 0.822173
C13   C     C_R   0.721886 0.216732 0.830244 -0.100596
C14   C     C_R   0.789207 0.277894 0.719853 -0.107004
C15   C     C_R   0.863032 0.391993 0.741647 0.113394
C16   C     C_R   0.249352 0.083228 0.551887 -0.082922
C17   C     C_R   0.155309 0.003643 0.621026 -0.189873
C18   C     C_R   0.176480 0.885403 0.662183 -0.159521
C19   C     C_R   0.288016 0.840800 0.625913 -0.233823
C20   C     C_R   0.385048 0.918308 0.558230 0.088541
C21   C     C_R   0.371380 0.045769 0.536660 0.049077
C22   C     C_R   0.479373 0.126609 0.494440 -0.058759
C23   C     C_R   0.501652 0.737647 0.501014 0.801528
C24   C     C_R   0.587538 0.077742 0.450040 -0.227592
C25   C     C_R   0.592796 0.950836 0.451049 -0.218987
C26   C     C_R   0.493323 0.870765 0.505479 -0.082520
C27   C     C_R   0.625716 0.707646 0.136408 0.074768
C28   C     C_R   0.636777 0.820194 0.063233 -0.239869
C29   C     C_R   0.651952 0.814706 0.919815 -0.217050
C30   C     C_R   0.629671 0.700019 0.853104 -0.103452
C31   C     C_R   0.563727 0.598341 0.923399 0.176423
C32   C     C_R   0.562427 0.600173 0.072286 0.109096
C33   C     C_R   0.441196 0.404650 0.076655 -0.080062
C34   C     C_R   0.736569 0.491778 0.499054 0.809758
C35   C     C_R   0.439094 0.404479 0.929535 0.058878
C36   C     C_R   0.270522 0.768349 0.149914 -0.082753
C37   C     C_R   0.204482 0.715304 0.265808 -0.126685
C38   C     C_R   0.135157 0.597347 0.256077 0.136301
C39   C     C_R   0.130984 0.534345 0.127980 -0.085362
C40   C     C_R   0.197193 0.587888 0.012303 -0.161252
Cu1   Cu    Cu3+1 0.499990 0.499990 0.640660 0.967090
Cu2   Cu    Cu3+1 0.500010 0.500010 0.359340 0.988502
H1    H     H_    0.783161 0.237038 0.617036 0.109875
H2    H     H_    0.668686 0.138529 0.413882 0.139804
H3    H     H_    0.061382 0.027651 0.634287 0.141897
H4    H     H_    0.102485 0.824377 0.712741 0.154694
H5    H     H_    0.295740 0.744749 0.650060 0.154425
H6    H     H_    0.677159 0.916634 0.413981 0.199419
H7    H     H_    0.392031 0.327719 0.134450 0.198434
H8    H     H_    0.670949 0.906624 0.114535 0.158852
H9    H     H_    0.691008 0.896527 0.862464 0.156892
H10   H     H_    0.195825 0.538321 0.914609 0.143751
H11   H     H_    0.105906 0.453993 0.716626 0.175098
N1    N     N_R   0.501190 0.501210 0.147910 -0.215052
N2    N     N_R   0.501230 0.501290 0.852040 -0.231636
O1    O     O_R   0.499990 0.319640 0.618810 -0.569768
O2    O     O_R   0.500000 0.319660 0.381240 -0.561310
O3    O     O_R   0.319640 0.500000 0.618780 -0.570673
O4    O     O_R   0.319650 0.500020 0.381210 -0.550642
O5    O     O_R   0.500000 0.680340 0.618760 -0.618363
O6    O     O_R   0.500010 0.680360 0.381190 -0.568033
O7    O     O_R   0.680350 0.499980 0.618790 -0.587342
O8    O     O_R   0.680360 0.500000 0.381220 -0.579604
H12   H     H_    0.318802 0.745233 0.933671 0.145966
H13   H     H_    0.676546 0.220811 0.049106 0.147699
H14   H     H_    0.663934 0.129879 0.812207 0.147917
C41   C     C_2   0.207934 0.184689 0.467561 0.855692
O9    O     O_2   0.256866 0.209247 0.353879 -0.572056
O10   O     O_R   0.104083 0.243226 0.507545 -0.746471
H15   H     H_    0.076826 0.228875 0.608021 0.302993
H16   H     H_    0.324785 0.858635 0.158545 0.151828
C42   C     C_2   0.745183 0.696613 0.200630 0.849083
O11   O     O_2   0.830659 0.665165 0.127680 -0.653328
O12   O     O_R   0.767409 0.740898 0.334917 -0.802643
H17   H     H_    0.858078 0.744954 0.359815 0.319064
H18   H     H_    0.665701 0.693035 0.748867 0.191815
C43   C     C_2   0.367599 0.295778 0.865418 0.860858
O13   O     O_2   0.284267 0.309750 0.786559 -0.620569
O14   O     O_R   0.391091 0.175785 0.902078 -0.787884
H19   H     H_    0.334970 0.108190 0.853834 0.338324
H20   H     H_    0.207702 0.765675 0.363225 0.120074
H21   H     H_    0.078510 0.443173 0.118458 0.136260
H22   H     H_    0.895232 0.525873 0.283420 0.192919
H23   H     H_    0.927333 0.529806 0.895349 0.159044
H24   H     H_    0.808832 0.418967 0.090161 0.158157

loop_
_geom_bond_atom_site_label_1
_geom_bond_atom_site_label_2
_ccdc_geom_bond_type
C10   H24   S    
C16   C21   A    
Cu1   Cu2   S    
C19   C20   A    
C7    C8    A    
C43   O13   D    
C29   C30   A    
C36   C37   A    
C1    O1    A    
C17   H3    S    
Cu1   O3    S    
C5    C6    A    
C19   H5    S    
C33   H7    S    
C34   O7    A    
C18   C19   A    
C23   C26   S    
Cu1   N2    S    
C12   O4    A    
C28   H8    S    
C16   C17   A    
C9    C10   A    
C36   H16   S    
C12   O3    A    
C1    C22   S    
C21   C22   A    
C37   H20   S    
C7    C12   S    
C8    C38   S    
Cu1   O7    S    
C18   H4    S    
Cu2   O2    S    
C32   N1    A    
C2    H12   S    
C13   H14   S    
C43   O14   S    
C23   O5    A    
C4    C34   S    
O12   H17   S    
C35   N2    A    
C41   O9    D    
C38   C39   A    
C24   C25   A    
C39   H21   S    
C42   O12   S    
C3    C8    A    
C39   C40   A    
C4    C5    A    
C25   C26   A    
C40   H10   S    
C35   C43   S    
C41   O10   S    
Cu1   O1    S    
C37   C38   A    
C1    O2    A    
C30   H18   S    
C31   C32   A    
C25   H6    S    
C17   C18   A    
C16   C41   S    
Cu2   O6    S    
C3    H22   S    
C24   H2    S    
C22   C24   A    
C6    H11   S    
C3    C4    A    
C29   H9    S    
C2    C36   A    
C33   N1    A    
C28   C29   A    
C27   C32   A    
Cu1   O5    S    
C42   O11   D    
Cu2   O4    S    
C6    C7    A    
C9    C15   A    
Cu2   N1    S    
C11   C13   A    
C30   C31   A    
C20   C26   A    
C34   O8    A    
C33   C35   A    
O10   H15   S    
C5    C15   S    
C10   C11   A    
C9    H23   S    
O14   H19   S    
C2    C40   A    
C23   O6    A    
C20   C21   A    
C27   C28   A    
C14   C15   A    
C31   N2    A    
C13   C14   A    
Cu2   O8    S    
C27   C42   S    
C11   H13   S    
C14   H1    S    
