data_mof_unit_30533.cif
_audit_creation_date              2012-12-10T17:09:17-0500
_audit_creation_method            fapswitch 2.2
_symmetry_space_group_name_H-M    P1
_symmetry_Int_Tables_number       1
_space_group_crystal_system       triclinic
_cell_length_a                    18.425374
_cell_length_b                    18.460738
_cell_length_c                    11.652393
_cell_angle_alpha                 89.999863
_cell_angle_beta                  76.189484
_cell_angle_gamma                 90.000143
_cell_volume                      3848.93159269

loop_
_atom_site_label
_atom_site_type_symbol
_atom_type_description
_atom_site_fract_x
_atom_site_fract_y
_atom_site_fract_z
_atom_type_partial_charge
C1    C     C_R   0.400033 0.100706 0.521096 0.842153
C2    C     C_R   0.600346 0.899595 0.478849 0.843898
C3    C     C_R   0.599967 0.100706 0.478904 0.842156
C4    C     C_R   0.399653 0.899595 0.521152 0.843903
C5    C     C_R   0.900033 0.600706 0.521096 0.842153
C6    C     C_R   0.100346 0.399595 0.478848 0.843898
C7    C     C_R   0.099967 0.600706 0.478904 0.842155
C8    C     C_R   0.899653 0.399595 0.521152 0.843903
C9    C     C_R   0.535787 0.999824 0.961555 0.057280
C10   C     C_R   0.464212 0.999826 0.038445 0.057275
C11   C     C_R   0.035787 0.499824 0.961555 0.057280
C12   C     C_R   0.964212 0.499825 0.038445 0.057277
C13   C     C_R   0.410840 0.999869 0.866244 0.077763
C14   C     C_R   0.589160 0.999866 0.133756 0.077764
C15   C     C_R   0.910839 0.499868 0.866244 0.077765
C16   C     C_R   0.089160 0.499867 0.133756 0.077762
C17   C     C_R   0.401436 0.999761 0.989714 -0.318737
C18   C     C_R   0.598564 0.999758 0.010286 -0.318733
C19   C     C_R   0.901436 0.499760 0.989714 -0.318733
C20   C     C_R   0.098564 0.499758 0.010286 -0.318740
C21   C     C_R   0.542528 0.999896 0.837792 0.106388
C22   C     C_R   0.457471 0.999898 0.162208 0.106383
C23   C     C_R   0.042528 0.499897 0.837792 0.106383
C24   C     C_R   0.957471 0.499898 0.162208 0.106387
C25   C     C_R   0.655653 0.158002 0.466837 -0.243164
C26   C     C_R   0.342062 0.844057 0.533195 -0.231457
C27   C     C_R   0.344347 0.158002 0.533162 -0.243164
C28   C     C_R   0.657935 0.844054 0.466807 -0.231462
C29   C     C_R   0.155654 0.658000 0.466837 -0.243158
C30   C     C_R   0.842064 0.344056 0.533194 -0.231458
C31   C     C_R   0.844349 0.658003 0.533161 -0.243168
C32   C     C_R   0.157935 0.344055 0.466806 -0.231459
C33   C     C_R   0.231732 0.786949 0.655577 0.553320
C34   C     C_R   0.761973 0.219452 0.343708 0.528098
C35   C     C_R   0.768248 0.786927 0.344411 0.553318
C36   C     C_R   0.238032 0.219457 0.656294 0.528098
C37   C     C_R   0.731741 0.286940 0.655582 0.553319
C38   C     C_R   0.261981 0.719443 0.343711 0.528098
C39   C     C_R   0.268253 0.286933 0.344415 0.553319
C40   C     C_R   0.738038 0.719464 0.656296 0.528098
C41   C     C_R   0.292424 0.833983 0.642773 -0.390424
C42   C     C_R   0.705138 0.168646 0.357332 -0.377883
C43   C     C_R   0.707559 0.833964 0.357219 -0.390427
C44   C     C_R   0.294867 0.168650 0.642669 -0.377888
C45   C     C_R   0.792431 0.333975 0.642776 -0.390427
C46   C     C_R   0.205145 0.668638 0.357334 -0.377885
C47   C     C_R   0.207564 0.333969 0.357222 -0.390428
C48   C     C_R   0.794872 0.668656 0.642671 -0.377887
C49   C     C_R   0.335610 0.802544 0.435084 0.458219
C50   C     C_R   0.660190 0.201205 0.564342 0.479013
C51   C     C_R   0.664398 0.802554 0.564924 0.458218
C52   C     C_R   0.339807 0.201202 0.435655 0.479013
C53   C     C_R   0.835607 0.302548 0.435081 0.458217
C54   C     C_R   0.160187 0.701209 0.564338 0.479012
C55   C     C_R   0.164396 0.302551 0.564922 0.458218
C56   C     C_R   0.839805 0.701200 0.435652 0.479012
C57   C     C_R   0.273451 0.756861 0.443963 -0.183234
C58   C     C_R   0.721484 0.248280 0.555575 -0.172899
C59   C     C_R   0.726556 0.756868 0.556040 -0.183235
C60   C     C_R   0.278514 0.248278 0.444423 -0.172899
C61   C     C_R   0.773448 0.256864 0.443962 -0.183237
C62   C     C_R   0.221481 0.748284 0.555572 -0.172901
C63   C     C_R   0.226553 0.256866 0.556039 -0.183235
C64   C     C_R   0.778512 0.748276 0.444422 -0.172900
Cu1   Cu    Cu3+1 0.507800 1.000000 0.383250 0.963472
Cu2   Cu    Cu3+1 0.492200 0.000000 0.616750 0.963469
Cu3   Cu    Cu3+1 0.007800 0.500000 0.383250 0.963468
Cu4   Cu    Cu3+1 0.992200 0.500000 0.616750 0.963471
H1    H     H_    0.637855 0.999825 0.170408 0.118621
H2    H     H_    0.362145 0.999830 0.829592 0.118623
H3    H     H_    0.137855 0.499826 0.170408 0.118621
H4    H     H_    0.862145 0.499829 0.829592 0.118623
H5    H     H_    0.402641 0.999881 0.222189 0.128405
H6    H     H_    0.597359 0.999876 0.777811 0.128410
H7    H     H_    0.902641 0.499880 0.222189 0.128410
H8    H     H_    0.097359 0.499877 0.777811 0.128404
H9    H     H_    0.700535 0.136796 0.281240 0.193968
H10   H     H_    0.300765 0.863147 0.719170 0.184302
H11   H     H_    0.299472 0.136803 0.718763 0.193969
H12   H     H_    0.699208 0.863118 0.280819 0.184309
H13   H     H_    0.200546 0.636784 0.281245 0.193961
H14   H     H_    0.800777 0.363135 0.719174 0.184305
H15   H     H_    0.799480 0.636812 0.718767 0.193973
H16   H     H_    0.199215 0.363126 0.280823 0.184307
H17   H     H_    0.345527 0.999646 0.046479 0.138776
H18   H     H_    0.654473 0.999640 0.953521 0.138771
H19   H     H_    0.845527 0.499645 0.046479 0.138775
H20   H     H_    0.154473 0.499641 0.953521 0.138769
N1    N     N_R   0.519530 0.000000 0.207810 -0.184455
N2    N     N_R   0.480470 0.000000 0.792190 -0.184459
N3    N     N_R   0.019530 0.500000 0.207810 -0.184457
N4    N     N_R   0.980470 0.500000 0.792190 -0.184456
O1    O     O_R   0.430030 0.075530 0.417420 -0.544510
O2    O     O_R   0.569970 0.924470 0.582580 -0.547013
O3    O     O_R   0.569970 0.075530 0.582580 -0.544509
O4    O     O_R   0.430030 0.924470 0.417420 -0.547013
O5    O     O_R   0.930030 0.575530 0.417420 -0.544510
O6    O     O_R   0.069970 0.424470 0.582580 -0.547013
O7    O     O_R   0.069970 0.575530 0.582580 -0.544511
O8    O     O_R   0.930030 0.424470 0.417420 -0.547012
O9    O     O_R   0.416860 0.075510 0.614610 -0.603054
O10   O     O_R   0.583140 0.924490 0.385390 -0.603247
O11   O     O_R   0.583140 0.075510 0.385390 -0.603054
O12   O     O_R   0.416860 0.924490 0.614610 -0.603253
O13   O     O_R   0.916860 0.575510 0.614610 -0.603051
O14   O     O_R   0.083140 0.424490 0.385390 -0.603250
O15   O     O_R   0.083140 0.575510 0.385390 -0.603056
O16   O     O_R   0.916860 0.424490 0.614610 -0.603251
O17   O     O_3   0.606188 0.195214 0.669404 -0.509294
C65   C     C_3   0.545101 0.239842 0.662804 -0.240480
H21   H     H_    0.562696 0.296969 0.641617 0.124758
H22   H     H_    0.515492 0.218790 0.597090 0.119047
H23   H     H_    0.504704 0.239708 0.750257 0.183947
O18   O     O_3   0.389380 0.808106 0.329690 -0.529663
C66   C     C_3   0.448375 0.760115 0.333629 -0.191129
H24   H     H_    0.490416 0.763092 0.247962 0.185403
H25   H     H_    0.428442 0.703068 0.346193 0.149506
H26   H     H_    0.476893 0.775573 0.404077 0.105977
O19   O     O_3   0.393806 0.195208 0.330589 -0.509295
C67   C     C_3   0.454893 0.239838 0.337178 -0.240475
H27   H     H_    0.437299 0.296966 0.358355 0.124761
H28   H     H_    0.484505 0.218791 0.402893 0.119045
H29   H     H_    0.495289 0.239700 0.249723 0.183949
O20   O     O_3   0.610640 0.808128 0.670330 -0.529665
C68   C     C_3   0.551641 0.760135 0.666431 -0.191121
H30   H     H_    0.509609 0.763123 0.752106 0.185397
H31   H     H_    0.571572 0.703087 0.653883 0.149506
H32   H     H_    0.523112 0.775581 0.595989 0.105986
O21   O     O_3   0.106180 0.695223 0.669396 -0.509293
C69   C     C_3   0.045094 0.739848 0.662780 -0.240482
H33   H     H_    0.062688 0.796974 0.641581 0.124753
H34   H     H_    0.015487 0.718788 0.597068 0.119047
H35   H     H_    0.004694 0.739721 0.750232 0.183944
O22   O     O_3   0.889372 0.308115 0.329682 -0.529666
C70   C     C_3   0.948368 0.260122 0.333606 -0.191126
H36   H     H_    0.990406 0.263104 0.247936 0.185401
H37   H     H_    0.928436 0.203075 0.346163 0.149507
H38   H     H_    0.976891 0.275575 0.404052 0.105981
O23   O     O_3   0.893800 0.695202 0.330583 -0.509295
C71   C     C_3   0.954889 0.739833 0.337160 -0.240473
H39   H     H_    0.937296 0.796961 0.358335 0.124759
H40   H     H_    0.984505 0.718788 0.402872 0.119050
H41   H     H_    0.995281 0.739692 0.249701 0.183952
O24   O     O_3   0.110634 0.308121 0.670324 -0.529665
C72   C     C_3   0.051636 0.260129 0.666413 -0.191124
H42   H     H_    0.009601 0.263114 0.752085 0.185399
H43   H     H_    0.071567 0.203081 0.653861 0.149507
H44   H     H_    0.023110 0.275578 0.595969 0.105984
O25   O     O_3   0.686306 0.273377 0.767046 -0.520902
C73   C     C_3   0.654356 0.338232 0.820849 -0.313977
H45   H     H_    0.637255 0.375802 0.757151 0.135887
H46   H     H_    0.693206 0.365722 0.866393 0.147811
H47   H     H_    0.603198 0.324320 0.889217 0.187195
O26   O     O_3   0.309100 0.728151 0.232883 -0.541695
C74   C     C_3   0.275434 0.776913 0.168066 -0.250385
H48   H     H_    0.264576 0.830372 0.213246 0.153397
H49   H     H_    0.222800 0.754244 0.151850 0.140360
H50   H     H_    0.314414 0.786202 0.080793 0.190652
O27   O     O_3   0.313682 0.273365 0.232948 -0.520901
C75   C     C_3   0.345630 0.338218 0.179130 -0.313980
H51   H     H_    0.362733 0.375794 0.242818 0.135888
H52   H     H_    0.306777 0.365702 0.133585 0.147809
H53   H     H_    0.396787 0.324303 0.110760 0.187196
O28   O     O_3   0.690935 0.728188 0.767133 -0.541686
C76   C     C_3   0.724616 0.776958 0.831914 -0.250400
H54   H     H_    0.735472 0.830411 0.786712 0.153389
H55   H     H_    0.777255 0.754291 0.848117 0.140353
H56   H     H_    0.685648 0.786260 0.919194 0.190654
O29   O     O_3   0.186291 0.773395 0.767039 -0.520904
C77   C     C_3   0.154335 0.838255 0.820820 -0.313968
H57   H     H_    0.137238 0.875816 0.757106 0.135885
H58   H     H_    0.193180 0.865754 0.866364 0.147811
H59   H     H_    0.103174 0.824347 0.889186 0.187192
O30   O     O_3   0.809085 0.228167 0.232876 -0.541691
C78   C     C_3   0.775414 0.276936 0.168078 -0.250390
H60   H     H_    0.764564 0.330394 0.213268 0.153399
H61   H     H_    0.722774 0.254273 0.151872 0.140353
H62   H     H_    0.814388 0.286228 0.080800 0.190652
O31   O     O_3   0.813672 0.773353 0.232943 -0.520899
C79   C     C_3   0.845619 0.838204 0.179114 -0.313980
H63   H     H_    0.862727 0.875783 0.242795 0.135888
H64   H     H_    0.806764 0.865687 0.133572 0.147807
H65   H     H_    0.896773 0.824286 0.110741 0.187198
O32   O     O_3   0.190924 0.228176 0.767128 -0.541689
C80   C     C_3   0.224601 0.276944 0.831919 -0.250396
H66   H     H_    0.235457 0.330399 0.786724 0.153391
H67   H     H_    0.277239 0.254276 0.848126 0.140355
H68   H     H_    0.185630 0.286241 0.919197 0.190653

loop_
_geom_bond_atom_site_label_1
_geom_bond_atom_site_label_2
_ccdc_geom_bond_type
C70   H38   S    
C6    C32   S    
C15   C19   A    
C76   H54   S    
C7    C29   S    
C2    O2    A    
C13   N2    A    
C74   H49   S    
O29   C77   S    
C14   C18   A    
C30   C45   A    
C45   H14   S    
C34   C42   A    
C71   H41   S    
C23   H8    S    
C33   O29   S    
O18   C66   S    
C57   C62   A    
Cu2   N2    S    
C5    O13   A    
C10   C22   A    
Cu1   N1    S    
C15   H4    S    
C59   C64   A    
C18   H18   S    
C7    O7    A    
C60   C63   A    
C17   H17   S    
C6    O6    A    
O28   C76   S    
C71   H40   S    
C40   O28   S    
C19   H19   S    
O30   C78   S    
C28   C51   A    
C80   H67   S    
C13   H2    S    
C2    O10   A    
C10   C17   A    
C66   H24   S    
C46   H13   S    
C4    O12   A    
C49   C57   A    
O32   C80   S    
C40   C48   A    
C25   C50   A    
C3    O3    A    
C52   C60   A    
C15   N4    A    
C4    O4    A    
C53   C61   A    
C27   C44   A    
Cu1   O4    S    
C77   H57   S    
O27   C75   S    
C67   H28   S    
C33   C62   A    
C66   H25   S    
C73   H47   S    
C55   C63   A    
C68   H32   S    
C56   C64   A    
C35   C64   A    
C36   O32   S    
C31   C56   A    
C36   C63   A    
C35   C43   A    
C9    C10   A    
C32   C55   A    
C37   C58   A    
C23   N4    A    
C67   H29   S    
Cu2   O2    S    
C1    C27   S    
C58   C61   A    
Cu1   O1    S    
C49   O18   S    
C76   H55   S    
C40   C59   A    
C74   H50   S    
C51   O20   S    
Cu2   O9    S    
C16   H3    S    
Cu1   O10   S    
C8    O16   A    
C72   H43   S    
C79   H64   S    
C72   H42   S    
C78   H62   S    
C65   H22   S    
C21   N2    A    
C35   O31   S    
C30   C53   A    
C11   C20   A    
Cu3   Cu4   S    
C50   C58   A    
C75   H53   S    
Cu2   O12   S    
C70   H36   S    
C71   H39   S    
C78   H61   S    
C26   C49   A    
C41   H10   S    
C56   O23   S    
C80   H68   S    
C54   C62   A    
C43   H12   S    
C21   H6    S    
C50   O17   S    
C65   H21   S    
C75   H52   S    
C69   H34   S    
C14   N1    A    
C34   O30   S    
C38   C57   A    
C78   H60   S    
C3    C25   S    
C16   C20   A    
C66   H26   S    
Cu3   N3    S    
C6    O14   A    
C24   H7    S    
C47   H16   S    
C65   H23   S    
O26   C74   S    
Cu3   O8    S    
C42   H9    S    
C14   H1    S    
C5    O5    A    
C76   H56   S    
C31   C48   A    
C68   H30   S    
C32   C47   A    
C7    O15   A    
C36   C44   A    
C69   H35   S    
C51   C59   A    
Cu4   O13   S    
C38   O26   S    
C37   C45   A    
C9    C21   A    
C24   N3    A    
C1    O9    A    
C72   H44   S    
C27   C52   A    
O23   C71   S    
C39   C47   A    
O21   C69   S    
C3    O11   A    
C70   H37   S    
C54   O21   S    
C55   O24   S    
C39   O27   S    
C73   H45   S    
C44   H11   S    
C53   O22   S    
C37   O25   S    
O24   C72   S    
C25   C42   A    
C4    C26   S    
O19   C67   S    
C79   H65   S    
Cu3   O14   S    
O22   C70   S    
C12   C24   A    
C28   C43   A    
C48   H15   S    
C13   C17   A    
C29   C46   A    
C8    C30   S    
C75   H51   S    
C69   H33   S    
C8    O8    A    
Cu4   O7    S    
C33   C41   A    
O25   C73   S    
Cu3   O15   S    
C80   H66   S    
C77   H58   S    
C39   C60   A    
C20   H20   S    
C12   C19   A    
C11   C23   A    
Cu4   N4    S    
C22   N1    A    
C73   H46   S    
C34   C61   A    
Cu4   O6    S    
C38   C46   A    
Cu3   O5    S    
O31   C79   S    
C52   O19   S    
C9    C18   A    
C26   C41   A    
C16   N3    A    
C1    O1    A    
Cu1   Cu2   S    
C29   C54   A    
C74   H48   S    
C68   H31   S    
Cu1   O11   S    
C67   H27   S    
O20   C68   S    
C2    C28   S    
Cu4   O16   S    
C22   H5    S    
O17   C65   S    
C79   H63   S    
C11   C12   A    
Cu2   O3    S    
C5    C31   S    
C77   H59   S    
