data_mof_unit_57999.cif
_audit_creation_date              2012-12-10T18:57:14-0500
_audit_creation_method            fapswitch 2.2
_symmetry_space_group_name_H-M    P1
_symmetry_Int_Tables_number       1
_space_group_crystal_system       triclinic
_cell_length_a                    8.736374
_cell_length_b                    10.831573
_cell_length_c                    9.587973
_cell_angle_alpha                 91.118058
_cell_angle_beta                  97.41695
_cell_angle_gamma                 90.968372
_cell_volume                      899.361957601

loop_
_atom_site_label
_atom_site_type_symbol
_atom_type_description
_atom_site_fract_x
_atom_site_fract_y
_atom_site_fract_z
_atom_type_partial_charge
C1    C     C_R   0.495952 0.262801 0.497975 0.873193
C2    C     C_R   0.425408 0.930741 0.382725 -0.214511
C3    C     C_R   0.508073 0.871411 0.497643 -0.153201
C4    C     C_R   0.606154 0.943418 0.594668 -0.131798
C5    C     C_3   0.647763 0.941298 0.752388 0.220367
C6    C     C_3   0.624212 0.081965 0.751971 0.788191
C7    C     C_R   0.629893 0.533604 0.089585 0.174295
C8    C     C_R   0.378507 0.453251 0.060131 -0.084133
C9    C     C_R   0.379036 0.450005 0.912367 0.477945
C10   C     C_R   0.630701 0.531130 0.942404 0.034972
C11   C     C_3   0.720416 0.648492 0.944446 -0.434913
C12   C     C_R   0.204470 0.492923 0.464018 0.753190
C13   C     C_3   0.713899 0.656427 0.101842 0.722262
C14   C     C_R   0.503137 0.737670 0.500929 0.812874
C15   C     C_R   0.795749 0.498465 0.535383 0.887218
C16   C     C_2   0.038904 0.474711 0.444254 0.261192
C17   C     C_2   0.961477 0.501914 0.552534 -0.387192
C18   C     C_R   0.595280 0.069343 0.595405 -0.052588
C19   C     C_R   0.500102 0.129964 0.492810 -0.201645
C20   C     C_R   0.424738 0.060456 0.377096 0.460564
Cu1   Cu    Cu3+1 0.499990 0.499980 0.640670 0.968998
Cu2   Cu    Cu3+1 0.500010 0.500020 0.359330 0.995279
H1    H     H_    0.838066 0.633368 0.915788 0.204246
H2    H     H_    0.653095 0.718874 0.884225 0.190396
H3    H     H_    0.020338 0.532866 0.654398 0.156877
H4    H     H_    0.355440 0.876956 0.300943 0.172725
H5    H     H_    0.562071 0.891409 0.807340 0.060697
H6    H     H_    0.280187 0.415282 0.103720 0.173722
N1    N     N_R   0.500980 0.500930 0.148050 -0.246699
N2    N     N_R   0.500990 0.500890 0.852140 -0.223370
O1    O     O_R   0.500000 0.319640 0.618810 -0.566539
O2    O     O_R   0.500020 0.319680 0.381230 -0.555869
O3    O     O_R   0.274830 0.499980 0.591380 -0.585972
O4    O     O_R   0.274850 0.500020 0.353800 -0.590886
O5    O     O_R   0.499980 0.680320 0.618770 -0.605462
O6    O     O_R   0.500000 0.680360 0.381190 -0.549045
O7    O     O_R   0.725150 0.499980 0.646200 -0.585215
O8    O     O_R   0.725170 0.500020 0.408620 -0.523120
O9    O     O_3   0.963185 0.425749 0.318648 -0.687426
H7    H     H_    0.039665 0.402084 0.255665 0.337341
O10   O     O_3   0.255180 0.392389 0.833422 -0.732522
H8    H     H_    0.296531 0.342823 0.759978 0.374750
O11   O     O_3   0.861192 0.652081 0.179290 -0.688537
H9    H     H_    0.849349 0.674924 0.277932 0.352032
O12   O     O_3   0.627327 0.756515 0.143110 -0.726279
H10   H     H_    0.523228 0.751866 0.087393 0.292981
O13   O     O_3   0.333099 0.118411 0.270152 -0.588461
C21   C     C_3   0.398038 0.102981 0.143773 -0.214636
H11   H     H_    0.520540 0.136103 0.155589 0.163826
H12   H     H_    0.332550 0.159383 0.061949 0.205497
H13   H     H_    0.388805 0.005245 0.105503 0.159230
O14   O     O_3   0.804334 0.914600 0.802649 -0.541421
C22   C     C_3   0.870300 0.829055 0.715781 -0.257925
H14   H     H_    0.902267 0.875133 0.620830 0.179285
H15   H     H_    0.792665 0.748456 0.684672 0.149159
H16   H     H_    0.977837 0.794113 0.774915 0.176924
O15   O     O_3   0.492871 0.121398 0.811526 -0.797658
H17   H     H_    0.403252 0.067740 0.773420 0.285177
O16   O     O_3   0.758944 0.154976 0.794885 -0.540770
C23   C     C_3   0.780066 0.173794 0.942324 -0.096850
H18   H     H_    0.768034 0.086402 0.999511 0.165278
H19   H     H_    0.697847 0.243128 0.973749 0.161071
H20   H     H_    0.898532 0.211328 0.974698 0.172893

loop_
_geom_bond_atom_site_label_1
_geom_bond_atom_site_label_2
_ccdc_geom_bond_type
C7    C10   A    
O11   H9    S    
C15   O8    A    
Cu1   O5    S    
Cu2   N1    S    
Cu2   O6    S    
O10   H8    S    
C10   N2    A    
C9    O10   S    
C19   C20   A    
C7    C13   S    
C17   H3    S    
C21   H12   S    
C2    C3    A    
C4    C18   A    
O16   C23   S    
C2    H4    S    
C5    H5    S    
C22   H14   S    
C13   O12   S    
C4    C5    S    
Cu1   O1    S    
C6    O15   S    
C21   H13   S    
O15   H17   S    
C3    C14   S    
Cu2   O2    S    
C9    N2    A    
C23   H18   S    
C23   H20   S    
C7    N1    A    
C8    N1    A    
C11   H1    S    
C21   H11   S    
C22   H15   S    
C1    O1    A    
C14   O6    A    
C5    C6    S    
Cu2   O4    S    
C6    C18   S    
C1    C19   S    
C11   C13   S    
Cu1   O3    S    
C10   C11   S    
C16   O9    S    
C2    C20   A    
C3    C4    A    
Cu2   O8    S    
O13   C21   S    
O12   H10   S    
C11   H2    S    
C13   O11   S    
Cu1   O7    S    
O14   C22   S    
C8    H6    S    
C23   H19   S    
C18   C19   A    
Cu1   N2    S    
C22   H16   S    
C14   O5    A    
C15   C17   S    
O9    H7    S    
C16   C17   D    
C5    O14   S    
C12   O3    A    
Cu1   Cu2   S    
C12   O4    A    
C6    O16   S    
C1    O2    A    
C15   O7    A    
C20   O13   S    
C12   C16   S    
C8    C9    A    
