data_mof_unit_7878.cif
_audit_creation_date              2012-12-10T17:47:03-0500
_audit_creation_method            fapswitch 2.2
_symmetry_space_group_name_H-M    P1
_symmetry_Int_Tables_number       1
_space_group_crystal_system       triclinic
_cell_length_a                    9.994088
_cell_length_b                    10.623327
_cell_length_c                    13.586779
_cell_angle_alpha                 91.842493
_cell_angle_beta                  82.067076
_cell_angle_gamma                 91.375427
_cell_volume                      1427.69262396

loop_
_atom_site_label
_atom_site_type_symbol
_atom_type_description
_atom_site_fract_x
_atom_site_fract_y
_atom_site_fract_z
_atom_type_partial_charge
C1    C     C_R   0.500807 0.739295 0.502689 0.865780
C2    C     C_1   0.454891 0.502401 0.790003 -0.153251
C3    C     C_R   0.365522 0.874129 0.675878 -0.175184
C4    C     C_R   0.292974 0.940945 0.754881 -0.117081
C5    C     C_R   0.284521 0.071239 0.751672 -0.126617
C6    C     C_R   0.350048 0.135048 0.670030 -0.173748
C7    C     C_R   0.422766 0.068163 0.588766 0.093116
C8    C     C_R   0.428381 0.936683 0.590998 0.076045
C9    C     C_R   0.502350 0.872154 0.509587 -0.071269
C10   C     C_R   0.575649 0.934497 0.430709 -0.153553
C11   C     C_R   0.572458 0.063057 0.429358 -0.203931
C12   C     C_R   0.474840 0.500479 0.685626 0.875788
C13   C     C_R   0.494970 0.128622 0.506421 -0.090271
C14   C     C_R   0.840028 0.626918 0.658254 0.025124
C15   C     C_R   0.892176 0.639938 0.748650 -0.237357
C16   C     C_R   0.031093 0.642640 0.746744 -0.235434
C17   C     C_R   0.113017 0.614763 0.658103 -0.130409
C18   C     C_R   0.059402 0.557210 0.577703 0.163811
C19   C     C_R   0.916054 0.560081 0.577486 0.099591
C20   C     C_R   0.941127 0.443260 0.425831 -0.097253
C21   C     C_R   0.083721 0.443818 0.425629 -0.092995
C22   C     C_R   0.498433 0.260878 0.501109 0.854817
C23   C     C_R   0.525192 0.499995 0.314341 0.886231
C24   C     C_1   0.545285 0.501743 0.209945 -0.182933
C25   C     C_2   0.559005 0.505409 0.017607 -0.148999
C26   C     C_2   0.441609 0.505528 0.982388 -0.164261
C27   C     C_1   0.443592 0.504111 0.878234 0.010845
C28   C     C_1   0.556824 0.503550 0.121741 0.003036
H1    H     H_    0.345502 0.505148 0.030909 0.155759
H2    H     H_    0.831553 0.679681 0.814117 0.181557
H3    H     H_    0.075137 0.678348 0.810834 0.158852
H4    H     H_    0.215602 0.643854 0.652380 0.194343
H5    H     H_    0.146706 0.397228 0.364783 0.147192
H6    H     H_    0.655114 0.505397 0.969057 0.160657
H7    H     H_    0.633007 0.883184 0.369255 0.151976
H8    H     H_    0.377829 0.774561 0.683765 0.136942
H9    H     H_    0.245402 0.891767 0.819482 0.133250
H10   H     H_    0.229418 0.123317 0.813487 0.139509
H11   H     H_    0.344601 0.236569 0.672181 0.151465
H12   H     H_    0.628882 0.111733 0.367412 0.146676
H13   H     H_    0.898306 0.396338 0.365235 0.140675
N1    N     N_R   0.857120 0.501200 0.500900 -0.118359
N2    N     N_R   0.142720 0.501280 0.500940 -0.115540
O1    O     O_R   0.385310 0.683220 0.500000 -0.629219
O2    O     O_R   0.614640 0.683250 0.500010 -0.588264
O3    O     O_R   0.368830 0.499960 0.640340 -0.652748
O4    O     O_R   0.598160 0.499980 0.640350 -0.608421
O5    O     O_R   0.385360 0.316750 0.499990 -0.614589
O6    O     O_R   0.614690 0.316780 0.500000 -0.605540
O7    O     O_R   0.401840 0.500020 0.359650 -0.607092
O8    O     O_R   0.631170 0.500040 0.359660 -0.615027
Zn1   Zn    Zn3+2 0.346870 0.499980 0.499990 0.939870
Zn2   Zn    Zn3+2 0.653130 0.500020 0.500010 0.972665
C29   C     C_2   0.766407 0.740230 0.640579 0.963414
O9    O     O_2   0.808890 0.806660 0.570627 -0.617731
O10   O     O_R   0.659980 0.780803 0.711257 -0.842129
H14   H     H_    0.632479 0.869588 0.699539 0.340216

loop_
_geom_bond_atom_site_label_1
_geom_bond_atom_site_label_2
_ccdc_geom_bond_type
O7    Zn1   S    
C23   C24   S    
C6    C7    A    
C24   C28   T    
C9    C10   A    
C1    O1    A    
C20   N1    A    
C14   C15   A    
C19   N1    A    
C7    C13   A    
C25   H6    S    
O4    Zn2   S    
C2    C12   S    
O1    Zn1   S    
C17   C18   A    
C25   C26   D    
O2    Zn2   S    
C7    C8    A    
C21   N2    A    
C18   N2    A    
O10   H14   S    
C16   H3    S    
C4    C5    A    
C11   C13   A    
C1    O2    A    
C26   C27   S    
C2    C27   T    
C3    H8    S    
C15   H2    S    
C12   O4    A    
O6    Zn2   S    
C5    C6    A    
C14   C29   S    
C13   C22   S    
C3    C8    A    
C22   O6    A    
N1    Zn2   S    
C11   H12   S    
C10   H7    S    
C29   O10   S    
N2    Zn1   S    
C21   H5    S    
C10   C11   A    
C15   C16   A    
O3    Zn1   S    
C22   O5    A    
O5    Zn1   S    
C1    C9    S    
C4    H9    S    
C26   H1    S    
C12   O3    A    
C18   C19   A    
C6    H11   S    
C17   H4    S    
C29   O9    D    
C16   C17   A    
C23   O7    A    
O8    Zn2   S    
C20   C21   A    
C5    H10   S    
C23   O8    A    
C14   C19   A    
C3    C4    A    
C20   H13   S    
C8    C9    A    
C25   C28   S    
