data_mof_unit_43989.cif
_audit_creation_date              2013-03-05T15:55:19-0500
_audit_creation_method            fapswitch 2.2
_symmetry_space_group_name_H-M    P1
_symmetry_Int_Tables_number       1
_space_group_crystal_system       triclinic
_cell_length_a                    14.731128
_cell_length_b                    14.761849
_cell_length_c                    33.319394
_cell_angle_alpha                 96.073463
_cell_angle_beta                  96.23845
_cell_angle_gamma                 61.1591
_cell_volume                      6297.4143374

loop_
_atom_site_label
_atom_site_type_symbol
_atom_site_description
_atom_site_fract_x
_atom_site_fract_y
_atom_site_fract_z
_atom_type_partial_charge
O1    O     O_R   0.679450 0.499830 0.463150 -0.530269
O2    O     O_R   0.480650 0.664000 0.464630 -0.503165
C1    C     C_R   0.390499 0.700538 0.446276 0.833522
O3    O     O_R   0.323930 0.675950 0.455370 -0.542411
O4    O     O_R   0.354700 0.475360 0.451930 -0.509237
C2    C     C_R   0.405040 0.385783 0.434282 0.851848
O5    O     O_R   0.494470 0.320860 0.448390 -0.543731
O6    O     O_R   0.662580 0.357570 0.460050 -0.543632
C3    C     C_R   0.700459 0.410069 0.447444 0.782229
O7    O     O_R   0.680900 0.502040 0.551870 -0.545170
O8    O     O_R   0.481990 0.666040 0.546870 -0.537318
C4    C     C_R   0.393186 0.701701 0.561211 0.812086
O9    O     O_R   0.325370 0.678160 0.544080 -0.523780
O10   O     O_R   0.356040 0.477400 0.534170 -0.539715
C5    C     C_R   0.406759 0.388760 0.548924 0.858776
O11   O     O_R   0.495910 0.323070 0.537100 -0.508549
O12   O     O_R   0.663920 0.359620 0.542290 -0.538225
C6    C     C_R   0.701135 0.413730 0.562742 0.762567
Cr1   Cr    Cr6+3 0.576280 0.580550 0.506370 1.029448
Cr2   Cr    Cr6+3 0.346780 0.572400 0.496520 1.031645
Cr3   Cr    Cr6+3 0.576960 0.347070 0.497150 0.997505
O13   O     O_3   0.500010 0.500010 0.500010 -0.362714
H1    H     H_    0.413571 0.136347 0.114121 0.228948
H2    H     H_    0.481999 0.233062 0.306467 0.164269
H3    H     H_    0.523527 0.243581 0.378712 0.163690
C7    C     C_R   0.368964 0.364670 0.392975 -0.158488
C8    C     C_R   0.266108 0.426581 0.376566 0.376600
C9    C     C_R   0.244729 0.421333 0.334481 -0.197735
C10   C     C_R   0.322894 0.353372 0.309349 0.041745
C11   C     C_R   0.421441 0.286751 0.325843 -0.085694
C12   C     C_R   0.444395 0.292151 0.367250 -0.208942
C13   C     C_R   0.366513 0.228042 0.169344 0.409170
C14   C     C_R   0.363781 0.212944 0.127265 -0.265300
C15   C     C_R   0.226909 0.390770 0.120259 0.390141
C16   C     C_R   0.230002 0.406146 0.162585 -0.244878
C17   C     C_R   0.297233 0.325240 0.186979 -0.082253
C18   C     C_1   0.297688 0.343422 0.230073 0.092747
C19   C     C_1   0.304742 0.351529 0.266339 0.044637
C20   C     C_R   0.291502 0.291261 0.102405 -0.232927
H4    H     H_    0.180041 0.481640 0.176604 0.187801
H5    H     H_    0.167442 0.470158 0.321332 0.169691
N1    N     N_R   0.794920 0.401866 0.224854 -0.280516
N2    N     N_R   0.789194 0.407999 0.264651 -0.288315
C21   C     C_R   0.753712 0.373774 0.409560 -0.081418
C22   C     C_R   0.781457 0.437411 0.391353 -0.112292
C23   C     C_R   0.807052 0.416288 0.351243 -0.167553
C24   C     C_R   0.805492 0.331207 0.328499 0.015714
C25   C     C_R   0.786214 0.261910 0.347723 0.204516
C26   C     C_R   0.761246 0.283446 0.388177 -0.206611
N3    N     N_R   0.846239 0.230164 0.262889 -0.215188
N4    N     N_R   0.852065 0.223979 0.223059 -0.271879
C27   C     C_R   0.826201 0.309795 0.203236 0.528041
C28   C     C_R   0.815114 0.322247 0.284494 0.544396
C29   C     C_R   0.819136 0.390069 0.139964 -0.172384
C30   C     C_R   0.851012 0.380716 0.100981 0.191873
C31   C     C_R   0.918026 0.194397 0.099949 -0.209929
C32   C     C_R   0.886272 0.204426 0.138702 -0.114840
C33   C     C_R   0.841121 0.301691 0.159777 -0.005839
C34   C     C_R   0.905728 0.281332 0.081503 -0.038749
H6    H     H_    0.777233 0.507134 0.407232 0.185343
H7    H     H_    0.740882 0.232799 0.401842 0.146583
H8    H     H_    0.823618 0.469518 0.337463 0.171521
H9    H     H_    0.781411 0.466359 0.155281 0.154586
H10   H     H_    0.958735 0.117208 0.085626 0.155066
H11   H     H_    0.902587 0.135004 0.152918 0.161937
N5    N     N_R   0.306566 0.772856 0.217383 -0.273233
N6    N     N_R   0.307252 0.766334 0.256844 -0.283792
C35   C     C_R   0.370057 0.753787 0.408569 -0.167326
C36   C     C_R   0.289372 0.755880 0.381284 -0.190251
C37   C     C_R   0.284489 0.775652 0.341162 -0.123092
C38   C     C_R   0.359575 0.794720 0.327229 -0.049371
C39   C     C_R   0.434180 0.803380 0.354971 -0.183510
C40   C     C_R   0.439386 0.784650 0.395854 0.379375
N7    N     N_R   0.416304 0.841379 0.269296 -0.252024
N8    N     N_R   0.415200 0.848294 0.229702 -0.256855
C41   C     C_R   0.360310 0.814108 0.202972 0.535750
C42   C     C_R   0.361110 0.801441 0.283605 0.548450
C43   C     C_R   0.251638 0.852952 0.139201 -0.135157
C44   C     C_R   0.228045 0.885080 0.100146 -0.186181
C45   C     C_R   0.400077 0.868785 0.098640 0.400281
C46   C     C_R   0.423517 0.837566 0.138736 0.120652
C47   C     C_R   0.346891 0.833576 0.159670 -0.084816
C48   C     C_R   0.299086 0.898726 0.080151 -0.213013
H12   H     H_    0.233706 0.734756 0.390067 0.190083
H13   H     H_    0.150790 0.905704 0.086651 0.176517
H14   H     H_    0.224017 0.771638 0.320675 0.165425
H15   H     H_    0.489819 0.822522 0.344722 0.189582
H16   H     H_    0.192049 0.849134 0.154230 0.173352
N9    N     N_R   0.236133 0.427538 0.768463 -0.283750
N10   N     N_R   0.240476 0.429403 0.728927 -0.229358
C49   C     C_R   0.370101 0.372474 0.585769 -0.183715
C50   C     C_R   0.293116 0.460098 0.606005 -0.256203
C51   C     C_R   0.275746 0.458463 0.646181 0.214545
C52   C     C_R   0.335097 0.367003 0.666698 -0.038738
C53   C     C_R   0.405301 0.276791 0.645511 -0.257810
C54   C     C_R   0.422067 0.277774 0.604996 0.388746
N11   N     N_R   0.413191 0.298933 0.732984 -0.295324
N12   N     N_R   0.408907 0.297175 0.772523 -0.293921
C55   C     C_R   0.320356 0.361559 0.791072 0.524751
C56   C     C_R   0.328943 0.364845 0.710396 0.570715
C57   C     C_R   0.216350 0.404889 0.851129 -0.107076
C58   C     C_R   0.205406 0.381562 0.889089 -0.190396
C59   C     C_R   0.390083 0.260310 0.895466 0.195913
C60   C     C_R   0.400278 0.284222 0.857219 -0.186410
C61   C     C_R   0.312856 0.352621 0.834046 -0.002296
C62   C     C_R   0.290664 0.305338 0.910751 -0.037382
H17   H     H_    0.250884 0.533255 0.591762 0.170211
H18   H     H_    0.128359 0.418453 0.900175 0.157837
H19   H     H_    0.447639 0.204994 0.660657 0.188934
H20   H     H_    0.147745 0.459419 0.834263 0.157429
H21   H     H_    0.476178 0.245474 0.845063 0.144865
H22   H     H_    0.934680 0.128107 0.877670 0.167181
H23   H     H_    0.797366 0.200437 0.669136 0.133334
H24   H     H_    0.747857 0.235694 0.597690 0.164033
C63   C     C_R   0.753260 0.381037 0.603077 -0.056510
C64   C     C_R   0.776162 0.448757 0.629845 -0.157284
C65   C     C_R   0.803873 0.428386 0.670620 -0.125462
C66   C     C_R   0.809490 0.340065 0.685024 0.118751
C67   C     C_R   0.792908 0.269166 0.658230 -0.121290
C68   C     C_R   0.765197 0.289297 0.617448 -0.147085
C69   C     C_R   0.880433 0.211174 0.823588 0.227262
C70   C     C_R   0.908615 0.202172 0.865128 -0.158988
C71   C     C_R   0.875904 0.380205 0.872650 -0.154092
C72   C     C_R   0.847922 0.390064 0.831411 -0.163686
C73   C     C_R   0.853150 0.305464 0.806480 0.086840
C74   C     C_1   0.837326 0.315937 0.763503 -0.037790
C75   C     C_1   0.825418 0.325917 0.727638 -0.040433
C76   C     C_R   0.910088 0.285098 0.889686 -0.100848
H25   H     H_    0.767206 0.520238 0.619830 0.145768
H26   H     H_    0.826382 0.462839 0.818619 0.135638
H27   H     H_    0.876038 0.445573 0.890741 0.157635
H28   H     H_    0.816842 0.483592 0.691198 0.124314
H29   H     H_    0.388063 0.987083 0.886426 0.164957
H30   H     H_    0.420066 0.938856 0.815320 0.134118
H31   H     H_    0.522033 0.751888 0.689315 0.128640
H32   H     H_    0.540589 0.702129 0.617249 0.154428
C77   C     C_R   0.376240 0.754354 0.602177 -0.036919
C78   C     C_R   0.276873 0.804057 0.617916 0.187532
C79   C     C_R   0.267763 0.831565 0.659442 -0.187534
C80   C     C_R   0.356032 0.810635 0.685232 0.097070
C81   C     C_R   0.453315 0.767840 0.669484 -0.124473
C82   C     C_R   0.463386 0.740336 0.628234 -0.204527
C83   C     C_R   0.374230 0.913303 0.829514 -0.126515
C84   C     C_R   0.356544 0.939677 0.870295 -0.213327
C85   C     C_R   0.253202 0.850173 0.866818 0.381481
C86   C     C_R   0.270605 0.825517 0.825453 -0.181517
C87   C     C_R   0.328999 0.858877 0.806831 0.055784
C88   C     C_1   0.339488 0.841026 0.764054 -0.007619
C89   C     C_1   0.347324 0.827694 0.728110 -0.026318
C90   C     C_R   0.292856 0.912303 0.889167 -0.163677
H33   H     H_    0.238352 0.780609 0.807709 0.168713
H34   H     H_    0.192086 0.866169 0.671687 0.128537
O14   O     O_R   0.170070 0.978950 0.027680 -0.543994
O15   O     O_R   0.001760 0.175230 0.026640 -0.551151
C91   C     C_R   0.962874 0.264457 0.045380 0.800625
O16   O     O_R   0.984760 0.333570 0.037150 -0.507128
O17   O     O_R   0.183410 0.309240 0.041890 -0.505593
C92   C     C_R   0.273109 0.259703 0.059978 0.865501
O18   O     O_R   0.340240 0.172500 0.045430 -0.536673
O19   O     O_R   0.309670 0.000990 0.032050 -0.508285
C93   C     C_R   0.260025 0.958471 0.043505 0.853299
O20   O     O_R   0.168330 0.982130 0.939200 -0.512032
O21   O     O_R   0.000140 0.178170 0.944610 -0.540753
C94   C     C_R   0.962649 0.267592 0.930692 0.776273
O22   O     O_R   0.983010 0.336750 0.948660 -0.543013
O23   O     O_R   0.181800 0.312190 0.959860 -0.539424
C95   C     C_R   0.271272 0.264442 0.945576 0.807401
O24   O     O_R   0.338500 0.175680 0.956950 -0.523191
O25   O     O_R   0.308050 0.003930 0.950020 -0.538067
C96   C     C_R   0.256975 0.963785 0.929245 0.855780
Cr4   Cr    Cr6+3 0.087320 0.083240 0.984860 0.990519
Cr5   Cr    Cr6+3 0.087720 0.316210 0.996740 1.035022
Cr6   Cr    Cr6+3 0.317350 0.090340 0.995890 1.042352
O26   O     O_3   0.164130 0.163270 0.992500 -0.365725
N13   N     N_3   0.830499 0.471937 0.081952 -0.600722
H35   H     H_    0.750217 0.520827 0.080229 0.253722
H36   H     H_    0.864976 0.510166 0.100523 0.275109
N14   N     N_3   0.784435 0.173870 0.325768 -0.614282
H37   H     H_    0.710445 0.181290 0.326868 0.233683
H38   H     H_    0.837733 0.107650 0.340587 0.251377
N15   N     N_R   0.515082 0.796694 0.423672 0.110076
O27   O     O_R   0.604025 0.777176 0.411413 -0.354481
O28   O     O_R   0.489721 0.841443 0.459511 -0.341008
N16   N     N_R   0.437663 0.142892 0.193375 0.098048
O29   O     O_R   0.410464 0.127671 0.226865 -0.367237
O30   O     O_R   0.525239 0.072824 0.179345 -0.334875
N17   N     N_R   0.478968 0.869333 0.076958 0.122944
O31   O     O_R   0.498278 0.823536 0.040961 -0.358647
O32   O     O_R   0.535402 0.910620 0.093822 -0.320547
N18   N     N_3   0.526303 0.806640 0.156852 -0.554153
H39   H     H_    0.554873 0.734517 0.168904 0.234878
H40   H     H_    0.523043 0.861472 0.179994 0.306071
N19   N     N_R   0.491705 0.182728 0.584113 0.114167
O33   O     O_R   0.466431 0.159506 0.547320 -0.333005
O34   O     O_R   0.572439 0.112587 0.603595 -0.364849
N20   N     N_3   0.203141 0.552126 0.666667 -0.625075
H41   H     H_    0.226229 0.608496 0.665338 0.227881
H42   H     H_    0.130485 0.577482 0.650947 0.243509
N21   N     N_3   0.480316 0.187833 0.917928 -0.624842
H43   H     H_    0.513858 0.117921 0.900396 0.232927
H44   H     H_    0.533644 0.216201 0.922250 0.241110
N22   N     N_3   0.885304 0.121939 0.799762 -0.642604
H45   H     H_    0.830264 0.105699 0.809901 0.238898
H46   H     H_    0.864183 0.136782 0.769282 0.236258
N23   N     N_3   0.185505 0.824185 0.592185 -0.626855
H47   H     H_    0.149735 0.786028 0.602950 0.231989
H48   H     H_    0.134461 0.903771 0.594686 0.241015
N24   N     N_R   0.196674 0.811014 0.885487 0.105367
O35   O     O_R   0.125713 0.794638 0.864380 -0.360793
O36   O     O_R   0.226229 0.777272 0.921656 -0.348973
N25   N     N_R   0.183259 0.493892 0.401915 0.100713
O37   O     O_R   0.175756 0.463055 0.435993 -0.356135
O38   O     O_R   0.107053 0.579207 0.388451 -0.363055
N26   N     N_R   0.159181 0.476525 0.096122 0.113749
O39   O     O_R   0.072454 0.549458 0.109768 -0.356448
O40   O     O_R   0.190434 0.489549 0.063175 -0.354184

loop_
_geom_bond_atom_site_label_1
_geom_bond_atom_site_label_2
_geom_bond_distance
_ccdc_geom_bond_type
C21   C26   1.404023 A    
H3    C12   1.083344 S    
C77   C82   1.408596 A    
C22   H6    1.083169 S    
O23   Cr5   1.926030 S    
C74   C75   1.203025 T    
C30   C34   1.412290 A    
O19   Cr6   1.927166 S    
C9    H5    1.083702 S    
C53   C54   1.401272 A    
N6    C42   1.355819 A    
C44   H13   1.083299 S    
N11   C56   1.356596 A    
C25   N14   1.432613 S    
N11   N12   1.329333 A    
C71   C76   1.404029 A    
C71   C72   1.393026 A    
N13   H36   1.045763 S    
O4    Cr2   1.923294 S    
C2    C7    1.477797 S    
N15   O27   1.301437 A    
C31   C32   1.389964 A    
C83   C87   1.392545 A    
N19   O33   1.301546 A    
O8    Cr1   1.923220 S    
C7    C8    1.421158 A    
C57   C58   1.390778 A    
C73   C74   1.438164 S    
N22   H46   1.043456 S    
C23   H8    1.083289 S    
O4    C2    1.276096 A    
C13   C17   1.408799 A    
C17   C18   1.432461 S    
C1    C35   1.478319 S    
C69   N22   1.438931 S    
C4    C77   1.480507 S    
O17   Cr5   1.921642 S    
C85   C86   1.406537 A    
C11   C12   1.387628 A    
C45   C46   1.411708 A    
N26   O40   1.301495 A    
N20   H41   1.046033 S    
C29   H9    1.083410 S    
C83   C84   1.390299 A    
C79   H34   1.084224 S    
C76   C94   1.478095 S    
N16   O29   1.301243 A    
H1    C14   1.083142 S    
C15   C16   1.403812 A    
O25   C96   1.275381 A    
C65   H28   1.083617 S    
C66   C67   1.397709 A    
C49   C54   1.414636 A    
H32   C82   1.083239 S    
H30   C83   1.083873 S    
H23   C67   1.083650 S    
O21   C94   1.277927 A    
N2    C28   1.356915 A    
O17   C92   1.277483 A    
C64   H25   1.082957 S    
C87   C88   1.433148 S    
N24   O35   1.301447 A    
N19   O34   1.301652 A    
N7    C42   1.357284 A    
C10   C19   1.428770 S    
O15   Cr4   1.923694 S    
C84   C90   1.409492 A    
C31   H10   1.083339 S    
C58   H18   1.083267 S    
C37   C38   1.399242 A    
C10   C11   1.392939 A    
O21   Cr4   1.923214 S    
C85   C90   1.419417 A    
C49   C50   1.407222 A    
C24   C28   1.474269 S    
O22   Cr5   2.037681 S    
N15   O28   1.301466 A    
N5    N6    1.327064 A    
C48   C93   1.478328 S    
C77   C78   1.416084 A    
N21   H43   1.045775 S    
Cr3   O13   1.974861 S    
C94   O22   1.271887 A    
O23   C95   1.276550 A    
C52   C53   1.404409 A    
C45   C48   1.418511 A    
N10   C56   1.356464 A    
C60   C61   1.403035 A    
C78   N23   1.432555 S    
Cr5   O26   1.974696 S    
C46   C47   1.417092 A    
N23   H48   1.045585 S    
C57   C61   1.401822 A    
O24   Cr6   2.044477 S    
C55   C61   1.472521 S    
Cr4   O26   1.975897 S    
C91   O16   1.271137 A    
N3    C28   1.356301 A    
C26   H7    1.083667 S    
N22   H45   1.045556 S    
O20   Cr4   2.040119 S    
C15   C20   1.416582 A    
N14   H37   1.045932 S    
Cr1   O13   1.975970 S    
O1    C3    1.272095 A    
C80   C81   1.395718 A    
N20   H42   1.045538 S    
N7    N8    1.331676 A    
C41   C47   1.474536 S    
C95   O24   1.269983 A    
C34   C91   1.474383 S    
N26   O39   1.301449 A    
O6    C3    1.274910 A    
C59   N21   1.432787 S    
N3    N4    1.329832 A    
C57   H20   1.082873 S    
Cr6   O26   1.972892 S    
O1    Cr1   2.041782 S    
O16   Cr5   2.043238 S    
O12   Cr3   1.920604 S    
N4    C27   1.357544 A    
O14   C93   1.273104 A    
C86   H33   1.083809 S    
C16   C17   1.399017 A    
C66   C75   1.434493 S    
N8    C41   1.357846 A    
N18   H39   1.045646 S    
C69   C73   1.415004 A    
C18   C19   1.199715 T    
N13   H35   1.045644 S    
O10   Cr2   1.926004 S    
C40   N15   1.437341 S    
C43   C47   1.400706 A    
C50   H17   1.083786 S    
C24   C25   1.412713 A    
O20   C96   1.273786 A    
C52   C56   1.473239 S    
O7    Cr1   2.039002 S    
C67   C68   1.396132 A    
N5    C41   1.355648 A    
O14   Cr4   2.041549 S    
C8    N25   1.437596 S    
O12   C6    1.276327 A    
O15   C91   1.276208 A    
C72   H26   1.084006 S    
C51   C52   1.407536 A    
C14   C20   1.407035 A    
C88   C89   1.201911 T    
C62   C95   1.476189 S    
C30   N13   1.432848 S    
C69   C70   1.402320 A    
C27   C33   1.471939 S    
C54   N19   1.437031 S    
N25   O38   1.301430 A    
N9    C55   1.357115 A    
C63   C68   1.408319 A    
C20   C92   1.479182 S    
C53   H19   1.083523 S    
C92   O18   1.270437 A    
C51   N20   1.433116 S    
N1    N2    1.328604 A    
C1    O3    1.271398 A    
C37   H14   1.083157 S    
C38   C42   1.470660 S    
C39   H15   1.083021 S    
C21   C22   1.400891 A    
C15   N26   1.437812 S    
C86   C87   1.398876 A    
C29   C33   1.403874 A    
C43   H16   1.083399 S    
N23   H47   1.045822 S    
C29   C30   1.399579 A    
C9    C10   1.396739 A    
C3    C21   1.470493 S    
N18   H40   1.044269 S    
O9    Cr2   2.039140 S    
C71   H27   1.083033 S    
O2    Cr1   1.923214 S    
C43   C44   1.382855 A    
C7    C12   1.407341 A    
C13   N16   1.441943 S    
Cr2   O13   1.973008 S    
C39   C40   1.405141 A    
O6    Cr3   1.926377 S    
C6    C63   1.477903 S    
C60   H21   1.083405 S    
N14   H38   1.045577 S    
C79   C80   1.396558 A    
O11   Cr3   2.043572 S    
C2    O5    1.271886 A    
H29   C84   1.083421 S    
H22   C70   1.083634 S    
C31   C34   1.405660 A    
C13   C14   1.395472 A    
C16   H4    1.084015 S    
C35   C40   1.419114 A    
N17   O31   1.301345 A    
C36   H12   1.083277 S    
O5    Cr3   2.038959 S    
C65   C66   1.398827 A    
O19   C93   1.276190 A    
C44   C48   1.401047 A    
C32   C33   1.401375 A    
C90   C96   1.480295 S    
O7    C6    1.273216 A    
C25   C26   1.399109 A    
C5    O11   1.274077 A    
C50   C51   1.394723 A    
C45   N17   1.437135 S    
N16   O30   1.301574 A    
C64   C65   1.396569 A    
O2    C1    1.277029 A    
C59   C62   1.413301 A    
C32   H11   1.082909 S    
C70   C76   1.406531 A    
C36   C37   1.385241 A    
C35   C36   1.405632 A    
H2    C11   1.084216 S    
C46   N18   1.434645 S    
N17   O32   1.301227 A    
C23   C24   1.405311 A    
C78   C79   1.402222 A    
C5    C49   1.479279 S    
N25   O37   1.301488 A    
O3    Cr2   2.043671 S    
C22   C23   1.390434 A    
H31   C81   1.083678 S    
C38   C39   1.402984 A    
C4    O9    1.270289 A    
N24   O36   1.301449 A    
N12   C55   1.357093 A    
O18   Cr6   2.039424 S    
C58   C62   1.405669 A    
C59   C60   1.399663 A    
N21   H44   1.045595 S    
O25   Cr6   1.921531 S    
O10   C5    1.274814 A    
N9    N10   1.329599 A    
C81   C82   1.394290 A    
C80   C89   1.433011 S    
C85   N24   1.437908 S    
H24   C68   1.083047 S    
C63   C64   1.407091 A    
O8    C4    1.278674 A    
N1    C27   1.356152 A    
C72   C73   1.399001 A    
C8    C9    1.405736 A    
