data_mof_unit_20553.cif
_audit_creation_date              2012-12-11T15:42:42-0500
_audit_creation_method            fapswitch 2.2
_symmetry_space_group_name_H-M    P1
_symmetry_Int_Tables_number       1
_space_group_crystal_system       triclinic
_cell_length_a                    6.939138
_cell_length_b                    14.518581
_cell_length_c                    16.19447
_cell_angle_alpha                 90.568348
_cell_angle_beta                  89.899603
_cell_angle_gamma                 90.098792
_cell_volume                      1631.45000351

loop_
_atom_site_label
_atom_site_type_symbol
_atom_type_description
_atom_site_fract_x
_atom_site_fract_y
_atom_site_fract_z
_atom_type_partial_charge
O1    O     O_R   0.505810 0.583360 0.413880 -0.559377
O2    O     O_R   0.175870 0.595480 0.585520 -0.516251
O3    O     O_R   0.005540 0.416640 0.586120 -0.536413
C1    C     C_R   0.344548 0.617130 0.614934 0.776564
O4    O     O_R   0.176100 0.594390 0.414490 -0.533440
O5    O     O_R   0.005770 0.415540 0.413870 -0.533001
C2    C     C_R   0.344943 0.616858 0.386265 0.764924
O6    O     O_R   0.505580 0.584460 0.586130 -0.548361
O7    O     O_3   0.339190 0.441320 0.500000 -0.360562
V1    V     V_3+5 0.064350 0.510890 0.500000 1.519173
O8    O     O_R   0.676050 0.404520 0.414480 -0.538756
C3    C     C_R   0.844920 0.382294 0.385894 0.690710
O9    O     O_R   0.675830 0.405610 0.585510 -0.508180
C4    C     C_R   0.844480 0.382566 0.612814 0.768936
V2    V     V_3+5 0.564340 0.489110 0.500000 1.508443
O10   O     O_3   0.839370 0.558680 0.500000 -0.383573
C5    C     C_2   0.732953 0.198481 0.778408 -0.233385
C6    C     C_2   0.883776 0.191597 0.830603 0.178003
H1    H     H_    0.616634 0.148500 0.782559 0.114889
C7    C     C_2   0.706683 0.274518 0.717605 0.405232
C8    C     C_2   0.858370 0.309260 0.675366 -0.250968
H2    H     H_    0.001216 0.281036 0.684828 0.149815
C9    C     C_R   0.982460 0.264802 0.181978 0.334066
C10   C     C_R   0.965966 0.332269 0.245475 0.253830
C11   C     C_R   0.855614 0.313346 0.317495 -0.331340
C12   C     C_R   0.758738 0.227406 0.323783 0.359689
C13   C     C_R   0.769983 0.162280 0.259335 0.324575
C14   C     C_R   0.881425 0.180837 0.187808 -0.318338
C15   C     C_R   0.220371 0.681180 0.750658 0.372579
C16   C     C_R   0.236673 0.744580 0.817133 -0.344647
H3    H     H_    0.135996 0.741073 0.868201 0.135434
C17   C     C_R   0.382016 0.811965 0.818735 -0.161788
C18   C     C_R   0.516306 0.814644 0.753294 0.467222
C19   C     C_R   0.501331 0.750968 0.687247 -0.287988
H4    H     H_    0.601509 0.755537 0.636063 0.150710
C20   C     C_R   0.354509 0.684171 0.685116 -0.126962
C21   C     C_R   0.225936 0.760108 0.314841 0.443739
C22   C     C_R   0.246741 0.827203 0.252862 0.277726
C23   C     C_R   0.379640 0.813214 0.186706 -0.286385
C24   C     C_R   0.500252 0.734017 0.188305 0.339746
C25   C     C_R   0.491222 0.673813 0.255280 -0.246344
H5    H     H_    0.586949 0.614908 0.256012 0.164262
C26   C     C_R   0.354353 0.685027 0.318255 -0.272472
O11   O     O_R   0.230120 0.912300 0.917180 -0.551660
O12   O     O_R   0.559740 0.902430 0.088770 -0.538115
O13   O     O_R   0.729930 0.081310 0.089370 -0.542428
C27   C     C_R   0.390740 0.880470 0.117524 0.700919
O14   O     O_R   0.559840 0.901330 0.917750 -0.531956
O15   O     O_R   0.730030 0.080210 0.917120 -0.540774
C28   C     C_R   0.391242 0.879663 0.888371 0.738865
O16   O     O_R   0.230020 0.913400 0.089430 -0.534326
O17   O     O_3   0.396460 0.055470 0.003290 -0.365113
V3    V     V_3+5 0.671360 0.985960 0.003250 1.478746
O18   O     O_R   0.059740 0.091300 0.917690 -0.546952
C29   C     C_R   0.891139 0.115255 0.891182 0.673364
O19   O     O_R   0.059640 0.092400 0.088720 -0.515635
C30   C     C_R   0.890983 0.113659 0.118057 0.793885
V4    V     V_3+5 0.171350 0.007820 0.003190 1.484888
O20   O     O_3   0.896380 0.938200 0.003220 -0.375352
O21   O     O_3   0.647733 0.886258 0.749396 -0.557210
C31   C     C_3   0.834173 0.851221 0.762545 -0.176977
H6    H     H_    0.841621 0.811787 0.821051 0.124601
H7    H     H_    0.935946 0.909950 0.768283 0.155138
H8    H     H_    0.882542 0.807894 0.709482 0.143320
O22   O     O_3   0.095234 0.774243 0.378357 -0.540156
C32   C     C_3   0.909341 0.750659 0.349793 -0.080601
H9    H     H_    0.807831 0.753510 0.402754 0.143445
H10   H     H_    0.904638 0.679246 0.324087 0.098072
H11   H     H_    0.857298 0.800256 0.303010 0.167076
O23   O     O_3   0.138132 0.906492 0.260927 -0.622278
H12   H     H_    0.207842 0.958161 0.234854 0.302527
O24   O     O_3   0.626955 0.711525 0.125515 -0.630129
H13   H     H_    0.578271 0.736954 0.073103 0.289753
O25   O     O_3   0.025311 0.258926 0.830562 -0.644604
H14   H     H_    0.115986 0.247692 0.876527 0.307126
O26   O     O_3   0.523110 0.306492 0.701422 -0.626338
H15   H     H_    0.431123 0.274412 0.738261 0.299858
O27   O     O_3   0.089086 0.280519 0.111108 -0.631791
H16   H     H_    0.159053 0.339760 0.115757 0.341030
O28   O     O_3   0.056086 0.416316 0.234046 -0.641700
H17   H     H_    0.989497 0.464610 0.266755 0.287725
O29   O     O_3   0.655918 0.202199 0.393267 -0.591493
H18   H     H_    0.701498 0.238010 0.441694 0.286274
O30   O     O_3   0.675558 0.079380 0.270922 -0.597073
H19   H     H_    0.733380 0.031221 0.235129 0.292737
O31   O     O_3   0.077282 0.614905 0.749487 -0.637701
H20   H     H_    0.994718 0.622864 0.799083 0.289278

loop_
_geom_bond_atom_site_label_1
_geom_bond_atom_site_label_2
_ccdc_geom_bond_type
C32   H10   S    
C22   O23   S    
C25   H5    S    
C1    O6    A    
C1    C20   S    
V3    O20   S    
C14   C30   S    
C15   C20   A    
C12   C13   A    
C21   C22   A    
C4    C8    S    
C13   O30   S    
O5    C3    A    
C16   H3    S    
C32   H11   S    
V2    O10   S    
C5    C7    S    
O19   C30   A    
C7    O26   S    
C19   H4    S    
C31   H7    S    
O8    V2    S    
C10   O28   S    
O11   V4    S    
C21   O22   S    
C9    C10   A    
O23   H12   S    
O1    V2    S    
C2    C26   S    
O7    V1    S    
O14   C28   A    
C32   H9    S    
O12   V3    S    
C6    O25   S    
O1    C2    A    
O9    C4    A    
C25   C26   A    
C18   C19   A    
O26   H15   S    
O12   C27   A    
O14   V3    S    
O25   H14   S    
C10   C11   A    
C23   C24   A    
O4    C2    A    
O31   H20   S    
O24   H13   S    
C27   O16   A    
V4    O20   S    
O15   C29   A    
O21   C31   S    
C21   C26   A    
C31   H8    S    
O2    C1    A    
C15   C16   A    
C5    C6    D    
O16   V4    S    
C9    C14   A    
O30   H19   S    
C17   C28   S    
C15   O31   S    
O3    C4    A    
O17   V4    S    
C6    C29   S    
C24   C25   A    
O29   H18   S    
O6    V2    S    
O9    V2    S    
O13   C30   A    
O2    V1    S    
O17   V3    S    
C23   C27   S    
O18   V4    S    
O11   C28   A    
O18   C29   A    
C24   O24   S    
O27   H16   S    
O28   H17   S    
O5    V1    S    
O8    C3    A    
C18   O21   S    
C3    C11   S    
C17   C18   A    
C11   C12   A    
O4    V1    S    
O3    V1    S    
V1    O10   S    
C16   C17   A    
C22   C23   A    
O15   V3    S    
O13   V3    S    
C5    H1    S    
O19   V4    S    
C19   C20   A    
C9    O27   S    
O7    V2    S    
C31   H6    S    
C7    C8    D    
C12   O29   S    
O22   C32   S    
C13   C14   A    
C8    H2    S    
