data_mof_unit_60775.cif
_audit_creation_date              2012-12-10T20:53:53-0500
_audit_creation_method            fapswitch 2.2
_symmetry_space_group_name_H-M    P1
_symmetry_Int_Tables_number       1
_space_group_crystal_system       triclinic
_cell_length_a                    10.578981
_cell_length_b                    15.849227
_cell_length_c                    15.068091
_cell_angle_alpha                 90.003747
_cell_angle_beta                  102.141389
_cell_angle_gamma                 89.982536
_cell_volume                      2469.93400507

loop_
_atom_site_label
_atom_site_type_symbol
_atom_type_description
_atom_site_fract_x
_atom_site_fract_y
_atom_site_fract_z
_atom_type_partial_charge
C1    C     C_R   0.500046 0.338848 0.499985 1.014747
C2    C     C_1   0.499981 0.499939 0.192817 0.042864
C3    C     C_R   0.257456 0.494909 0.463980 0.979281
C4    C     C_R   0.742547 0.494886 0.536020 0.979306
C5    C     C_2   0.119873 0.477182 0.447138 -0.392476
C6    C     C_2   0.880147 0.477167 0.552863 -0.392477
C7    C     C_2   0.069357 0.428206 0.504372 -0.071191
C8    C     C_2   0.930715 0.428199 0.495626 -0.071253
C9    C     C_R   0.395156 0.956334 0.521258 -0.185104
C10   C     C_R   0.604851 0.043749 0.478743 -0.174650
C11   C     C_R   0.499982 0.913186 0.500011 0.173830
C12   C     C_R   0.499957 0.661153 0.500016 0.897138
C13   C     C_R   0.500023 0.086885 0.499990 0.161056
C14   C     C_R   0.604829 0.956258 0.478754 -0.185097
C15   C     C_R   0.395176 0.043825 0.521247 -0.174628
C16   C     C_1   0.499962 0.824398 0.500019 -0.073833
C17   C     C_1   0.500044 0.175649 0.499982 -0.059858
C18   C     C_1   0.500051 0.250470 0.499981 -0.094628
C19   C     C_1   0.499953 0.749556 0.500020 -0.178518
C20   C     C_2   0.856236 0.371904 0.424656 0.459322
C21   C     C_2   0.143896 0.371921 0.575347 0.459273
C22   C     C_R   0.383307 0.498695 0.935877 -0.161951
C23   C     C_R   0.616697 0.500923 0.064123 -0.162068
C24   C     C_R   0.500009 0.499825 0.905045 0.082039
C25   C     C_R   0.499994 0.499845 0.094956 0.082061
C26   C     C_R   0.616703 0.500920 0.970361 -0.162057
C27   C     C_R   0.383301 0.498711 0.029639 -0.162008
C28   C     C_1   0.500020 0.499905 0.807183 0.042869
H1    H     H_    0.942923 0.509240 0.609164 0.132161
H2    H     H_    0.708145 0.501790 0.112649 0.130627
H3    H     H_    0.894068 0.357365 0.364806 0.054021
H4    H     H_    0.106095 0.357398 0.635208 0.053910
H5    H     H_    0.057063 0.509251 0.390836 0.132148
H6    H     H_    0.314133 0.077778 0.537673 0.153074
H7    H     H_    0.685876 0.922319 0.462326 0.141485
H8    H     H_    0.314093 0.922454 0.537693 0.141495
H9    H     H_    0.685910 0.077642 0.462310 0.153053
H10   H     H_    0.291843 0.497852 0.051140 0.132335
H11   H     H_    0.708161 0.501794 0.948860 0.132303
H12   H     H_    0.291859 0.497816 0.887351 0.130650
N1    N     N_1   0.499960 0.500020 0.270540 -0.082796
N2    N     N_1   0.500040 0.499980 0.729460 -0.082789
O1    O     O_R   0.500000 0.378020 0.573650 -0.585401
O2    O     O_2   0.242274 0.336801 0.564983 -0.588736
O3    O     O_R   0.500000 0.621980 0.426350 -0.613305
O4    O     O_R   0.500060 0.378020 0.426320 -0.585429
O5    O     O_R   0.499940 0.621980 0.573680 -0.613298
O6    O     O_R   0.317790 0.500010 0.546150 -0.585690
O7    O     O_R   0.682210 0.499990 0.453850 -0.585682
O8    O     O_R   0.317850 0.500010 0.398830 -0.622273
O9    O     O_R   0.682150 0.499990 0.601170 -0.622276
O10   O     O_2   0.757876 0.336797 0.435011 -0.588709
Zn1   Zn    Zn3+2 0.499960 0.500000 0.598370 0.998569
Zn2   Zn    Zn3+2 0.500040 0.500000 0.401630 0.998563

loop_
_geom_bond_atom_site_label_1
_geom_bond_atom_site_label_2
_ccdc_geom_bond_type
C6    H1    S    
C9    H8    S    
C27   H10   S    
C20   H3    S    
C25   C27   A    
C21   O2    D    
C11   C16   S    
C15   H6    S    
C13   C17   S    
C4    O7    A    
O5    Zn1   S    
C22   H12   S    
O4    Zn2   S    
C12   O5    A    
C17   C18   T    
C9    C15   A    
C7    C8    S    
C20   O10   D    
C8    C20   S    
N1    Zn2   S    
C9    C11   A    
C1    C18   S    
O8    Zn2   S    
C10   H9    S    
C12   C19   S    
C28   N2    T    
C11   C14   A    
C3    O8    A    
C24   C26   A    
O3    Zn2   S    
C2    C25   S    
C22   C27   A    
C13   C15   A    
N2    Zn1   S    
C16   C19   T    
O6    Zn1   S    
C1    O4    A    
C21   H4    S    
C22   C24   A    
C26   H11   S    
C4    O9    A    
O7    Zn2   S    
C23   H2    S    
C3    O6    A    
C23   C25   A    
C4    C6    S    
C10   C14   A    
C23   C26   A    
C14   H7    S    
C5    C7    D    
C6    C8    D    
C2    N1    T    
C3    C5    S    
C7    C21   S    
O1    Zn1   S    
C1    O1    A    
C24   C28   S    
C12   O3    A    
O9    Zn1   S    
C10   C13   A    
C5    H5    S    
