data_mof_unit_27344.cif
_audit_creation_date              2013-03-05T16:33:48-0500
_audit_creation_method            fapswitch 2.2
_symmetry_space_group_name_H-M    P1
_symmetry_Int_Tables_number       1
_space_group_crystal_system       triclinic
_cell_length_a                    15.977623
_cell_length_b                    10.872982
_cell_length_c                    9.583188
_cell_angle_alpha                 91.11032
_cell_angle_beta                  89.162097
_cell_angle_gamma                 88.524301
_cell_volume                      1663.77852411

loop_
_atom_site_label
_atom_site_type_symbol
_atom_site_description
_atom_site_fract_x
_atom_site_fract_y
_atom_site_fract_z
_atom_type_partial_charge
O1    O     O_R   0.500000 0.319640 0.618810 -0.574333
O2    O     O_R   0.500010 0.319680 0.381230 -0.575433
C1    C     C_R   0.504731 0.262814 0.498443 0.831777
O3    O     O_R   0.380300 0.499950 0.618760 -0.508869
O4    O     O_R   0.380310 0.499990 0.381180 -0.595928
C2    C     C_R   0.341429 0.499925 0.500875 0.848554
Cu1   Cu    Cu3+1 0.500000 0.499980 0.640670 1.082936
Cu2   Cu    Cu3+1 0.500000 0.500020 0.359330 1.031294
O5    O     O_R   0.499990 0.680320 0.618770 -0.524884
O6    O     O_R   0.500000 0.680360 0.381190 -0.545511
O7    O     O_R   0.619690 0.500010 0.618820 -0.596909
O8    O     O_R   0.619700 0.500050 0.381240 -0.574364
C3    C     C_R   0.503260 0.737471 0.501351 0.889123
C4    C     C_R   0.658558 0.499744 0.499199 0.805926
C5    C     C_R   0.956115 0.401838 0.567243 0.223414
C6    C     C_R   0.912519 0.499351 0.502003 -0.154945
C7    C     C_R   0.956554 0.596447 0.441336 0.313048
C8    C     C_R   0.043994 0.593626 0.444839 -0.220534
H1    H     H_    0.078522 0.667334 0.398209 0.217989
C9    C     C_R   0.087569 0.497923 0.508972 -0.087041
C10   C     C_R   0.044396 0.401220 0.570790 0.265277
C11   C     C_1   0.822675 0.499563 0.498925 0.154069
C12   C     C_1   0.177269 0.498739 0.505814 0.131196
C13   C     C_1   0.252339 0.499432 0.503253 -0.041645
C14   C     C_1   0.747607 0.499602 0.497886 -0.065504
C15   C     C_R   0.474166 0.069154 0.606920 -0.006962
C16   C     C_R   0.509517 0.129379 0.495058 -0.141056
C17   C     C_R   0.549602 0.060135 0.385085 0.060048
C18   C     C_R   0.550187 0.930109 0.390022 0.358795
C19   C     C_R   0.510547 0.870942 0.503108 -0.216951
C20   C     C_R   0.472284 0.942214 0.610980 -0.060551
C21   C     C_3   0.489137 0.945955 0.766540 0.461790
C22   C     C_3   0.494719 0.085671 0.757964 0.031145
H2    H     H_    0.558081 0.123157 0.773991 0.123954
C23   C     C_R   0.560144 0.437474 0.070691 0.198108
N1    N     N_R   0.500520 0.500930 0.147930 -0.211586
C24   C     C_R   0.434811 0.550883 0.078660 -0.008650
H3    H     H_    0.383356 0.593825 0.137638 0.179451
C25   C     C_R   0.433405 0.549751 0.930630 0.441487
N2    N     N_R   0.500520 0.500890 0.852020 -0.242624
C26   C     C_R   0.559774 0.435810 0.923831 0.218526
C27   C     C_3   0.652868 0.447947 0.916663 -0.130389
C28   C     C_3   0.652340 0.453444 0.075728 -0.426815
H4    H     H_    0.673034 0.534877 0.868698 0.239888
H5    H     H_    0.684810 0.374501 0.125882 0.202354
H6    H     H_    0.668953 0.545353 0.118341 0.250547
N3    N     N_R   0.089867 0.300453 0.632089 0.167676
O9    O     O_R   0.150185 0.321086 0.718582 -0.253042
O10   O     O_R   0.071880 0.187438 0.599990 -0.225183
N4    N     N_R   0.358958 0.596638 0.867403 0.147058
O11   O     O_R   0.286097 0.565837 0.915888 -0.299511
O12   O     O_R   0.362599 0.685246 0.779198 -0.285269
C29   C     C_3   0.697601 0.331813 0.856376 -0.677754
H7    H     H_    0.766150 0.339697 0.869522 0.280610
H8    H     H_    0.676637 0.247986 0.910096 0.236700
H9    H     H_    0.684728 0.320446 0.743614 0.242965
N5    N     N_R   0.910929 0.305911 0.634071 0.155542
O13   O     O_R   0.853014 0.247655 0.567736 -0.325454
O14   O     O_R   0.928304 0.275488 0.761272 -0.268515
N6    N     N_R   0.914016 0.698297 0.376182 0.159487
O15   O     O_R   0.843436 0.743045 0.427113 -0.269271
O16   O     O_R   0.950477 0.755902 0.275196 -0.270681
C30   C     C_3   0.598622 0.124107 0.272019 -0.653519
H10   H     H_    0.637557 0.196709 0.319151 0.197643
H11   H     H_    0.642929 0.061771 0.213329 0.269641
H12   H     H_    0.554898 0.165834 0.196343 0.261253
N7    N     N_R   0.595855 0.858316 0.285652 0.129358
O17   O     O_R   0.573950 0.862062 0.155683 -0.266866
O18   O     O_R   0.658216 0.786787 0.321039 -0.305670
N8    N     N_R   0.417376 0.908763 0.852419 0.181286
O19   O     O_R   0.341467 0.928666 0.808656 -0.230581
O20   O     O_R   0.427643 0.886314 0.984025 -0.248048
N9    N     N_R   0.568578 0.883310 0.802348 0.120885
O21   O     O_R   0.639275 0.921203 0.751655 -0.338260
O22   O     O_R   0.568336 0.779362 0.867460 -0.283885
N10   N     N_R   0.429825 0.154953 0.838632 0.178331
O23   O     O_R   0.439409 0.172854 0.971955 -0.330184
O24   O     O_R   0.365772 0.206208 0.778000 -0.245951

loop_
_geom_bond_atom_site_label_1
_geom_bond_atom_site_label_2
_geom_bond_distance
_ccdc_geom_bond_type
C30   H11   1.107137 S    
N9    O22   1.301640 A    
C26   C27   1.497324 S    
C23   N1    1.362791 A    
Cu1   Cu2   2.696143 S    
N3    O10   1.301271 A    
C29   H7    1.109610 S    
Cu1   O7    1.920754 S    
C15   C16   1.387645 A    
C24   H3    1.081551 S    
C17   C18   1.415276 A    
N10   O24   1.302348 A    
C27   C29   1.533710 S    
Cu2   N1    2.025999 S    
C19   C20   1.403212 A    
O7    C4    1.295671 A    
N5    O14   1.301251 A    
C5    C6    1.414435 A    
N6    O16   1.301550 A    
C8    H1    1.084317 S    
N9    O21   1.302814 A    
O5    C3    1.296962 A    
C22   N10   1.467617 S    
C18   N7    1.435688 S    
N3    O9    1.301325 A    
C6    C7    1.413387 A    
C11   C14   1.199573 T    
N4    O12   1.295806 A    
Cu1   N2    2.025379 S    
N8    O19   1.303304 A    
C23   C28   1.489075 S    
C30   H12   1.109541 S    
C15   C20   1.382596 A    
C5    N5    1.438892 S    
C27   H4    1.112059 S    
O3    Cu1   1.927072 S    
C22   H2    1.112657 S    
C29   H8    1.112131 S    
N7    O17   1.299787 A    
C3    C19   1.458677 S    
N10   O23   1.300523 A    
O3    C2    1.297114 A    
C25   N2    1.389670 A    
C21   N8    1.471282 S    
C7    N6    1.441727 S    
N4    O11   1.301377 A    
N6    O15   1.301191 A    
O1    C1    1.298252 A    
C18   C19   1.420349 A    
C15   C22   1.497384 S    
C20   C21   1.518706 S    
C9    C12   1.433334 S    
Cu2   O8    1.927069 S    
C2    C13   1.423437 S    
C7    C8    1.397550 A    
C28   H5    1.112319 S    
N2    C26   1.368962 A    
O8    C4    1.297653 A    
C27   C28   1.524258 S    
C21   N9    1.473106 S    
C29   H9    1.108125 S    
Cu1   O5    1.976070 S    
N1    C24   1.357530 A    
C6    C11   1.436171 S    
O1    Cu1   1.967952 S    
O2    Cu2   1.976068 S    
O6    C3    1.300008 A    
O4    Cu2   1.920754 S    
C21   C22   1.527764 S    
C1    C16   1.450585 S    
O2    C1    1.294886 A    
C24   C25   1.418925 A    
N5    O13   1.301299 A    
O4    C2    1.296488 A    
C8    C9    1.394710 A    
C4    C14   1.422622 S    
C23   C26   1.407253 A    
C28   H6    1.112155 S    
C12   C13   1.199555 T    
C30   H10   1.110786 S    
C17   C30   1.517803 S    
C5    C10   1.411263 A    
C25   N4    1.429593 S    
C9    C10   1.407795 A    
Cu2   O6    1.967952 S    
C16   C17   1.418595 A    
N8    O20   1.301164 A    
N7    O18   1.301096 A    
C10   N3    1.438671 S    
