data_mof_unit_46508.cif
_audit_creation_date              2012-12-10T17:32:16-0500
_audit_creation_method            fapswitch 2.2
_symmetry_space_group_name_H-M    P1
_symmetry_Int_Tables_number       1
_space_group_crystal_system       triclinic
_cell_length_a                    12.332832
_cell_length_b                    13.272566
_cell_length_c                    15.023638
_cell_angle_alpha                 76.923454
_cell_angle_beta                  101.672362
_cell_angle_gamma                 116.697217
_cell_volume                      2125.68908411

loop_
_atom_site_label
_atom_site_type_symbol
_atom_type_description
_atom_site_fract_x
_atom_site_fract_y
_atom_site_fract_z
_atom_type_partial_charge
C1    C     C_R   0.854269 0.286903 0.503684 0.818333
C2    C     C_R   0.992530 0.588514 0.073666 0.060817
C3    C     C_R   0.007195 0.311439 0.087776 -0.204221
C4    C     C_R   0.002961 0.308008 0.995186 -0.159538
C5    C     C_R   0.996952 0.398248 0.926955 0.083721
C6    C     C_R   0.995319 0.493524 0.953565 0.003057
C7    C     C_R   0.990640 0.586425 0.886979 0.053585
C8    C     C_R   0.986560 0.679499 0.914569 0.155694
C9    C     C_R   0.987151 0.679490 0.007459 -0.207094
C10   C     C_R   0.992508 0.395890 0.833034 0.075201
C11   C     C_R   0.993955 0.491300 0.768169 -0.110626
C12   C     C_R   0.997412 0.496058 0.671209 0.837056
C13   C     C_R   0.991139 0.584150 0.794766 -0.232277
C14   C     C_R   0.263028 0.032504 0.463394 -0.160719
C15   C     C_R   0.225863 0.835166 0.473448 -0.087091
C16   C     C_R   0.812368 0.078635 0.518968 0.181610
C17   C     C_R   0.729876 0.964218 0.527065 -0.132532
C18   C     C_R   0.605298 0.932704 0.510935 -0.186677
C19   C     C_R   0.558505 0.014998 0.478644 0.097554
C20   C     C_R   0.640163 0.132428 0.467815 0.053321
C21   C     C_R   0.430840 0.982974 0.463598 0.059323
C22   C     C_R   0.386279 0.066040 0.455597 0.124573
C23   C     C_R   0.144869 0.713284 0.485786 0.848665
C24   C     C_R   0.464497 0.180355 0.434285 -0.213659
C25   C     C_R   0.587504 0.211319 0.431239 -0.169871
C26   C     C_R   0.345555 0.871262 0.454746 0.065848
C27   C     C_R   0.184801 0.916598 0.478425 -0.171951
C28   C     C_R   0.769170 0.165547 0.494736 -0.163252
C29   C     C_R   0.350168 0.332825 0.651457 -0.269141
C30   C     C_R   0.753035 0.644160 0.373482 0.348269
C31   C     C_R   0.648648 0.662670 0.341703 -0.234960
C32   C     C_R   0.545342 0.601801 0.386144 -0.216436
C33   C     C_R   0.545364 0.523775 0.466332 -0.007815
C34   C     C_R   0.000251 0.500268 0.328991 0.823462
C35   C     C_R   0.651837 0.501520 0.494886 0.234890
C36   C     C_R   0.443253 0.467536 0.518840 -0.025708
C37   C     C_R   0.447170 0.386808 0.597435 0.146284
C38   C     C_R   0.548132 0.361217 0.621960 -0.252498
C39   C     C_R   0.648130 0.417367 0.572076 -0.160100
C40   C     C_R   0.337873 0.490131 0.498102 0.033553
C41   C     C_R   0.250742 0.360624 0.628396 0.124366
C42   C     C_R   0.993061 0.589110 0.166382 -0.186962
C43   C     C_R   0.999917 0.498877 0.232656 -0.056971
C44   C     C_R   0.006964 0.407319 0.207014 -0.238896
C45   C     C_R   0.004084 0.404283 0.114283 0.121180
C46   C     C_R   0.997337 0.495446 0.047093 0.073173
Cu1   Cu    Cu3+1 0.098270 0.475420 0.521130 0.990571
Cu2   Cu    Cu3+1 0.901730 0.524580 0.478870 0.960081
H1    H     H_    0.990884 0.660860 0.187121 0.176958
H2    H     H_    0.429788 0.245194 0.415934 0.153900
H3    H     H_    0.228434 0.095380 0.460149 0.171145
H4    H     H_    0.545839 0.842842 0.525686 0.176360
H5    H     H_    0.762538 0.898117 0.548706 0.179798
H6    H     H_    0.637341 0.297170 0.398563 0.189204
H7    H     H_    0.176390 0.319607 0.670307 0.174690
H8    H     H_    0.550763 0.298000 0.681382 0.166450
H9    H     H_    0.351798 0.270436 0.711737 0.162647
H10   H     H_    0.012161 0.337666 0.259141 0.152119
H11   H     H_    0.326485 0.548996 0.439263 0.153922
H12   H     H_    0.466790 0.617713 0.355761 0.180231
H13   H     H_    0.647366 0.725426 0.281683 0.187112
H14   H     H_    0.720495 0.391663 0.596873 0.212578
H15   H     H_    0.012425 0.240997 0.138748 0.161059
H16   H     H_    0.006107 0.234514 0.978423 0.189636
H17   H     H_    0.990612 0.654877 0.742350 0.184845
H18   H     H_    0.983515 0.751038 0.027958 0.183298
H19   H     H_    0.091396 0.891045 0.489757 0.194408
N1    N     N_R   0.246280 0.438190 0.553160 -0.189380
N2    N     N_R   0.754320 0.561190 0.447410 -0.226083
O1    O     O_R   0.972510 0.318130 0.526570 -0.538396
O2    O     O_R   0.806530 0.359650 0.490890 -0.625255
O3    O     O_R   0.082980 0.479210 0.647590 -0.562552
O4    O     O_R   0.917000 0.520730 0.611900 -0.601079
O5    O     O_R   0.193470 0.640350 0.509110 -0.566916
O6    O     O_R   0.027490 0.681870 0.473430 -0.563762
O7    O     O_R   0.083000 0.479270 0.388100 -0.580516
O8    O     O_R   0.917020 0.520790 0.352410 -0.569657
I1    I     I_    0.375055 0.788567 0.361428 -0.420694
I2    I     I_    0.998451 0.103232 0.545599 -0.367242
I3    I     I_    0.901704 0.756063 0.297852 -0.368988
I4    I     I_    0.968836 0.244913 0.786646 -0.363949
I5    I     I_    0.978142 0.823560 0.821405 -0.331083

loop_
_geom_bond_atom_site_label_1
_geom_bond_atom_site_label_2
_ccdc_geom_bond_type
C16   C28   A    
C21   C26   A    
C31   H13   S    
C19   C20   A    
Cu2   N2    S    
C18   H4    S    
C7    C8    A    
C13   H17   S    
C45   C46   A    
C2    C46   A    
C26   I1    S    
C8    I5    S    
C36   C37   A    
C19   C21   A    
Cu1   O7    S    
C34   O8    A    
C30   C31   A    
C20   C25   A    
C33   C36   A    
C18   C19   A    
C9    H18   S    
C41   H7    S    
C31   C32   A    
C44   H10   S    
C8    C9    A    
C1    C28   S    
C14   C27   A    
C30   I3    S    
C15   C23   S    
C12   O3    A    
C40   H11   S    
C21   C22   A    
Cu2   O6    S    
C41   N1    A    
C24   H2    S    
C38   C39   A    
C36   C40   A    
C25   H6    S    
C16   C17   A    
C15   C26   A    
C20   C28   A    
C3    C45   A    
Cu2   O8    S    
C35   C39   A    
C43   C44   A    
Cu1   O1    S    
C37   C38   A    
C15   C27   A    
Cu1   Cu2   S    
C17   C18   A    
C1    O2    A    
C24   C25   A    
C29   H9    S    
C22   C24   A    
C42   C43   A    
C32   H12   S    
Cu2   O2    S    
C3    C4    A    
C17   H5    S    
Cu1   N1    S    
C30   N2    A    
C44   C45   A    
C39   H14   S    
C6    C46   A    
C29   C41   A    
Cu2   O4    S    
C34   C43   S    
Cu1   O5    S    
C23   O6    A    
C4    C5    A    
C11   C12   S    
C6    C7    A    
C3    H15   S    
C4    H16   S    
C10   I4    S    
C1    O1    A    
C16   I2    S    
C32   C33   A    
C14   C22   A    
C5    C10   A    
C11   C13   A    
C5    C6    A    
C2    C42   A    
C33   C35   A    
Cu1   O3    S    
C27   H19   S    
C10   C11   A    
C42   H1    S    
C7    C13   A    
C38   H8    S    
C35   N2    A    
C14   H3    S    
C40   N1    A    
C29   C37   A    
C23   O5    A    
C12   O4    A    
C2    C9    A    
C34   O7    A    
