data_mof_unit_12753.cif
_audit_creation_date              2012-12-10T16:50:17-0500
_audit_creation_method            fapswitch 2.2
_symmetry_space_group_name_H-M    P1
_symmetry_Int_Tables_number       1
_space_group_crystal_system       triclinic
_cell_length_a                    23.503406
_cell_length_b                    8.88252
_cell_length_c                    7.592804
_cell_angle_alpha                 103.692916
_cell_angle_beta                  94.636714
_cell_angle_gamma                 95.937749
_cell_volume                      1522.7049287

loop_
_atom_site_label
_atom_site_type_symbol
_atom_type_description
_atom_site_fract_x
_atom_site_fract_y
_atom_site_fract_z
_atom_type_partial_charge
C1    C     C_R   0.496368 0.200318 0.453846 0.809690
C2    C     C_R   0.710364 0.596307 0.462097 -0.091831
C3    C     C_R   0.229213 0.397340 0.419221 -0.131785
C4    C     C_R   0.768998 0.583656 0.476155 -0.129252
C5    C     C_R   0.210737 0.504993 0.563290 0.242074
C6    C     C_R   0.790470 0.465853 0.545593 0.254080
C7    C     C_2   0.489189 0.032402 0.432481 -0.261896
C8    C     C_2   0.506869 0.967306 0.570922 -0.248047
C9    C     C_R   0.391241 0.500618 0.501808 0.781851
C10   C     C_R   0.608787 0.499384 0.499320 0.785271
C11   C     C_R   0.886225 0.595325 0.670381 0.532420
C12   C     C_R   0.501822 0.799382 0.546697 0.817801
C13   C     C_R   0.117311 0.354946 0.564116 0.538234
C14   C     C_R   0.875664 0.335365 0.482336 0.550660
C15   C     C_R   0.123531 0.631134 0.617434 0.535791
C16   C     C_R   0.935749 0.329383 0.509400 -0.023885
C17   C     C_R   0.066107 0.626859 0.660563 -0.048886
C18   C     C_R   0.971016 0.471100 0.597396 -0.050273
C19   C     C_R   0.031397 0.480578 0.603849 -0.036814
C20   C     C_R   0.946136 0.605069 0.674756 -0.045914
C21   C     C_R   0.057143 0.344069 0.549915 -0.030317
C22   C     C_R   0.962552 0.191274 0.449631 0.137817
C23   C     C_R   0.252415 0.617773 0.682237 -0.007007
C24   C     C_R   0.041185 0.760414 0.748863 0.142330
C25   C     C_R   0.022750 0.200621 0.480131 -0.225686
C26   C     C_R   0.981370 0.745960 0.755441 -0.178551
C27   C     C_3   0.930276 0.030441 0.359658 -0.372494
C28   C     C_3   0.898523 0.960283 0.494793 -0.687579
C29   C     C_3   0.076025 0.916326 0.847758 -0.336893
C30   C     C_3   0.066029 0.965254 0.049003 -0.838662
C31   C     C_1   0.236719 0.712619 0.849945 0.283350
C32   C     C_1   0.773384 0.241567 0.682954 0.281695
C33   C     C_3   0.349804 0.783915 0.722396 -0.393387
C34   C     C_R   0.751619 0.352431 0.590601 -0.001048
C35   C     C_3   0.355998 0.876978 0.578162 -0.791841
C36   C     C_3   0.649876 0.210703 0.550973 -0.400379
C37   C     C_3   0.627263 0.127539 0.353859 -0.762094
C38   C     C_1   0.302294 0.245586 0.293664 0.248723
C39   C     C_1   0.692876 0.734745 0.421142 0.240302
C40   C     C_1   0.458428 0.941455 0.260488 0.299674
C41   C     C_1   0.536018 0.057387 0.746227 0.272616
C42   C     C_3   0.430216 0.371630 0.939113 -0.060171
C43   C     C_3   0.413386 0.219853 0.991794 -0.802894
C44   C     C_3   0.570086 0.628432 0.058853 -0.036895
C45   C     C_R   0.310236 0.631674 0.642129 0.065714
C46   C     C_3   0.587654 0.777925 0.999891 -0.796473
C47   C     C_R   0.691628 0.352812 0.553156 0.061626
C48   C     C_R   0.328895 0.508696 0.511600 -0.106951
C49   C     C_R   0.670836 0.481270 0.499372 -0.095043
C50   C     C_R   0.287495 0.388804 0.404429 -0.094460
Cu1   Cu    Cu3+1 0.506340 0.517380 0.684380 0.942302
Cu2   Cu    Cu3+1 0.493660 0.482620 0.315620 0.954435
H1    H     H_    0.043185 0.095581 0.440644 0.188334
H2    H     H_    0.022173 0.998606 0.064087 0.235307
H3    H     H_    0.072232 0.868878 0.116161 0.274780
H4    H     H_    0.097266 0.068636 0.119884 0.264227
H5    H     H_    0.122845 0.913964 0.848381 0.270494
H6    H     H_    0.064227 0.007970 0.779115 0.218817
H7    H     H_    0.386704 0.984452 0.633718 0.228377
H8    H     H_    0.372418 0.806937 0.455960 0.257030
H9    H     H_    0.313696 0.910893 0.536783 0.281849
H10   H     H_    0.333229 0.859019 0.840599 0.228291
H11   H     H_    0.392725 0.762750 0.774481 0.249022
H12   H     H_    0.962082 0.846784 0.821795 0.180938
H13   H     H_    0.599096 0.018897 0.350766 0.242286
H14   H     H_    0.602020 0.201198 0.287442 0.266968
H15   H     H_    0.663760 0.098363 0.273258 0.277843
H16   H     H_    0.669702 0.126329 0.615379 0.228961
H17   H     H_    0.614055 0.245714 0.630314 0.229862
H18   H     H_    0.447256 0.141698 0.966470 0.261457
H19   H     H_    0.405139 0.240907 0.134670 0.293355
H20   H     H_    0.372806 0.159452 0.908822 0.218219
H21   H     H_    0.395269 0.447057 0.961441 0.171508
H22   H     H_    0.433419 0.328942 0.795038 0.211547
H23   H     H_    0.197934 0.311417 0.325011 0.176590
H24   H     H_    0.599032 0.757026 0.859257 0.275667
H25   H     H_    0.553288 0.855216 0.019405 0.261472
H26   H     H_    0.627242 0.841240 0.084419 0.224917
H27   H     H_    0.566910 0.673249 0.203083 0.210348
H28   H     H_    0.604656 0.551635 0.038628 0.171072
H29   H     H_    0.798723 0.670859 0.441248 0.161299
H30   H     H_    0.925955 0.982525 0.626254 0.238837
H31   H     H_    0.857900 0.010116 0.520192 0.290874
H32   H     H_    0.887951 0.832253 0.438721 0.227106
H33   H     H_    0.901015 0.032411 0.238429 0.259227
H34   H     H_    0.960847 0.948164 0.304774 0.181721
N1    N     N_R   0.852060 0.463951 0.569881 -0.451466
N2    N     N_1   0.559343 0.128387 0.885899 -0.291520
N3    N     N_R   0.149783 0.497391 0.586686 -0.446343
N4    N     N_2   0.484110 0.456420 0.038520 -0.064052
N5    N     N_2   0.515890 0.543580 0.961480 -0.069667
N6    N     N_1   0.224272 0.788062 0.984257 -0.247726
N7    N     N_1   0.790558 0.153486 0.758039 -0.255560
N8    N     N_1   0.312250 0.127418 0.206971 -0.287874
N9    N     N_1   0.679913 0.848081 0.390249 -0.325977
N10   N     N_1   0.433789 0.868970 0.123691 -0.296062
O1    O     O_R   0.504120 0.286130 0.619770 -0.596273
O2    O     O_2   0.142804 0.224043 0.551867 -0.541203
O3    O     O_2   0.841109 0.217683 0.365053 -0.545933
O4    O     O_2   0.151247 0.763702 0.592061 -0.536106
O5    O     O_R   0.495880 0.713870 0.380230 -0.592267
O6    O     O_R   0.493410 0.256770 0.308360 -0.576305
O7    O     O_R   0.506590 0.743230 0.691640 -0.578998
O8    O     O_R   0.423230 0.514630 0.655730 -0.623511
O9    O     O_R   0.576770 0.485370 0.344270 -0.610216
O10   O     O_R   0.412530 0.485280 0.344320 -0.578673
O11   O     O_R   0.587470 0.514720 0.655680 -0.587465
O12   O     O_2   0.862153 0.717428 0.763233 -0.546450

loop_
_geom_bond_atom_site_label_1
_geom_bond_atom_site_label_2
_ccdc_geom_bond_type
Cu1   O1    S    
C43   H20   S    
C23   C45   A    
C28   H32   S    
C33   C45   S    
Cu2   N4    S    
C15   O4    S    
C46   H24   S    
C7    C8    D    
C47   C49   A    
C30   H2    S    
Cu2   O6    S    
C36   C37   S    
C19   C21   A    
C25   H1    S    
C14   N1    A    
C33   C35   S    
Cu1   O7    S    
C36   C47   S    
C35   H7    S    
C18   C19   A    
C13   O2    S    
C27   H33   S    
C26   H12   S    
C24   C29   S    
Cu1   N5    S    
C2    C39   S    
C4    H29   S    
C11   N1    A    
C33   H10   S    
C22   C25   A    
C37   H13   S    
C16   C22   A    
C7    C40   S    
C3    H23   S    
C33   H11   S    
C48   C50   A    
C32   N7    T    
Cu2   O10   S    
C28   H31   S    
C10   O11   A    
C40   N10   T    
C3    C50   A    
C44   C46   S    
C11   C20   A    
Cu2   O5    S    
C42   H22   S    
C17   C24   A    
C28   H30   S    
Cu1   Cu2   S    
C44   H28   S    
C8    C41   S    
C12   O7    A    
C4    C6    A    
C1    O1    A    
C46   H26   S    
C9    O10   A    
C30   H4    S    
C6    N1    S    
C6    C34   A    
C35   H8    S    
C42   N4    S    
C32   C34   S    
C27   H34   S    
C2    C4    A    
C29   C30   S    
C2    C49   A    
C15   N3    A    
C5    C23   A    
C8    C12   S    
C37   H14   S    
C38   N8    T    
C13   C21   A    
C35   H9    S    
C39   N9    T    
C44   N5    S    
C16   C18   A    
C29   H5    S    
Cu2   O9    S    
C43   H18   S    
C22   C27   S    
C14   C16   A    
C42   C43   S    
C11   O12   S    
C36   H17   S    
C45   C48   A    
C15   C17   A    
C41   N2    T    
C21   C25   A    
C42   H21   S    
C43   H19   S    
C13   N3    A    
C1    C7    S    
C44   H27   S    
C24   C26   A    
C3    C5    A    
C46   H25   S    
C36   H16   S    
C38   C50   S    
C30   H3    S    
Cu1   O8    S    
C12   O5    A    
C14   O3    S    
N4    N5    D    
C20   C26   A    
C9    O8    A    
C37   H15   S    
C17   C19   A    
C18   C20   A    
C29   H6    S    
C9    C48   S    
Cu1   O11   S    
C31   N6    T    
C27   C28   S    
C10   O9    A    
C34   C47   A    
C10   C49   S    
C1    O6    A    
C5    N3    S    
C23   C31   S    
