data_mof_unit_14441.cif
_audit_creation_date              2012-12-11T17:43:55-0500
_audit_creation_method            fapswitch 2.2
_symmetry_space_group_name_H-M    P1
_symmetry_Int_Tables_number       1
_space_group_crystal_system       triclinic
_cell_length_a                    20.235032
_cell_length_b                    22.726346
_cell_length_c                    6.941331
_cell_angle_alpha                 90.004594
_cell_angle_beta                  87.100017
_cell_angle_gamma                 89.985168
_cell_volume                      3188.01034369

loop_
_atom_site_label
_atom_site_type_symbol
_atom_type_description
_atom_site_fract_x
_atom_site_fract_y
_atom_site_fract_z
_atom_type_partial_charge
O1    O     O_R   0.751270 0.447300 0.600030 -0.543368
O2    O     O_R   0.248730 0.947300 0.399970 -0.542759
O3    O     O_R   0.613530 0.440160 0.952150 -0.533427
O4    O     O_R   0.386470 0.940160 0.047850 -0.536703
O5    O     O_R   0.613050 0.552700 0.122560 -0.536219
O6    O     O_R   0.386950 0.052700 0.877440 -0.535882
C1    C     C_R   0.591683 0.425185 0.786630 0.712499
C2    C     C_R   0.408287 0.925114 0.213367 0.707034
O7    O     O_R   0.750780 0.440350 0.929820 -0.542358
O8    O     O_R   0.249220 0.940350 0.070180 -0.542896
O9    O     O_R   0.751280 0.552900 0.100070 -0.539703
O10   O     O_R   0.248720 0.052900 0.899930 -0.538972
C3    C     C_R   0.773755 0.425991 0.757669 0.695765
C4    C     C_R   0.226242 0.925992 0.242324 0.693772
O11   O     O_R   0.613040 0.447100 0.622520 -0.539796
O12   O     O_R   0.386960 0.947100 0.377480 -0.537883
O13   O     O_3   0.682160 0.536920 0.777780 -0.366245
O14   O     O_3   0.317840 0.036920 0.222220 -0.365168
V1    V     V_3+5 0.682160 0.493150 0.052630 1.426676
V2    V     V_3+5 0.317840 0.993150 0.947370 1.418753
O15   O     O_R   0.750790 0.559840 0.429870 -0.544906
O16   O     O_R   0.249210 0.059840 0.570130 -0.544652
C5    C     C_R   0.773462 0.574443 0.257801 0.703301
C6    C     C_R   0.226546 0.074448 0.742207 0.704803
O17   O     O_R   0.613540 0.559650 0.452200 -0.536984
O18   O     O_R   0.386460 0.059650 0.547800 -0.537179
C7    C     C_R   0.591626 0.574449 0.286359 0.704787
C8    C     C_R   0.408445 0.074336 0.713599 0.703724
V3    V     V_3+5 0.682160 0.506850 0.552630 1.418388
V4    V     V_3+5 0.317840 0.006850 0.447370 1.416818
O19   O     O_3   0.682150 0.463080 0.277610 -0.367675
O20   O     O_3   0.317850 0.963080 0.722390 -0.368337
C9    C     C_R   0.580884 0.862183 0.141133 0.232664
C10   C     C_R   0.419213 0.361947 0.855594 0.235487
C11   C     C_R   0.463782 0.882254 0.211354 -0.241041
C12   C     C_R   0.536402 0.382193 0.788278 -0.259247
C13   C     C_R   0.472742 0.595603 0.284101 -0.224789
C14   C     C_R   0.527214 0.095150 0.721405 -0.196548
C15   C     C_R   0.420436 0.631781 0.239121 -0.095911
C16   C     C_R   0.579540 0.131749 0.762559 -0.180681
C17   C     C_R   0.430334 0.691524 0.199214 0.279478
C18   C     C_R   0.569692 0.192157 0.792488 0.267998
C19   C     C_R   0.493331 0.717846 0.229306 0.080648
C20   C     C_R   0.506795 0.217993 0.761815 0.119839
C21   C     C_R   0.547831 0.679078 0.252985 -0.015703
C22   C     C_R   0.452321 0.179066 0.740763 -0.033775
C23   C     C_R   0.505147 0.780295 0.222618 -0.047238
C24   C     C_R   0.495010 0.280415 0.769976 -0.033677
C25   C     C_R   0.571093 0.801295 0.185391 -0.069931
C26   C     C_R   0.429032 0.301326 0.807533 -0.091331
C27   C     C_R   0.624719 0.761080 0.196270 0.365818
C28   C     C_R   0.375412 0.261249 0.794015 0.369494
C29   C     C_R   0.612178 0.701687 0.239328 -0.244373
C30   C     C_R   0.387997 0.201785 0.752015 -0.247057
C31   C     C_R   0.453885 0.822295 0.263227 0.270477
C32   C     C_R   0.546421 0.322528 0.732906 0.349415
C33   C     C_R   0.527156 0.901136 0.145846 0.157189
C34   C     C_R   0.472972 0.400792 0.854427 0.152981
C35   C     C_R   0.537039 0.617728 0.281705 -0.072361
C36   C     C_R   0.463079 0.117483 0.717997 -0.072008
H1    H     H_    0.463742 0.548980 0.305203 0.128939
H2    H     H_    0.536114 0.048333 0.705595 0.128123
H3    H     H_    0.372380 0.612151 0.220790 0.147699
H4    H     H_    0.627698 0.112466 0.782104 0.138790
H5    H     H_    0.653876 0.672510 0.255176 0.097354
H6    H     H_    0.346320 0.172599 0.736244 0.099695
C37   C     C_R   0.171675 0.881978 0.260161 -0.046221
C38   C     C_R   0.828319 0.381970 0.739823 -0.044107
C39   C     C_R   0.140082 0.861863 0.096314 -0.212774
C40   C     C_R   0.859954 0.361911 0.903663 -0.212324
C41   C     C_R   0.088283 0.820904 0.114121 -0.136427
C42   C     C_R   0.911752 0.320940 0.885872 -0.138364
C43   C     C_R   0.066985 0.798874 0.297188 0.426999
C44   C     C_R   0.933004 0.298846 0.702831 0.426671
C45   C     C_R   0.098877 0.818641 0.459583 -0.180986
C46   C     C_R   0.901067 0.318552 0.540440 -0.182832
C47   C     C_R   0.150314 0.859748 0.442005 -0.193421
C48   C     C_R   0.849628 0.359674 0.558002 -0.193524
C49   C     C_R   0.892381 0.696846 0.386096 0.196350
C50   C     C_R   0.107711 0.196936 0.614034 0.196445
C51   C     C_R   0.841629 0.654664 0.399386 -0.189455
C52   C     C_R   0.158454 0.154733 0.600718 -0.191003
C53   C     C_R   0.931485 0.703040 0.210321 0.376432
C54   C     C_R   0.068572 0.203103 0.789750 0.376368
N1    N     N_2   0.014846 0.756808 0.325800 -0.314659
N2    N     N_2   0.985144 0.256767 0.674271 -0.315711
N3    N     N_2   0.983640 0.745144 0.179890 -0.303513
N4    N     N_2   0.016423 0.245220 0.820135 -0.303827
C55   C     C_R   0.827304 0.619066 0.241098 -0.117472
C56   C     C_R   0.172721 0.119090 0.758936 -0.117541
H7    H     H_    0.812523 0.650522 0.534100 0.156811
H8    H     H_    0.187597 0.150609 0.466055 0.157019
H9    H     H_    0.083530 0.802174 0.601283 0.120068
H10   H     H_    0.916381 0.302027 0.398769 0.119653
H11   H     H_    0.173472 0.873939 0.571363 0.134775
H12   H     H_    0.826426 0.373823 0.428661 0.134739
C57   C     C_R   0.864627 0.626764 0.066897 -0.192039
C58   C     C_R   0.135369 0.126767 0.933105 -0.191461
C59   C     C_R   0.915841 0.668098 0.052471 -0.187599
C60   C     C_R   0.084168 0.168129 0.947557 -0.188556
H13   H     H_    0.854762 0.600369 0.941642 0.145121
H14   H     H_    0.145201 0.100336 0.058303 0.145011
H15   H     H_    0.065307 0.806532 0.984744 0.134968
H16   H     H_    0.934764 0.306609 0.015244 0.134987
H17   H     H_    0.944202 0.672584 0.916869 0.140989
H18   H     H_    0.055778 0.172610 0.083124 0.140287
H19   H     H_    0.155116 0.877981 0.953992 0.132449
H20   H     H_    0.844954 0.378084 0.045962 0.132416
N5    N     N_3   0.538953 0.961366 0.091382 -0.615958
H21   H     H_    0.510393 0.971381 0.974456 0.226940
H22   H     H_    0.524100 0.988511 0.207292 0.222319
N6    N     N_3   0.461118 0.460706 0.912666 -0.611903
H23   H     H_    0.489511 0.469989 0.030585 0.228450
H24   H     H_    0.476089 0.488532 0.798681 0.223269
N7    N     N_3   0.900415 0.733982 0.550078 -0.661638
H25   H     H_    0.899226 0.777941 0.505995 0.259398
H26   H     H_    0.945871 0.724820 0.608309 0.246666
N8    N     N_3   0.099720 0.234127 0.450169 -0.661102
H27   H     H_    0.100860 0.278071 0.494446 0.260036
H28   H     H_    0.054294 0.224987 0.391743 0.246292
O21   O     O_3   0.689434 0.780298 0.172738 -0.656858
H29   H     H_    0.720338 0.746725 0.183993 0.295556
O22   O     O_3   0.310688 0.280635 0.814960 -0.655902
H30   H     H_    0.279769 0.247171 0.801911 0.295562
N9    N     N_3   0.644439 0.886298 0.084148 -0.597095
H31   H     H_    0.664512 0.863345 0.964481 0.266807
H32   H     H_    0.675418 0.884216 0.199891 0.274849
N10   N     N_3   0.355608 0.385805 0.913590 -0.593448
H33   H     H_    0.335291 0.362013 0.031084 0.267074
H34   H     H_    0.324839 0.384673 0.797228 0.275721
O23   O     O_3   0.397091 0.803812 0.365051 -0.650804
H35   H     H_    0.366673 0.837158 0.391718 0.287037
O24   O     O_3   0.602795 0.304903 0.626889 -0.632772
H36   H     H_    0.634022 0.337987 0.606944 0.287373
N11   N     N_3   0.380088 0.719777 0.092721 -0.659417
H37   H     H_    0.339698 0.730442 0.185908 0.266885
H38   H     H_    0.397896 0.756817 0.017882 0.247201
N12   N     N_3   0.620838 0.224636 0.880848 -0.630761
H39   H     H_    0.664757 0.219542 0.796354 0.248637
H40   H     H_    0.628216 0.205864 0.015617 0.225220

loop_
_geom_bond_atom_site_label_1
_geom_bond_atom_site_label_2
_ccdc_geom_bond_type
C53   N3    S    
C49   N7    S    
C18   N12   S    
O13   V3    S    
C1    C12   S    
C37   C47   A    
O4    C2    A    
V1    O19   S    
N10   H33   S    
N6    H24   S    
C32   O24   S    
C39   H19   S    
O22   H30   S    
C23   C25   A    
O9    V1    S    
C44   C46   A    
C34   N6    S    
C46   C48   A    
O5    V1    S    
C12   C34   A    
N5    H22   S    
C28   O22   S    
N2    N4    D    
C9    C25   A    
N7    H25   S    
C52   H8    S    
N11   H38   S    
C39   C41   A    
O7    C3    A    
N8    H27   S    
C46   H10   S    
O5    C7    A    
O7    V1    S    
C33   N5    S    
C48   H12   S    
C25   C27   A    
C26   C28   A    
C4    C37   S    
C5    C55   S    
O3    V1    S    
O14   V4    S    
V4    O20   S    
C29   H5    S    
C50   C54   A    
C51   C55   A    
C24   C26   A    
C21   C29   A    
C2    O12   A    
C53   C59   A    
O17   V3    S    
C17   C19   A    
O10   V2    S    
C18   C20   A    
O1    V3    S    
N6    H23   S    
C57   C59   A    
C28   C30   A    
O11   V3    S    
N1    N3    D    
C38   C48   A    
C59   H17   S    
C50   N8    S    
C10   C26   A    
C40   C42   A    
C11   C31   A    
C54   C60   A    
N11   H37   S    
C42   C44   A    
O8    C4    A    
O8    V2    S    
C49   C51   A    
C1    O11   A    
C42   H16   S    
N7    H26   S    
C58   H14   S    
O15   V3    S    
C47   H11   S    
C55   C57   A    
C37   C39   A    
C2    C11   S    
C51   H7    S    
C12   C32   A    
C45   C47   A    
C22   C30   A    
C9    N9    S    
C44   N2    S    
N9    H32   S    
C19   C21   A    
C43   N1    S    
O21   H29   S    
C13   C35   A    
C8    C36   S    
N12   H40   S    
C14   C36   A    
C50   C52   A    
O18   V4    S    
C31   O23   S    
O15   C5    A    
O24   H36   S    
C27   O21   S    
O16   C6    A    
O1    C3    A    
C43   C45   A    
O23   H35   S    
C17   N11   S    
C15   H3    S    
C45   H9    S    
C23   C31   A    
V2    O20   S    
C24   C32   A    
C41   H15   S    
C21   C35   A    
C9    C33   A    
O16   V4    S    
C22   C36   A    
O18   C8    A    
C54   N4    S    
C16   C18   A    
N10   H34   S    
C13   H1    S    
C30   H6    S    
O4    V2    S    
C60   H18   S    
O17   C7    A    
O6    V2    S    
O10   C6    A    
O3    C1    A    
C52   C56   A    
C11   C33   A    
O2    V4    S    
C6    C56   S    
V3    O19   S    
C7    C35   S    
N5    H21   S    
C14   C16   A    
N9    H31   S    
C19   C23   A    
C16   H4    S    
O9    C5    A    
O13   V1    S    
O14   V2    S    
O2    C4    A    
C58   C60   A    
N8    H28   S    
N12   H39   S    
C49   C53   A    
O6    C8    A    
C13   C15   A    
C15   C17   A    
C10   N10   S    
C41   C43   A    
C10   C34   A    
C38   C40   A    
C40   H20   S    
C27   C29   A    
O12   V4    S    
C56   C58   A    
C20   C22   A    
C57   H13   S    
C20   C24   A    
C14   H2    S    
C3    C38   S    
