data_mof_unit_11195.cif
_audit_creation_date              2012-12-10T18:04:45-0500
_audit_creation_method            fapswitch 2.2
_symmetry_space_group_name_H-M    P1
_symmetry_Int_Tables_number       1
_space_group_crystal_system       triclinic
_cell_length_a                    19.294109
_cell_length_b                    17.62787
_cell_length_c                    12.60922
_cell_angle_alpha                 89.116386
_cell_angle_beta                  98.889358
_cell_angle_gamma                 90.508001
_cell_volume                      4236.46590007

loop_
_atom_site_label
_atom_site_type_symbol
_atom_type_description
_atom_site_fract_x
_atom_site_fract_y
_atom_site_fract_z
_atom_type_partial_charge
C1    C     C_R   0.412133 0.104143 0.444263 0.862508
C2    C     C_R   0.414883 0.893231 0.447756 0.851835
C3    C     C_R   0.912132 0.604143 0.444263 0.862509
C4    C     C_R   0.914883 0.393231 0.447756 0.851839
C5    C     C_R   0.766682 0.190754 0.560147 -0.027773
C6    C     C_R   0.736768 0.773510 0.538332 -0.037103
C7    C     C_R   0.266682 0.690753 0.560147 -0.027773
C8    C     C_R   0.236769 0.273511 0.538332 -0.037095
C9    C     C_R   0.779974 0.221581 0.664394 0.097285
C10   C     C_R   0.770161 0.772012 0.647337 0.111089
C11   C     C_R   0.279974 0.721581 0.664394 0.097280
C12   C     C_R   0.270162 0.272011 0.647338 0.111093
C13   C     C_R   0.340935 0.763649 0.694306 -0.225025
C14   C     C_R   0.338266 0.245205 0.673746 -0.226546
C15   C     C_R   0.840934 0.263649 0.694306 -0.225027
C16   C     C_R   0.838265 0.745206 0.673745 -0.226539
C17   C     C_R   0.380744 0.786285 0.616465 -0.213367
C18   C     C_R   0.371765 0.214955 0.594903 -0.187704
C19   C     C_R   0.880744 0.286286 0.616465 -0.213360
C20   C     C_R   0.871764 0.714956 0.594902 -0.187708
C21   C     C_R   0.714150 0.135872 0.540596 0.423952
C22   C     C_R   0.666682 0.797165 0.516430 0.418317
C23   C     C_R   0.214150 0.635871 0.540596 0.423953
C24   C     C_R   0.166684 0.297168 0.516430 0.418314
C25   C     C_R   0.668328 0.172692 0.700239 -0.263620
C26   C     C_R   0.672206 0.836531 0.701086 -0.285785
C27   C     C_R   0.168329 0.672692 0.700239 -0.263614
C28   C     C_R   0.172207 0.336531 0.701087 -0.285787
C29   C     C_R   0.376775 0.821544 0.423858 -0.128416
C30   C     C_R   0.364444 0.167009 0.410705 -0.120523
C31   C     C_R   0.876775 0.321544 0.423858 -0.128421
C32   C     C_R   0.864443 0.667008 0.410705 -0.120524
C33   C     C_R   0.643451 0.018469 0.133765 -0.278105
C34   C     C_R   0.143451 0.518473 0.133765 -0.278106
C35   C     C_R   0.378034 0.994158 0.762394 0.034933
C36   C     C_R   0.878035 0.494157 0.762394 0.034932
C37   C     C_R   0.351998 0.989323 0.858675 -0.265842
C38   C     C_R   0.851998 0.489323 0.858675 -0.265842
C39   C     C_R   0.589123 0.897659 0.556876 0.842710
C40   C     C_R   0.594100 0.096709 0.558833 0.880954
C41   C     C_R   0.089123 0.397659 0.556876 0.842719
C42   C     C_R   0.094100 0.596709 0.558833 0.880950
C43   C     C_R   0.398563 0.990557 0.954443 -0.181792
C44   C     C_R   0.898563 0.490556 0.954443 -0.181792
C45   C     C_R   0.471779 0.996877 0.953821 0.017175
C46   C     C_R   0.971779 0.496877 0.953821 0.017175
C47   C     C_R   0.495532 0.001114 0.853755 0.178335
C48   C     C_R   0.995532 0.501114 0.853755 0.178335
C49   C     C_R   0.521929 0.000085 0.047863 -0.083071
C50   C     C_R   0.021929 0.500085 0.047863 -0.083071
C51   C     C_R   0.594178 0.012780 0.040335 0.092920
C52   C     C_R   0.094178 0.512781 0.040335 0.092919
C53   C     C_R   0.616606 0.019728 0.940428 0.418563
C54   C     C_R   0.116606 0.519729 0.940427 0.418563
C55   C     C_R   0.567300 0.009034 0.848632 -0.348948
C56   C     C_R   0.067300 0.509034 0.848631 -0.348946
C57   C     C_R   0.502942 0.993925 0.150274 -0.023305
C58   C     C_R   0.002943 0.493924 0.150274 -0.023305
C59   C     C_R   0.621173 0.010928 0.232125 0.000977
C60   C     C_R   0.121173 0.510930 0.232125 0.000977
C61   C     C_R   0.731470 0.210366 0.735511 -0.204696
C62   C     C_R   0.735486 0.799172 0.728486 -0.223106
C63   C     C_R   0.231470 0.710366 0.735512 -0.204692
C64   C     C_R   0.235487 0.299171 0.728486 -0.223102
C65   C     C_R   0.658678 0.137043 0.600231 -0.187551
C66   C     C_R   0.641138 0.840652 0.593438 -0.174779
C67   C     C_R   0.158679 0.637043 0.600231 -0.187553
C68   C     C_R   0.141140 0.340654 0.593438 -0.174789
C69   C     C_R   0.357262 0.801565 0.316009 -0.200992
C70   C     C_R   0.339439 0.178763 0.301138 -0.185467
C71   C     C_R   0.857262 0.301565 0.316009 -0.201002
C72   C     C_R   0.839437 0.678762 0.301138 -0.185469
C73   C     C_R   0.310903 0.742050 0.288768 -0.185856
C74   C     C_R   0.285836 0.230155 0.269303 -0.184669
C75   C     C_R   0.810903 0.242051 0.288768 -0.185858
C76   C     C_R   0.785833 0.730152 0.269303 -0.184662
C77   C     C_R   0.281158 0.703921 0.367961 -0.155805
C78   C     C_R   0.252530 0.264504 0.346179 -0.133894
C79   C     C_R   0.781158 0.203921 0.367961 -0.155809
C80   C     C_R   0.752527 0.764501 0.346178 -0.133880
C81   C     C_R   0.302282 0.720217 0.478082 0.096174
C82   C     C_R   0.274040 0.249146 0.456903 0.083738
C83   C     C_R   0.802282 0.220218 0.478082 0.096171
C84   C     C_R   0.774038 0.749145 0.456902 0.083745
C85   C     C_R   0.354968 0.775632 0.506263 0.078084
C86   C     C_R   0.337382 0.210081 0.487911 0.074871
C87   C     C_R   0.854968 0.275632 0.506263 0.078094
C88   C     C_R   0.837380 0.710081 0.487911 0.074869
H1    H     H_    0.698676 0.028035 0.131419 0.174144
H2    H     H_    0.198675 0.528041 0.131419 0.174144
H3    H     H_    0.342422 0.992630 0.687252 0.146377
H4    H     H_    0.842422 0.492630 0.687252 0.146378
H5    H     H_    0.375486 0.987406 0.026881 0.131452
H6    H     H_    0.875486 0.487405 0.026881 0.131453
H7    H     H_    0.296066 0.984602 0.859158 0.150441
H8    H     H_    0.796066 0.484601 0.859158 0.150441
H9    H     H_    0.585535 0.010050 0.773709 0.218272
H10   H     H_    0.085535 0.510050 0.773709 0.218273
H11   H     H_    0.740215 0.234914 0.814753 0.160909
H12   H     H_    0.759473 0.796049 0.811965 0.162584
H13   H     H_    0.240215 0.734914 0.814753 0.160909
H14   H     H_    0.259473 0.296047 0.811966 0.162580
H15   H     H_    0.375182 0.834254 0.251904 0.158725
H16   H     H_    0.360727 0.147732 0.240175 0.158992
H17   H     H_    0.875182 0.334254 0.251904 0.158727
H18   H     H_    0.860725 0.647731 0.240175 0.158992
H19   H     H_    0.739132 0.165235 0.339628 0.195738
H20   H     H_    0.712242 0.805124 0.317365 0.190970
H21   H     H_    0.239132 0.665235 0.339628 0.195736
H22   H     H_    0.212246 0.305128 0.317365 0.190975
H23   H     H_    0.294231 0.728787 0.205097 0.152782
H24   H     H_    0.268333 0.241375 0.184791 0.143979
H25   H     H_    0.794231 0.228787 0.205097 0.152785
H26   H     H_    0.768330 0.741372 0.184790 0.143979
H27   H     H_    0.429647 0.815306 0.643599 0.182672
H28   H     H_    0.425337 0.196553 0.618438 0.173448
H29   H     H_    0.929646 0.315306 0.643599 0.182669
H30   H     H_    0.925336 0.696554 0.618437 0.173448
H31   H     H_    0.658439 0.014590 0.304792 0.181418
H32   H     H_    0.158439 0.514594 0.304791 0.181418
N1    N     N_R   0.552340 1.000000 0.237260 -0.099820
N2    N     N_R   0.052340 0.500000 0.237260 -0.099820
N3    N     N_R   0.448170 1.000000 0.762060 -0.119982
N4    N     N_R   0.948170 0.500000 0.762060 -0.119982
O1    O     O_R   0.448200 0.076800 0.373930 -0.611075
O2    O     O_R   0.448200 0.923200 0.373930 -0.618166
O3    O     O_R   0.948200 0.576800 0.373930 -0.611074
O4    O     O_R   0.948200 0.423200 0.373930 -0.618170
O5    O     O_R   0.414750 0.076790 0.542400 -0.610538
O6    O     O_R   0.414750 0.923210 0.542400 -0.616958
O7    O     O_R   0.914750 0.576790 0.542400 -0.610537
O8    O     O_R   0.914750 0.423210 0.542400 -0.616958
O9    O     O_R   0.585240 0.923200 0.457600 -0.577978
O10   O     O_R   0.585240 0.076800 0.457600 -0.565561
O11   O     O_R   0.085240 0.423200 0.457600 -0.577970
O12   O     O_R   0.085240 0.576800 0.457600 -0.565564
O13   O     O_R   0.551780 0.923190 0.626070 -0.648736
O14   O     O_R   0.551780 0.076810 0.626070 -0.647704
O15   O     O_R   0.051780 0.423190 0.626070 -0.648738
O16   O     O_R   0.051780 0.576810 0.626070 -0.647703
Zn1   Zn    Zn3+2 0.522330 0.000000 0.387520 0.958948
Zn2   Zn    Zn3+2 0.022330 0.500000 0.387520 0.958947
Zn3   Zn    Zn3+2 0.477660 1.000000 0.612480 0.909822
Zn4   Zn    Zn3+2 0.977660 0.500000 0.612480 0.909822
H33   H     H_    0.628268 0.169823 0.751617 0.202333
H34   H     H_    0.649263 0.864658 0.762840 0.175502
H35   H     H_    0.128268 0.669823 0.751617 0.202333
H36   H     H_    0.149263 0.364657 0.762840 0.175501
O17   O     O_3   0.681111 0.054361 0.934758 -0.652113
C89   C     C_3   0.724307 0.012340 0.876536 0.088330
H37   H     H_    0.760340 0.053759 0.845580 0.188310
H38   H     H_    0.695942 0.984036 0.804674 0.102681
C90   C     C_3   0.768110 0.954758 0.950100 -0.367470
H39   H     H_    0.784601 0.979415 0.030694 0.233725
H40   H     H_    0.735701 0.903361 0.959457 0.199180
C91   C     C_3   0.834039 0.932659 0.904991 -0.965502
H41   H     H_    0.820771 0.915940 0.819858 0.264380
H42   H     H_    0.860088 0.884396 0.952396 0.263908
H43   H     H_    0.871281 0.981351 0.909799 0.269127
O18   O     O_3   0.181111 0.554361 0.934757 -0.652113
C92   C     C_3   0.224308 0.512336 0.876541 0.088331
H44   H     H_    0.260340 0.553754 0.845579 0.188309
H45   H     H_    0.195943 0.484028 0.804682 0.102680
C93   C     C_3   0.268111 0.454758 0.950112 -0.367472
H46   H     H_    0.284600 0.479419 0.030704 0.233725
H47   H     H_    0.235702 0.403362 0.959474 0.199181
C94   C     C_3   0.334041 0.432657 0.905008 -0.965497
H48   H     H_    0.320775 0.415931 0.819879 0.264379
H49   H     H_    0.360091 0.384399 0.952422 0.263910
H50   H     H_    0.371282 0.481350 0.909810 0.269129
H51   H     H_    0.449873 0.985215 0.164434 0.118430
H52   H     H_    0.949873 0.485212 0.164434 0.118430
H53   H     H_    0.356636 0.780952 0.776687 0.151447
H54   H     H_    0.365400 0.246826 0.755666 0.150740
H55   H     H_    0.856636 0.280952 0.776687 0.151446
H56   H     H_    0.865400 0.746828 0.755665 0.150739
O19   O     O_3   0.718546 0.079115 0.467342 -0.679132
C95   C     C_3   0.751596 0.014581 0.520514 0.077864
H57   H     H_    0.730040 0.963834 0.475320 0.172152
H58   H     H_    0.740222 0.006233 0.604161 0.112600
C96   C     C_3   0.830950 0.018006 0.519892 -0.372729
H59   H     H_    0.841284 0.031158 0.437225 0.236753
H60   H     H_    0.854673 0.063711 0.573728 0.219742
C97   C     C_3   0.865819 0.942954 0.557653 -0.929599
H61   H     H_    0.855407 0.927939 0.639562 0.266205
H62   H     H_    0.923386 0.948080 0.559478 0.265707
H63   H     H_    0.845668 0.896973 0.501750 0.269139
O20   O     O_3   0.625499 0.782845 0.418040 -0.663680
C98   C     C_3   0.564435 0.740537 0.431197 0.122991
H64   H     H_    0.525720 0.748909 0.357111 0.171589
H65   H     H_    0.538324 0.760358 0.498424 0.106139
C99   C     C_3   0.580577 0.655713 0.445017 -0.368451
H66   H     H_    0.604079 0.635895 0.375318 0.233886
H67   H     H_    0.618954 0.645975 0.519161 0.219490
C100  C     C_3   0.514029 0.609797 0.453163 -0.950371
H68   H     H_    0.490328 0.628011 0.523477 0.265862
H69   H     H_    0.527068 0.548627 0.463174 0.267382
H70   H     H_    0.475131 0.617550 0.379142 0.267593
O21   O     O_3   0.218547 0.579114 0.467342 -0.679136
C101  C     C_3   0.251591 0.514579 0.520514 0.077877
H71   H     H_    0.230041 0.463834 0.475308 0.172157
H72   H     H_    0.240204 0.506225 0.604154 0.112596
C102  C     C_3   0.330948 0.518005 0.519920 -0.372741
H73   H     H_    0.341294 0.531170 0.437263 0.236760
H74   H     H_    0.354665 0.563701 0.573776 0.219736
C103  C     C_3   0.365812 0.442947 0.557667 -0.929587
H75   H     H_    0.355385 0.427917 0.639564 0.266207
H76   H     H_    0.423381 0.448075 0.559517 0.265702
H77   H     H_    0.345669 0.396976 0.501742 0.269137
O22   O     O_3   0.125502 0.282855 0.418037 -0.663677
C104  C     C_3   0.064442 0.240538 0.431189 0.122947
H78   H     H_    0.025705 0.248958 0.357138 0.171587
H79   H     H_    0.038357 0.260310 0.498472 0.106140
C105  C     C_3   0.080581 0.155707 0.444882 -0.368378
H80   H     H_    0.104042 0.135937 0.375119 0.233874
H81   H     H_    0.118990 0.145924 0.518978 0.219499
C106  C     C_3   0.014040 0.109782 0.453049 -0.950402
H82   H     H_    0.990387 0.127938 0.523436 0.265862
H83   H     H_    0.027075 0.048606 0.462945 0.267384
H84   H     H_    0.975106 0.117592 0.379082 0.267601

loop_
_geom_bond_atom_site_label_1
_geom_bond_atom_site_label_2
_ccdc_geom_bond_type
C59   N1    A    
C83   C87   A    
C102  H73   S    
C39   O13   A    
O8    Zn4   S    
C11   C13   A    
C14   C18   A    
C53   C55   A    
C56   H10   S    
C95   C96   S    
C72   C76   A    
C20   H30   S    
C92   H44   S    
C93   H47   S    
C94   H49   S    
C61   H11   S    
C96   H59   S    
C106  H84   S    
C13   H53   S    
C102  H74   S    
C18   C86   A    
C2    C29   S    
C9    C61   A    
C60   N2    A    
C91   H41   S    
C28   C68   A    
C1    O1    A    
C1    O5    A    
O14   Zn3   S    
C74   H24   S    
C5    C83   A    
C3    O3    A    
C6    C22   A    
C23   O21   S    
C49   C57   A    
C97   H61   S    
C37   H7    S    
C42   O12   A    
C64   H14   S    
C23   C67   A    
C98   H65   S    
C22   C66   A    
C7    C11   A    
O12   Zn2   S    
C34   C52   A    
C30   C70   A    
C15   C19   A    
C47   N3    A    
O11   Zn2   S    
O1    Zn1   S    
C101  H71   S    
C49   C51   A    
C89   C90   S    
C40   O14   A    
C70   C74   A    
C76   H26   S    
C76   C80   A    
C69   C73   A    
C75   H25   S    
C45   C49   A    
C8    C12   A    
C30   C86   A    
C58   N2    A    
C29   C85   A    
C80   C84   A    
C100  H70   S    
C21   C65   A    
C36   H4    S    
C21   O19   S    
O13   Zn3   S    
O21   C101  S    
C33   C59   A    
C34   C60   A    
C10   C62   A    
C17   C85   A    
C92   H45   S    
C44   C46   A    
C38   C44   A    
C95   H57   S    
C94   H50   S    
C29   C69   A    
C45   C47   A    
C79   H19   S    
C102  C103  S    
C46   C48   A    
C28   H36   S    
C6    C84   A    
C4    O4    A    
C42   O16   A    
C26   C66   A    
C99   C100  S    
N1    Zn1   S    
C73   H23   S    
C31   C87   A    
C32   C72   A    
C96   H60   S    
C18   H28   S    
C94   H48   S    
C53   O17   S    
C24   O22   S    
C105  H80   S    
C57   N1    A    
C26   H34   S    
C106  H82   S    
C82   C86   A    
C40   O10   A    
C33   C51   A    
O20   C98   S    
C51   C53   A    
O3    Zn2   S    
C99   H67   S    
C37   C43   A    
C98   C99   S    
C58   H52   S    
C34   H2    S    
C5    C9    A    
C89   H38   S    
C33   H1    S    
O15   Zn4   S    
C78   C82   A    
C50   C52   A    
C104  H78   S    
C2    O6    A    
C77   C81   A    
C16   C20   A    
C55   H9    S    
C50   C58   A    
C25   C65   A    
C3    C32   S    
C78   H22   S    
C27   C67   A    
C25   C61   A    
C90   C91   S    
C77   H21   S    
O6    Zn3   S    
C43   C45   A    
C27   C63   A    
C62   H12   S    
C2    O2    A    
C27   H35   S    
C104  H79   S    
C72   H18   S    
O19   C95   S    
C40   C65   S    
C71   H17   S    
C42   C67   S    
C19   C87   A    
C39   C66   S    
C3    O7    A    
C90   H40   S    
N2    Zn2   S    
C36   N4    A    
N3    Zn3   S    
C36   C38   A    
C28   C64   A    
C41   O11   A    
C92   C93   S    
C17   H27   S    
C47   C55   A    
C39   O9    A    
C96   C97   S    
C35   C37   A    
C48   C56   A    
C12   C64   A    
C46   C50   A    
C41   C68   S    
C93   H46   S    
C59   H31   S    
C7    C81   A    
C103  H75   S    
C69   H15   S    
O9    Zn1   S    
C91   H43   S    
O16   Zn4   S    
C12   C14   A    
C105  C106  S    
C48   N4    A    
C95   H58   S    
C35   N3    A    
C54   C56   A    
O5    Zn3   S    
C13   C17   A    
C106  H83   S    
C80   H20   S    
O2    Zn1   S    
C11   C63   A    
C97   H63   S    
C15   H55   S    
C43   H5    S    
C99   H66   S    
C91   H42   S    
C9    C15   A    
C105  H81   S    
C63   H13   S    
C14   H54   S    
C10   C16   A    
O17   C89   S    
O18   C92   S    
O10   Zn1   S    
C71   C75   A    
C4    O8    A    
C103  H77   S    
C16   H56   S    
C84   C88   A    
C75   C79   A    
C101  C102  S    
C7    C23   A    
C26   C62   A    
C20   C88   A    
C31   C71   A    
C1    C30   S    
C8    C24   A    
C97   H62   S    
C52   C54   A    
C60   H32   S    
C70   H16   S    
C93   C94   S    
C22   O20   S    
C98   H64   S    
C41   O15   A    
C4    C31   S    
C44   H6    S    
C6    C10   A    
C24   C68   A    
C54   O18   S    
C100  H68   S    
C79   C83   A    
C8    C82   A    
C104  C105  S    
C5    C21   A    
C19   H29   S    
C101  H72   S    
O22   C104  S    
C74   C78   A    
C38   H8    S    
C73   C77   A    
C89   H37   S    
N4    Zn4   S    
C25   H33   S    
C57   H51   S    
C90   H39   S    
C103  H76   S    
O4    Zn2   S    
C81   C85   A    
O7    Zn4   S    
C35   H3    S    
C100  H69   S    
C32   C88   A    
