data_mof_unit_40313.cif
_audit_creation_date              2013-03-05T15:46:23-0500
_audit_creation_method            fapswitch 2.2
_symmetry_space_group_name_H-M    P1
_symmetry_Int_Tables_number       1
_space_group_crystal_system       triclinic
_cell_length_a                    11.487936
_cell_length_b                    11.428226
_cell_length_c                    18.721758
_cell_angle_alpha                 89.186665
_cell_angle_beta                  89.822429
_cell_angle_gamma                 58.072424
_cell_volume                      2085.83941898

loop_
_atom_site_label
_atom_site_type_symbol
_atom_site_description
_atom_site_fract_x
_atom_site_fract_y
_atom_site_fract_z
_atom_type_partial_charge
O1    O     O_R   0.748800 0.497470 0.428000 -0.427946
O2    O     O_R   0.476420 0.724060 0.429470 -0.488733
C1    C     C_R   0.352433 0.783234 0.402656 0.573724
O3    O     O_R   0.264580 0.744340 0.416750 -0.415428
O4    O     O_R   0.309380 0.472470 0.418200 -0.442626
C2    C     C_R   0.382238 0.352370 0.388513 0.585178
O5    O     O_R   0.501710 0.260430 0.414300 -0.461098
O6    O     O_R   0.728090 0.305600 0.428960 -0.492385
C3    C     C_R   0.776521 0.379779 0.403338 0.566241
O7    O     O_R   0.738760 0.495930 0.588610 -0.463521
O8    O     O_R   0.467110 0.722640 0.578360 -0.471641
C4    C     C_R   0.349385 0.755192 0.606588 0.548326
O9    O     O_R   0.254530 0.742800 0.577360 -0.538694
O10   O     O_R   0.300070 0.471040 0.567100 -0.503955
C5    C     C_R   0.373866 0.349304 0.596336 0.583076
O11   O     O_R   0.491670 0.258900 0.574910 -0.466399
O12   O     O_R   0.718780 0.304180 0.577850 -0.520551
C6    C     C_R   0.708902 0.407368 0.616027 0.528296
Cr1   Cr    Cr6+3 0.601770 0.606860 0.505860 1.095848
Cr2   Cr    Cr6+3 0.291380 0.601660 0.495070 1.080404
Cr3   Cr    Cr6+3 0.606880 0.291510 0.499120 1.088541
O13   O     O_3   0.500010 0.500010 0.500020 -0.326966
C7    C     C_R   0.824685 0.921636 0.094341 -0.067190
C8    C     C_R   0.830422 0.976133 0.159199 0.142451
C9    C     C_R   0.707584 0.062103 0.198290 0.221693
C10   C     C_R   0.589754 0.064665 0.180583 -0.052162
H1    H     H_    0.503539 0.108776 0.319110 0.186690
C11   C     C_R   0.362082 0.296083 0.166072 0.039906
C12   C     C_R   0.433746 0.194591 0.284835 -0.072893
C13   C     C_R   0.451540 0.178388 0.209832 0.024983
C14   C     C_R   0.145420 0.657485 0.320220 0.333295
C15   C     C_R   0.031495 0.750623 0.365862 0.328226
C16   C     C_R   0.606547 0.968592 0.129620 -0.137425
C17   C     C_R   0.714502 0.909190 0.080750 0.194929
C18   C     C_R   0.276175 0.419926 0.195073 -0.099455
C19   C     C_R   0.248489 0.432122 0.266895 0.031461
C20   C     C_R   0.897951 0.789562 0.341966 0.327799
C21   C     C_R   0.887248 0.747823 0.273551 0.019240
C22   C     C_R   0.001012 0.626710 0.247480 0.194854
C23   C     C_R   0.126847 0.567263 0.284017 -0.008323
C24   C     C_R   0.343519 0.325675 0.315349 0.022434
H2    H     H_    0.914275 0.869369 0.060567 0.211153
H3    H     H_    0.526582 0.957630 0.121930 0.199446
H4    H     H_    0.218236 0.508296 0.159357 0.168221
H5    H     H_    0.788273 0.791092 0.247901 0.159474
C25   C     C_R   0.877191 0.232119 0.296874 -0.109025
H6    H     H_    0.901597 0.142552 0.328017 0.183494
C26   C     C_R   0.879209 0.230897 0.222542 -0.121418
H7    H     H_    0.895866 0.144995 0.194774 0.191529
C27   C     C_R   0.841823 0.345537 0.180722 0.010569
C28   C     C_R   0.785544 0.471767 0.215010 0.197447
C29   C     C_R   0.805462 0.467439 0.288794 0.260495
C30   C     C_R   0.831729 0.353954 0.330416 0.010315
C31   C     C_R   0.428453 0.879815 0.305076 -0.114164
H8    H     H_    0.510172 0.873346 0.335345 0.202697
C32   C     C_R   0.427582 0.885340 0.230093 -0.156406
H9    H     H_    0.524278 0.845374 0.205325 0.158254
C33   C     C_R   0.305077 0.928900 0.192196 -0.022323
C34   C     C_R   0.190464 0.971015 0.233765 -0.062777
H10   H     H_    0.098314 0.017388 0.206084 0.192495
C35   C     C_R   0.197825 0.941762 0.306910 -0.082067
H11   H     H_    0.110274 0.959322 0.336545 0.154392
C36   C     C_R   0.322945 0.878481 0.341066 -0.008789
C37   C     C_R   0.457086 0.238954 0.715853 0.143852
C38   C     C_R   0.437931 0.263719 0.787793 -0.192000
H12   H     H_    0.524812 0.206911 0.823647 0.217623
C39   C     C_R   0.306888 0.336766 0.815693 -0.085918
C40   C     C_R   0.192013 0.416336 0.770447 0.195821
C41   C     C_R   0.212173 0.415331 0.696285 0.219263
C42   C     C_R   0.344529 0.325424 0.668805 0.016423
C43   C     C_R   0.689619 0.493498 0.739031 -0.113074
H13   H     H_    0.633063 0.598029 0.718336 0.173440
C44   C     C_R   0.723224 0.470832 0.811470 -0.118264
H14   H     H_    0.696002 0.558525 0.844694 0.182917
C45   C     C_R   0.802568 0.335859 0.839080 0.001218
C46   C     C_R   0.831825 0.223975 0.794346 0.193396
C47   C     C_R   0.803147 0.248268 0.721232 -0.069524
H15   H     H_    0.835026 0.161901 0.686230 0.198024
C48   C     C_R   0.735491 0.381984 0.692982 -0.013329
C49   C     C_R   0.277200 0.733299 0.726996 -0.121039
H16   H     H_    0.246341 0.666031 0.706058 0.120933
C50   C     C_R   0.272297 0.752601 0.800495 0.296132
C51   C     C_R   0.312331 0.840208 0.827354 -0.010288
C52   C     C_R   0.373991 0.891021 0.782012 -0.160805
H17   H     H_    0.410265 0.954938 0.801813 0.188910
C53   C     C_R   0.383443 0.867036 0.709646 0.168729
C54   C     C_R   0.329405 0.793287 0.681205 -0.028924
O14   O     O_R   0.186690 0.923650 0.086970 -0.461217
O15   O     O_R   0.957250 0.194250 0.084630 -0.556270
C55   C     C_R   0.905739 0.318833 0.109643 0.546013
O16   O     O_R   0.934970 0.407490 0.085330 -0.384438
O17   O     O_R   0.203780 0.365190 0.067090 -0.454201
C56   C     C_R   0.328466 0.285673 0.093288 0.530781
O18   O     O_R   0.417600 0.174890 0.067840 -0.551084
O19   O     O_R   0.375320 0.946260 0.070860 -0.495708
C57   C     C_R   0.280960 0.947013 0.112596 0.531042
O20   O     O_R   0.160600 0.919630 0.926660 -0.415508
O21   O     O_R   0.933060 0.190520 0.936020 -0.468297
C58   C     C_R   0.880171 0.311613 0.906283 0.537501
O22   O     O_R   0.908880 0.403460 0.925020 -0.456663
O23   O     O_R   0.179600 0.361450 0.918490 -0.451414
C59   C     C_R   0.294201 0.291126 0.886411 0.528300
O24   O     O_R   0.391510 0.170860 0.907530 -0.501664
O25   O     O_R   0.351130 0.942530 0.922260 -0.489272
C60   C     C_R   0.275929 0.896617 0.898714 0.556548
Cr4   Cr    Cr6+3 0.062440 0.063090 0.008210 1.103441
Cr5   Cr    Cr6+3 0.062880 0.375170 0.998920 1.203335
Cr6   Cr    Cr6+3 0.374700 0.061720 0.992470 1.100654
O26   O     O_3   0.166667 0.166667 0.999870 -0.336531
O27   O     O_3   0.778811 0.873090 0.380446 -0.544061
C61   C     C_3   0.777386 0.812280 0.446734 0.000864
H18   H     H_    0.869870 0.708834 0.458360 0.166363
H19   H     H_    0.686438 0.802482 0.448494 0.182152
H20   H     H_    0.763349 0.882634 0.490559 0.127068
N1    N     N_R   0.985291 0.557041 0.190134 0.070427
O28   O     O_R   0.042675 0.424011 0.195462 -0.373020
O29   O     O_R   0.945364 0.618690 0.128218 -0.299857
N2    N     N_R   0.718228 0.601140 0.177149 -0.217171
O30   O     O_R   0.655514 0.616475 0.116796 -0.000001
O31   O     O_R   0.655514 0.616475 0.116796 -0.000001
N3    N     N_R   0.820838 0.567594 0.321631 0.060911
O32   O     O_R   0.710330 0.684094 0.333475 -0.406034
O33   O     O_R   0.926738 0.525934 0.363523 -0.393210
N4    N     N_R   0.715431 0.833069 0.019690 0.100156
O34   O     O_R   0.819591 0.777340 0.976460 -0.257900
O35   O     O_R   0.612229 0.820107 0.005721 -0.295501
N5    N     N_R   0.589352 0.122904 0.693860 0.099782
O36   O     O_R   0.692158 0.068837 0.738291 -0.303359
O37   O     O_R   0.599261 0.047308 0.640314 -0.229189
N6    N     N_R   0.055340 0.491992 0.798296 0.099147
O38   O     O_R   0.021100 0.590774 0.843276 -0.229388
O39   O     O_R   0.959646 0.481163 0.768415 -0.301125
O40   O     O_3   0.101213 0.482051 0.649428 -0.517545
C62   C     C_3   0.034833 0.627210 0.653769 -0.016505
H21   H     H_    0.924518 0.673562 0.641009 0.192409
H22   H     H_    0.076863 0.666303 0.613141 0.148333
H23   H     H_    0.040750 0.665669 0.706990 0.173053
N7    N     N_R   0.892432 0.085354 0.821298 0.124116
O41   O     O_R   0.833266 0.060109 0.873476 -0.259368
O42   O     O_R   0.981848 0.983014 0.782821 -0.298038
O43   O     O_3   0.049291 0.773736 0.436578 -0.553052
C63   C     C_3   0.981542 0.916358 0.452342 -0.069239
H24   H     H_    0.928650 0.934637 0.504329 0.122356
H25   H     H_    0.905923 0.986718 0.411858 0.172674
H26   H     H_    0.057306 0.947212 0.459549 0.128645
O44   O     O_3   0.220578 0.692284 0.844206 -0.481344
C64   C     C_3   0.328735 0.588218 0.886245 -0.081492
H27   H     H_    0.370947 0.630884 0.923964 0.116727
H28   H     H_    0.412527 0.509142 0.852298 0.080883
H29   H     H_    0.288033 0.536599 0.919207 0.172533
N8    N     N_R   0.455707 0.910681 0.666157 0.107353
O45   O     O_R   0.390678 0.001351 0.615362 -0.304453
O46   O     O_R   0.588784 0.832405 0.664296 -0.285851
N9    N     N_R   0.961564 0.916653 0.190892 0.010780
O47   O     O_R   0.970106 0.935432 0.257902 -0.463478
O48   O     O_R   0.068026 0.818303 0.158731 -0.387930
N10   N     N_R   0.698200 0.148888 0.254548 0.065701
O49   O     O_R   0.720204 0.101590 0.319628 -0.312384
O50   O     O_R   0.621545 0.281636 0.244434 -0.418402
O51   O     O_3   0.277774 0.633914 0.319604 -0.531314
C65   C     C_3   0.341693 0.619963 0.252894 -0.102303
H30   H     H_    0.271612 0.661265 0.207313 0.177643
H31   H     H_    0.421753 0.511387 0.244451 0.173316
H32   H     H_    0.400065 0.670960 0.254476 0.157038

loop_
_geom_bond_atom_site_label_1
_geom_bond_atom_site_label_2
_geom_bond_distance
_ccdc_geom_bond_type
O23   Cr5   1.965132 S    
O14   C57   1.336780 A    
C56   O18   1.233408 A    
H1    C12   1.081694 S    
C44   C45   1.403754 A    
C44   H14   1.083550 S    
C31   H8    1.066115 S    
O19   C57   1.330688 A    
C62   H23   1.111321 S    
C43   C48   1.401114 A    
C65   H30   1.090903 S    
O4    Cr2   2.007298 S    
C47   H15   1.082719 S    
C32   H9    1.060070 S    
O8    Cr1   1.964480 S    
O23   C59   1.276536 A    
C7    H2    1.082733 S    
C51   C52   1.406036 A    
C64   H28   1.113381 S    
C52   C53   1.378615 A    
C49   C54   1.406980 A    
C21   C22   1.401418 A    
C31   C36   1.391950 A    
C5    O11   1.260689 A    
C28   N2    1.432042 S    
Cr6   O26   2.034732 S    
C35   C36   1.375147 A    
C33   C57   1.507855 S    
O27   C61   1.418025 S    
C21   H5    1.081617 S    
O17   Cr5   2.018736 S    
C50   O44   1.382760 S    
C14   C23   1.349606 A    
N2    O30   1.300908 A    
C52   H17   1.084080 S    
C27   C55   1.473631 S    
N10   O49   1.295886 A    
C64   H27   1.110655 S    
C11   C18   1.346479 A    
C32   C33   1.409592 A    
O6    C3    1.320599 A    
N1    O29   1.299528 A    
C2    C24   1.525240 S    
O15   Cr4   1.971886 S    
C17   N4    1.442923 S    
C7    C8    1.389975 A    
N5    O36   1.299312 A    
O24   Cr6   2.078067 S    
C37   C42   1.433588 A    
C12   C13   1.418925 A    
N9    O48   1.297048 A    
C14   O51   1.396891 S    
O9    Cr2   2.121012 S    
O20   C60   1.315029 A    
C7    C17   1.371366 A    
C26   C27   1.375399 A    
C34   H10   1.035513 S    
N10   O50   1.301043 A    
Cr3   O13   2.022892 S    
Cr5   O26   2.023294 S    
C63   H26   1.107593 S    
C19   C24   1.436919 A    
C41   C42   1.410694 A    
C1    C36   1.485241 S    
O25   C60   1.305500 A    
C65   H31   1.099154 S    
C8    N9    1.412361 S    
O6    Cr3   1.977372 S    
C31   C32   1.404173 A    
C47   C48   1.393694 A    
C25   C26   1.391885 A    
C34   C35   1.397153 A    
O1    Cr1   2.084155 S    
C39   C40   1.414835 A    
C16   H3    1.001694 S    
O16   Cr5   2.083484 S    
C19   C23   1.472864 S    
C64   H29   1.107747 S    
O1    C3    1.298952 A    
C8    C9    1.428225 A    
C49   C50   1.392957 A    
O19   Cr6   1.957072 S    
C22   C23   1.404764 A    
C43   C44   1.393862 A    
C53   C54   1.395509 A    
C6    C48   1.466390 S    
C62   H22   1.107933 S    
C38   C39   1.383582 A    
C9    C10   1.379717 A    
O5    Cr3   2.142275 S    
O12   Cr3   2.015125 S    
C28   C29   1.396791 A    
C11   C56   1.441015 S    
C18   C19   1.372739 A    
N6    O39   1.298646 A    
C45   C46   1.422460 A    
N5    O37   1.297756 A    
C20   C21   1.401279 A    
O10   Cr2   1.960325 S    
O14   Cr4   2.071604 S    
C29   N3    1.397742 S    
C10   C16   1.399141 A    
C58   O22   1.308014 A    
O7    Cr1   2.081600 S    
N8    O45   1.301474 A    
C37   N5    1.455127 S    
O18   Cr6   2.153363 S    
Cr1   O13   2.093817 S    
C45   C58   1.479959 S    
O12   C6    1.340250 A    
N3    O32   1.285434 A    
C61   H19   1.108442 S    
C15   C20   1.424184 A    
C46   C47   1.398061 A    
C40   N6    1.434042 S    
C18   H4    1.087496 S    
N9    O47   1.288502 A    
C15   O43   1.390345 S    
C2    O5    1.298154 A    
N7    O42   1.300232 A    
O20   Cr4   2.096542 S    
C26   H7    1.042014 S    
Cr2   O13   2.038591 S    
C50   C51   1.403383 A    
C22   N1    1.413061 S    
C9    N10   1.421432 S    
O40   C62   1.416165 S    
C63   H25   1.106180 S    
C20   O27   1.391043 S    
C1    O3    1.324877 A    
O25   Cr6   2.024757 S    
C65   H32   1.097353 S    
C29   C30   1.392528 A    
N4    O35   1.297964 A    
O44   C64   1.412155 S    
C5    C42   1.453542 S    
C25   H6    1.070898 S    
O22   Cr5   2.132152 S    
C41   O40   1.391302 S    
C4    C54   1.450268 S    
C12   C24   1.422388 A    
O2    Cr1   1.957375 S    
O10   C5    1.299071 A    
C40   C41   1.406129 A    
C14   C15   1.456525 A    
C49   H16   1.080727 S    
C35   H11   1.070472 S    
O8    C4    1.309856 A    
O11   Cr3   2.097378 S    
C10   C13   1.530431 S    
C62   H21   1.109924 S    
C46   N7    1.435925 S    
O21   Cr4   1.955435 S    
O51   C65   1.414420 S    
C11   C13   1.431221 A    
O2    C1    1.309240 A    
C33   C34   1.380187 A    
C43   H13   1.080191 S    
C38   H12   1.083811 S    
O43   C63   1.421245 S    
C37   C38   1.373180 A    
C55   O16   1.300891 A    
O4    C2    1.302681 A    
C61   H18   1.113296 S    
O7    C6    1.325453 A    
C25   C30   1.363617 A    
O17   C56   1.316450 A    
C16   C17   1.398613 A    
N6    O38   1.301360 A    
C61   H20   1.107445 S    
N8    O46   1.301036 A    
C59   O24   1.287347 A    
N2    O31   1.300912 A    
N3    O33   1.305573 A    
N7    O41   1.301846 A    
O3    Cr2   2.075457 S    
C51   C60   1.452997 S    
C3    C30   1.470133 S    
C4    O9    1.294620 A    
O21   C58   1.298118 A    
C27   C28   1.395838 A    
C63   H24   1.108145 S    
O15   C55   1.312502 A    
C53   N8    1.422359 S    
N1    O28   1.300730 A    
C39   C59   1.451130 S    
N4    O34   1.301938 A    
Cr4   O26   2.086104 S    
