data_mof_unit_23672.cif
_audit_creation_date              2013-03-05T16:01:28-0500
_audit_creation_method            fapswitch 2.2
_symmetry_space_group_name_H-M    P1
_symmetry_Int_Tables_number       1
_space_group_crystal_system       triclinic
_cell_length_a                    14.829938
_cell_length_b                    14.739465
_cell_length_c                    19.221402
_cell_angle_alpha                 73.881279
_cell_angle_beta                  103.655961
_cell_angle_gamma                 114.961804
_cell_volume                      3625.03477948

loop_
_atom_site_label
_atom_site_type_symbol
_atom_site_description
_atom_site_fract_x
_atom_site_fract_y
_atom_site_fract_z
_atom_type_partial_charge
O1    O     O_R   0.977910 0.338110 0.524620 -0.523102
O2    O     O_R   0.022090 0.661890 0.475380 -0.523138
O3    O     O_R   0.839850 0.379180 0.493080 -0.621988
O4    O     O_R   0.160150 0.620820 0.506920 -0.621956
C1    C     C_R   0.880450 0.311948 0.509634 0.805926
C2    C     C_R   0.119551 0.688054 0.490353 0.805919
O5    O     O_R   0.069040 0.479450 0.615630 -0.541834
O6    O     O_R   0.930960 0.520550 0.384370 -0.541862
O7    O     O_R   0.930990 0.520520 0.584090 -0.532326
O8    O     O_R   0.069010 0.479480 0.415910 -0.532283
C3    C     C_R   0.008853 0.512878 0.630952 0.824074
C4    C     C_R   0.991129 0.487092 0.369055 0.824136
Cu1   Cu    Cu3+1 0.081740 0.475680 0.518680 1.039961
Cu2   Cu    Cu3+1 0.918260 0.524320 0.481320 1.039937
C5    C     C_R   0.103207 0.518738 0.760497 -0.016673
C6    C     C_R   0.896715 0.481152 0.239533 -0.016752
C7    C     C_R   0.097188 0.513072 0.833395 -0.201966
C8    C     C_R   0.902672 0.486727 0.166639 -0.201969
H1    H     H_    0.152439 0.494594 0.876418 0.156818
H2    H     H_    0.847423 0.505214 0.123619 0.156823
C9    C     C_R   0.023128 0.534211 0.851430 -0.019561
C10   C     C_R   0.976672 0.465504 0.148605 -0.019584
C11   C     C_R   0.962337 0.573835 0.795104 -0.251787
C12   C     C_R   0.037451 0.425870 0.204932 -0.251737
H3    H     H_    0.912006 0.600796 0.808165 0.199160
H4    H     H_    0.087734 0.398855 0.191865 0.199235
C13   C     C_R   0.966270 0.580027 0.721631 0.299538
C14   C     C_R   0.033587 0.419760 0.278407 0.299420
C15   C     C_R   0.026957 0.538044 0.704649 -0.204336
C16   C     C_R   0.972969 0.461842 0.295379 -0.204363
N1    N     N_R   0.940355 0.538109 0.947146 -0.236447
N2    N     N_R   0.059412 0.461556 0.052887 -0.236430
N3    N     N_R   0.928639 0.520532 0.016829 -0.238190
N4    N     N_R   0.071128 0.479134 0.983205 -0.238172
C17   C     C_R   0.987659 0.481571 0.071138 0.440425
C18   C     C_R   0.012111 0.518099 0.928895 0.440439
C19   C     C_R   0.812044 0.203985 0.511355 -0.053955
C20   C     C_R   0.187966 0.796021 0.488589 -0.053928
C21   C     C_R   0.781695 0.024440 0.533865 -0.166966
C22   C     C_R   0.218334 0.975573 0.466054 -0.166918
C23   C     C_R   0.847655 0.126415 0.523158 -0.133069
C24   C     C_R   0.152371 0.873599 0.476800 -0.133128
C25   C     C_R   0.708201 0.178859 0.500184 -0.255910
C26   C     C_R   0.291805 0.821142 0.499697 -0.255827
C27   C     C_R   0.638982 0.076963 0.504811 0.070223
C28   C     C_R   0.361032 0.923036 0.495044 0.070211
C29   C     C_R   0.677319 0.998147 0.527172 0.029317
C30   C     C_R   0.322703 0.001856 0.472700 0.029318
C31   C     C_R   0.533108 0.051704 0.491430 0.011931
C32   C     C_R   0.466905 0.948289 0.508401 0.011932
C33   C     C_R   0.508504 0.873259 0.539288 -0.306582
C34   C     C_R   0.491510 0.126730 0.460530 -0.306567
C35   C     C_R   0.610975 0.895823 0.545640 0.313860
C36   C     C_R   0.389044 0.104174 0.454205 0.313870
H5    H     H_    0.317017 0.759842 0.508620 0.147459
H6    H     H_    0.682977 0.240155 0.491239 0.147455
H7    H     H_    0.073618 0.855962 0.474834 0.216458
H8    H     H_    0.926417 0.144059 0.525167 0.216512
H9    H     H_    0.813881 0.967119 0.548406 0.201847
H10   H     H_    0.186157 0.032900 0.451527 0.201843
H11   H     H_    0.462761 0.794844 0.558586 0.159546
H12   H     H_    0.537252 0.205138 0.441211 0.159547
N5    N     N_R   0.795420 0.560800 0.453240 -0.236689
N6    N     N_R   0.204580 0.439200 0.546760 -0.236663
C37   C     C_R   0.733241 0.695046 0.399336 -0.183802
C38   C     C_R   0.266727 0.304928 0.600654 -0.183877
C39   C     C_R   0.806483 0.654542 0.408980 0.520877
C40   C     C_R   0.193507 0.345456 0.591022 0.520957
C41   C     C_R   0.710345 0.502822 0.485096 -0.043095
C42   C     C_R   0.289655 0.497163 0.514903 -0.043115
C43   C     C_R   0.632207 0.539020 0.477498 -0.009861
C44   C     C_R   0.367767 0.460934 0.522487 -0.009901
C45   C     C_R   0.644724 0.635794 0.431584 0.075312
C46   C     C_R   0.355236 0.364157 0.568395 0.075232
C47   C     C_R   0.541198 0.482263 0.511197 0.060319
C48   C     C_R   0.458765 0.517667 0.488777 0.060295
C49   C     C_R   0.472312 0.609247 0.434609 -0.026470
C50   C     C_R   0.527631 0.390663 0.565352 -0.026416
C51   C     C_R   0.566017 0.669860 0.413286 -0.140997
C52   C     C_R   0.433925 0.330067 0.586681 -0.140988
H13   H     H_    0.573344 0.741248 0.374886 0.151571
H14   H     H_    0.426585 0.258672 0.625077 0.151572
H15   H     H_    0.295552 0.572243 0.486401 0.163058
H16   H     H_    0.704474 0.427756 0.513607 0.163106
C53   C     C_R   0.195833 0.515612 0.745244 0.162867
C54   C     C_R   0.234806 0.442751 0.788903 -0.066436
C55   C     C_R   0.323441 0.442337 0.775826 -0.146268
C56   C     C_R   0.374340 0.514473 0.719320 -0.114816
C57   C     C_R   0.338102 0.588873 0.677062 -0.105534
C58   C     C_R   0.250538 0.590889 0.690723 -0.100798
H17   H     H_    0.195579 0.384834 0.832115 0.135266
H18   H     H_    0.352474 0.385813 0.809483 0.129160
H19   H     H_    0.442192 0.513169 0.708588 0.156493
H20   H     H_    0.377953 0.645007 0.633736 0.137672
H21   H     H_    0.224788 0.650501 0.658273 0.114391
C59   C     C_R   0.804142 0.484395 0.254780 0.162861
C60   C     C_R   0.749406 0.409183 0.309311 -0.100756
C61   C     C_R   0.661877 0.411300 0.322951 -0.105534
C62   C     C_R   0.625703 0.485731 0.280662 -0.114854
C63   C     C_R   0.676631 0.557803 0.224147 -0.146144
C64   C     C_R   0.765235 0.557294 0.211093 -0.066422
H22   H     H_    0.775103 0.349543 0.341781 0.114415
H23   H     H_    0.622006 0.355222 0.366288 0.137653
H24   H     H_    0.557878 0.487112 0.291378 0.156400
H25   H     H_    0.647647 0.614351 0.190463 0.129163
H26   H     H_    0.804485 0.615162 0.167872 0.135250
N7    N     N_R   0.108663 0.288671 0.630255 0.137125
O9    O     O_R   0.104471 0.318265 0.686528 -0.369711
O10   O     O_R   0.053676 0.194653 0.624412 -0.397494
N8    N     N_R   0.891333 0.711343 0.369755 0.137135
O11   O     O_R   0.946314 0.805357 0.375609 -0.397551
O12   O     O_R   0.895553 0.681755 0.313487 -0.369637
C65   C     C_R   0.749602 0.799205 0.354335 0.139209
C66   C     C_R   0.797276 0.884732 0.387387 -0.039675
C67   C     C_R   0.810477 0.982510 0.345591 -0.132560
C68   C     C_R   0.776387 0.995447 0.270611 -0.090254
C69   C     C_R   0.729143 0.910612 0.237359 -0.122764
C70   C     C_R   0.715690 0.812675 0.279048 -0.128740
H27   H     H_    0.825179 0.875743 0.445183 0.175756
H28   H     H_    0.847285 0.048218 0.371293 0.156656
H29   H     H_    0.786639 0.071182 0.238283 0.140812
H30   H     H_    0.702623 0.920714 0.179323 0.136375
H31   H     H_    0.678026 0.747421 0.253050 0.123020
C71   C     C_R   0.250345 0.200763 0.645646 0.139181
C72   C     C_R   0.284125 0.187264 0.720953 -0.128479
C73   C     C_R   0.270643 0.089318 0.762636 -0.122769
C74   C     C_R   0.223502 0.004505 0.729358 -0.090211
C75   C     C_R   0.189542 0.017472 0.654358 -0.132545
C76   C     C_R   0.202770 0.115259 0.612568 -0.040001
H32   H     H_    0.321700 0.252501 0.746973 0.123037
H33   H     H_    0.297058 0.079192 0.820688 0.136367
H34   H     H_    0.213228 0.928763 0.761681 0.140812
H35   H     H_    0.152813 0.951780 0.628636 0.156643
H36   H     H_    0.174967 0.124271 0.554755 0.175793
C77   C     C_R   0.390724 0.638934 0.387218 0.036881
C78   C     C_R   0.384826 0.731548 0.387497 -0.188582
C79   C     C_R   0.312943 0.763771 0.338570 -0.109446
C80   C     C_R   0.249679 0.706240 0.286707 -0.114086
C81   C     C_R   0.258703 0.616851 0.283736 -0.113996
C82   C     C_R   0.327895 0.582322 0.334420 -0.070764
H37   H     H_    0.436339 0.778642 0.425297 0.149266
H38   H     H_    0.307761 0.834354 0.339865 0.153548
H39   H     H_    0.195301 0.732079 0.247773 0.145948
H40   H     H_    0.213651 0.575605 0.241103 0.146967
H41   H     H_    0.335676 0.514069 0.330753 0.186131
C83   C     C_R   0.609194 0.360921 0.612726 0.036835
C84   C     C_R   0.671960 0.417413 0.665605 -0.070606
C85   C     C_R   0.741141 0.382835 0.716262 -0.114001
C86   C     C_R   0.750191 0.293497 0.713198 -0.114095
C87   C     C_R   0.686964 0.236067 0.661270 -0.109462
C88   C     C_R   0.615106 0.268347 0.612359 -0.188586
H42   H     H_    0.664130 0.485603 0.669353 0.186117
H43   H     H_    0.786164 0.424000 0.758944 0.146955
H44   H     H_    0.804555 0.267616 0.752114 0.145972
H45   H     H_    0.692160 0.165517 0.659907 0.153566
H46   H     H_    0.563623 0.221332 0.574504 0.149293
N9    N     N_R   0.914581 0.635706 0.665474 0.136636
O13   O     O_R   0.834746 0.641964 0.677326 -0.347234
O14   O     O_R   0.959537 0.698949 0.610397 -0.369247
N10   N     N_R   0.085305 0.364105 0.334569 0.136504
O15   O     O_R   0.040504 0.301121 0.389774 -0.369231
O16   O     O_R   0.164880 0.357490 0.322599 -0.347100
N11   N     N_R   0.646060 0.813715 0.574914 0.126003
O17   O     O_R   0.610828 0.745231 0.631644 -0.356184
O18   O     O_R   0.696935 0.795897 0.537364 -0.383819
N12   N     N_R   0.353961 0.186284 0.424942 0.125988
O19   O     O_R   0.389148 0.254742 0.368188 -0.356168
O20   O     O_R   0.303150 0.204138 0.462523 -0.383825

loop_
_geom_bond_atom_site_label_1
_geom_bond_atom_site_label_2
_geom_bond_distance
_ccdc_geom_bond_type
C38   C40   1.400477 A    
C79   H38   1.082422 S    
C47   C48   1.455093 A    
C73   C74   1.398528 A    
C22   H10   1.079828 S    
C1    C19   1.478713 S    
C13   C15   1.421412 A    
C69   C70   1.398523 A    
C84   C85   1.398041 A    
C33   H11   1.073607 S    
C44   C48   1.449067 A    
C75   C76   1.397863 A    
C66   C67   1.397866 A    
C77   C78   1.405774 A    
C21   C23   1.393105 A    
C9    C18   1.478495 S    
C53   C54   1.409278 A    
C30   C36   1.408490 A    
C10   C17   1.478502 S    
C63   H25   1.081663 S    
N9    O13   1.301293 A    
O1    C1    1.309701 A    
N6    C40   1.371749 A    
C10   C12   1.399409 A    
N11   O18   1.299532 A    
C12   H4    1.082722 S    
C23   H8    1.077649 S    
C83   C84   1.400659 A    
C80   H39   1.082321 S    
N1    C18   1.356856 A    
C50   C52   1.383850 A    
C6    C16   1.428616 A    
C67   C68   1.397773 A    
C38   C46   1.409273 A    
C60   C61   1.397874 A    
C14   N10   1.440464 S    
C37   C45   1.409299 A    
C68   C69   1.398516 A    
C5    C7    1.402179 A    
C27   C29   1.422089 A    
C57   H20   1.079101 S    
C41   C43   1.430873 A    
C74   H34   1.082380 S    
Cu1   Cu2   2.695637 S    
C7    H1    1.082933 S    
N8    O11   1.298975 A    
C72   H32   1.080956 S    
N5    C41   1.364264 A    
C34   C36   1.393987 A    
C37   C39   1.400483 A    
N7    O9    1.296437 A    
C2    C20   1.478699 S    
C40   N7    1.435638 S    
C11   C13   1.403212 A    
N4    C18   1.358515 A    
C60   H22   1.083200 S    
C5    C53   1.491991 S    
C22   C24   1.393113 A    
C62   H24   1.082586 S    
N9    O14   1.301893 A    
C86   H44   1.082319 S    
C46   C52   1.393185 A    
C55   H18   1.081664 S    
N12   O20   1.299536 A    
N7    O10   1.298979 A    
O2    C2    1.309709 A    
C75   H35   1.082667 S    
C36   N12   1.437733 S    
C24   H7    1.077653 S    
C26   C28   1.408890 A    
C5    C15   1.428568 A    
C28   C30   1.422084 A    
C49   C51   1.383836 A    
C77   C82   1.400661 A    
C53   C58   1.408394 A    
N5    C39   1.371739 A    
C6    C59   1.491989 S    
C68   H29   1.082379 S    
N2    C17   1.356858 A    
C12   C14   1.403279 A    
C58   H21   1.083200 S    
C48   C49   1.426880 A    
C52   H14   1.083483 S    
C43   C45   1.415212 A    
O7    Cu2   1.926736 S    
C54   C55   1.398083 A    
C35   N11   1.437741 S    
C7    C9    1.397182 A    
C83   C88   1.405769 A    
C33   C35   1.393987 A    
N10   O16   1.301093 A    
C19   C25   1.400512 A    
O5    C3    1.304626 A    
C69   H30   1.082252 S    
C20   C26   1.400514 A    
C78   H37   1.078744 S    
O7    C3    1.311383 A    
C81   H40   1.078319 S    
C39   N8    1.435635 S    
C62   C63   1.395850 A    
C27   C31   1.427964 A    
O6    C4    1.304639 A    
C31   C34   1.412210 A    
C21   H9    1.079825 S    
C59   C60   1.408391 A    
N1    N3    1.330598 A    
C32   C33   1.412221 A    
C45   C51   1.393194 A    
C88   H46   1.078741 S    
C85   C86   1.396918 A    
C42   H15   1.066175 S    
C25   C27   1.408909 A    
O3    Cu2   1.932818 S    
O8    C4    1.311399 A    
C44   C46   1.415179 A    
C67   H28   1.082661 S    
N6    C42   1.364260 A    
C87   H45   1.082430 S    
C9    C11   1.399441 A    
N12   O19   1.301407 A    
C31   C32   1.416257 A    
C38   C71   1.487051 S    
O4    C2    1.297614 A    
O1    Cu1   1.953150 S    
C85   H43   1.078349 S    
C74   C75   1.397785 A    
C21   C29   1.410688 A    
C65   C66   1.404618 A    
C64   H26   1.082750 S    
C22   C30   1.410692 A    
C56   H19   1.082585 S    
O6    Cu2   1.934761 S    
C4    C16   1.498180 S    
C8    C10   1.397129 A    
C37   C65   1.487074 S    
C66   H27   1.081868 S    
C78   C79   1.397268 A    
O3    C1    1.297628 A    
O8    Cu1   1.926736 S    
C82   H41   1.082374 S    
C81   C82   1.398033 A    
C20   C24   1.395205 A    
C13   N9    1.440367 S    
C79   C80   1.396171 A    
C28   C32   1.427971 A    
C51   H13   1.083466 S    
C29   C35   1.408500 A    
C54   H17   1.082749 S    
N10   O15   1.301745 A    
C14   C16   1.421516 A    
C84   H42   1.082376 S    
C41   H16   1.066138 S    
C34   H12   1.073605 S    
C86   C87   1.396186 A    
C43   C47   1.449114 A    
C26   H5    1.074426 S    
C72   C73   1.398526 A    
Cu1   N6    2.024942 S    
C73   H33   1.082261 S    
Cu2   N5    2.024944 S    
C63   C64   1.398075 A    
N3    C17   1.358515 A    
C71   C76   1.404618 A    
C8    H2    1.082933 S    
C70   H31   1.080944 S    
C11   H3    1.082729 S    
C19   C23   1.395207 A    
O2    Cu2   1.953150 S    
C47   C50   1.426935 A    
N8    O12   1.296440 A    
C76   H36   1.081873 S    
N11   O17   1.301410 A    
C80   C81   1.396904 A    
C50   C83   1.479945 S    
C65   C70   1.402716 A    
C25   H6    1.074433 S    
O5    Cu1   1.934762 S    
C56   C57   1.395640 A    
C3    C15   1.498132 S    
C55   C56   1.395854 A    
C6    C8    1.402162 A    
C61   C62   1.395642 A    
C87   C88   1.397276 A    
C42   C44   1.430878 A    
C49   C77   1.479974 S    
C57   C58   1.397864 A    
C59   C64   1.409283 A    
C61   H23   1.079099 S    
O4    Cu1   1.932820 S    
N2    N4    1.330603 A    
C71   C72   1.402721 A    
