data_mof_unit_16174.cif
_audit_creation_date              2012-12-11T16:07:26-0500
_audit_creation_method            fapswitch 2.2
_symmetry_space_group_name_H-M    P1
_symmetry_Int_Tables_number       1
_space_group_crystal_system       triclinic
_cell_length_a                    17.104267
_cell_length_b                    17.173583
_cell_length_c                    17.224652
_cell_angle_alpha                 90.21656
_cell_angle_beta                  90.630645
_cell_angle_gamma                 89.984604
_cell_volume                      5059.2532073

loop_
_atom_site_label
_atom_site_type_symbol
_atom_type_description
_atom_site_fract_x
_atom_site_fract_y
_atom_site_fract_z
_atom_type_partial_charge
C1    C     C_R   0.422466 0.671937 0.644586 -0.019215
C2    C     C_R   0.608048 0.697812 0.605838 -0.032002
C3    C     C_3   0.700107 0.242651 0.734445 0.825758
C4    C     C_3   0.686615 0.768708 0.257803 0.848858
C5    C     C_3   0.186702 0.240612 0.642011 0.912950
C6    C     C_3   0.707057 0.189727 0.293095 0.873551
C7    C     C_3   0.233845 0.693230 0.741272 0.863592
C8    C     C_3   0.793145 0.752722 0.774407 0.825755
C9    C     C_3   0.298525 0.288351 0.129047 0.876383
C10   C     C_3   0.737027 0.317766 0.864477 0.848614
C11   C     C_3   0.227560 0.768077 0.213331 0.826181
C12   C     C_3   0.258293 0.204944 0.774604 0.870103
C13   C     C_R   0.697965 0.393275 0.393820 -0.137966
C14   C     C_3   0.757622 0.678517 0.154026 0.881861
C15   C     C_3   0.324032 0.752378 0.853889 0.889196
C16   C     C_3   0.850720 0.250976 0.291934 0.887361
C17   C     C_2   0.866936 0.640401 0.697033 1.128845
C18   C     C_2   0.262208 0.437262 0.149369 1.189049
C19   C     C_2   0.579035 0.329234 0.872985 1.171576
C20   C     C_2   0.375949 0.803676 0.240289 1.143650
C21   C     C_2   0.263794 0.359679 0.792087 1.159060
C22   C     C_2   0.830029 0.621617 0.280299 1.035115
C23   C     C_2   0.390266 0.829166 0.736596 1.118624
C24   C     C_R   0.328780 0.580449 0.644905 -0.036474
C25   C     C_2   0.774583 0.371659 0.227077 1.138076
C26   C     C_2   0.837927 0.228057 0.447024 1.138683
C27   C     C_2   0.357364 0.601128 0.878321 1.153538
C28   C     C_2   0.608568 0.636605 0.120551 1.173301
C29   C     C_2   0.357312 0.130368 0.680084 1.129999
C30   C     C_2   0.169120 0.627788 0.240412 1.137116
C31   C     C_2   0.810213 0.416049 0.776715 1.147617
C32   C     C_2   0.443239 0.249458 0.174324 1.172993
C33   C     C_2   0.640878 0.761738 0.788785 1.224032
C34   C     C_2   0.317168 0.131552 0.261255 1.168940
C35   C     C_R   0.578784 0.671156 0.354887 -0.028249
C36   C     C_2   0.703283 0.927906 0.709833 1.119887
C37   C     C_2   0.062756 0.757884 0.335212 1.145014
C38   C     C_2   0.851168 0.227073 0.717026 1.155255
C39   C     C_2   0.620798 0.829914 0.128565 1.112381
C40   C     C_2   0.173595 0.085761 0.628629 1.184090
C41   C     C_2   0.787157 0.067157 0.353637 1.155991
C42   C     C_2   0.167088 0.619604 0.861474 1.079141
C43   C     C_2   0.198262 0.841781 0.716046 1.171138
C44   C     C_2   0.715548 0.215020 0.139702 1.110833
C45   C     C_2   0.090342 0.320320 0.731249 1.153361
C46   C     C_R   0.396296 0.302161 0.607516 -0.095527
C47   C     C_2   0.830656 0.807340 0.299968 1.132116
C48   C     C_2   0.622347 0.150384 0.833298 1.111796
C49   C     C_2   0.260065 0.930675 0.338446 1.174212
C50   C     C_2   0.925549 0.810996 0.629633 1.169005
C51   C     C_2   0.127575 0.325017 0.239072 1.149687
C52   C     C_R   0.303185 0.603049 0.387600 -0.100287
C53   C     C_R   0.671489 0.423219 0.645367 -0.084506
C54   C     C_R   0.923769 0.169654 0.146325 -0.011355
C55   C     C_R   0.106996 0.800292 0.899548 -0.052124
C56   C     C_R   0.198232 0.105618 0.108074 -0.096687
C57   C     C_R   0.605279 0.302009 0.392828 -0.052178
C58   C     C_R   0.831913 0.926373 0.852795 -0.025140
C59   C     C_R   0.073781 0.835379 0.148723 -0.028600
C60   C     C_R   0.890555 0.198615 0.898271 -0.106056
C61   C     C_R   0.800822 0.894235 0.103049 -0.066310
C62   C     C_R   0.168156 0.077770 0.853092 -0.027250
C63   C     C_R   0.925774 0.835936 0.850571 -0.022186
C64   C     C_R   0.106242 0.197395 0.108550 -0.075461
C65   C     C_R   0.199374 0.891402 0.899716 -0.148750
C66   C     C_R   0.832981 0.075729 0.147373 -0.127471
C67   C     C_R   0.075347 0.169982 0.854529 -0.059704
C68   C     C_R   0.698465 0.604421 0.607788 -0.087220
C69   C     C_R   0.891860 0.801477 0.102767 -0.051192
C70   C     C_R   0.800027 0.105656 0.897515 -0.077588
C71   C     C_R   0.166865 0.926453 0.148268 -0.031099
C72   C     C_3   0.330578 0.331195 0.243501 -0.216916
C73   C     C_3   0.738193 0.732611 0.664181 -0.219573
C74   C     C_3   0.265937 0.728252 0.324568 -0.201120
C75   C     C_3   0.678099 0.327833 0.753160 -0.214870
C76   C     C_3   0.681107 0.679147 0.253325 -0.213231
C77   C     C_3   0.270164 0.263618 0.665677 -0.226667
C78   C     C_3   0.733307 0.264590 0.335267 -0.246125
C79   C     C_R   0.334458 0.426730 0.350997 -0.006640
C80   C     C_3   0.323281 0.683438 0.748178 -0.226897
C81   C     C_3   0.824751 0.831619 0.745771 -0.202033
C82   C     C_3   0.237103 0.234697 0.166059 -0.194220
C83   C     C_3   0.758861 0.233451 0.844434 -0.242033
C84   C     C_3   0.173590 0.828629 0.252249 -0.221128
C85   C     C_3   0.173855 0.181595 0.751872 -0.225155
C86   C     C_3   0.762875 0.767578 0.159283 -0.224636
C87   C     C_3   0.235115 0.761616 0.846084 -0.206864
C88   C     C_3   0.824533 0.176456 0.249439 -0.222381
C89   C     C_R   0.362301 0.641203 0.686716 0.165241
C90   C     C_R   0.577635 0.332413 0.647362 0.003932
C91   C     C_R   0.681078 0.317583 0.374286 0.170810
C92   C     C_R   0.684043 0.680318 0.625821 0.196023
C93   C     C_R   0.371670 0.372263 0.305301 0.167697
C94   C     C_R   0.637593 0.366626 0.689929 0.136943
C95   C     C_R   0.320527 0.676217 0.362445 0.186977
C96   C     C_R   0.320755 0.317020 0.626159 0.170163
C97   C     C_R   0.637897 0.637568 0.312165 0.101832
C98   C     C_R   0.867280 0.134497 0.190663 0.158173
C99   C     C_R   0.184455 0.813728 0.887640 0.202292
C100  C     C_R   0.182227 0.180844 0.129341 0.175884
C101  C     C_R   0.394977 0.695380 0.386968 -0.094101
C102  C     C_R   0.867541 0.871811 0.806860 0.117014
C103  C     C_R   0.130407 0.871724 0.193812 0.166940
C104  C     C_R   0.813094 0.182311 0.883557 0.160250
C105  C     C_R   0.814736 0.817437 0.117179 0.200861
C106  C     C_R   0.133627 0.137770 0.810991 0.115542
C107  C     C_3   0.819497 0.713756 0.699006 -0.332617
C108  C     C_3   0.271049 0.356739 0.181099 -0.341968
C109  C     C_3   0.652576 0.302835 0.834546 -0.351252
C110  C     C_3   0.294163 0.791559 0.268430 -0.378175
C111  C     C_3   0.241913 0.287786 0.746569 -0.378072
C112  C     C_R   0.302714 0.392809 0.606999 -0.059947
C113  C     C_3   0.770541 0.673915 0.242585 -0.330270
C114  C     C_3   0.332280 0.771223 0.766848 -0.363709
C115  C     C_3   0.776386 0.292034 0.262375 -0.375882
C116  C     C_3   0.807649 0.223480 0.365205 -0.336451
C117  C     C_3   0.315477 0.664439 0.835023 -0.360082
C118  C     C_3   0.667973 0.683707 0.164901 -0.374386
C119  C     C_3   0.286606 0.180026 0.694085 -0.350681
C120  C     C_3   0.198473 0.705301 0.268898 -0.337611
C121  C     C_3   0.762203 0.343425 0.782678 -0.355364
C122  C     C_3   0.358852 0.263835 0.191986 -0.407224
C123  C     C_R   0.669256 0.576892 0.354152 -0.002139
C124  C     C_3   0.712793 0.772134 0.740314 -0.387630
C125  C     C_3   0.297483 0.209844 0.228391 -0.341060
C126  C     C_3   0.743715 0.850541 0.710645 -0.346837
C127  C     C_3   0.145248 0.765814 0.308462 -0.362762
C128  C     C_3   0.783585 0.258710 0.762631 -0.324185
C129  C     C_3   0.673819 0.773613 0.169571 -0.355211
C130  C     C_3   0.202147 0.156687 0.671131 -0.376831
C131  C     C_3   0.781670 0.148121 0.322073 -0.359009
C132  C     C_3   0.225770 0.674367 0.827803 -0.348693
C133  C     C_3   0.243198 0.779946 0.759130 -0.374821
C134  C     C_R   0.426569 0.335015 0.351196 -0.073961
C135  C     C_3   0.749499 0.217853 0.220536 -0.354624
C136  C     C_3   0.158034 0.265424 0.723082 -0.375265
C137  C     C_3   0.775149 0.763003 0.247760 -0.361850
C138  C     C_3   0.674762 0.217728 0.815469 -0.348939
C139  C     C_3   0.240655 0.851547 0.307982 -0.356814
C140  C     C_3   0.850594 0.792737 0.669939 -0.357680
C141  C     C_3   0.209305 0.303011 0.217335 -0.397675
C142  C     C_3   0.268589 0.277069 0.278866 0.830780
C143  C     C_3   0.769019 0.811035 0.634269 0.864111
C144  C     C_3   0.212852 0.788009 0.364618 0.864210
F1    F     F_    0.251563 0.271062 0.357137 -0.617195
F2    F     F_    0.312903 0.292620 0.050309 -0.614061
F3    F     F_    0.757047 0.355422 0.932984 -0.620582
F4    F     F_    0.236793 0.758036 0.134067 -0.624029
F5    F     F_    0.296092 0.187578 0.843943 -0.615674
F6    F     F_    0.794359 0.633335 0.098681 -0.609123
F7    F     F_    0.368809 0.782910 0.914034 -0.623635
F8    F     F_    0.925110 0.282250 0.292020 -0.629653
F9    F     F_    0.755525 0.839624 0.560354 -0.628965
F10   F     F_    0.206344 0.796491 0.444197 -0.629668
F11   F     F_    0.682517 0.202661 0.666481 -0.652869
F12   F     F_    0.651622 0.817094 0.311675 -0.627452
F13   F     F_    0.152181 0.258966 0.571403 -0.598209
F14   F     F_    0.632796 0.157851 0.293079 -0.625927
F15   F     F_    0.186029 0.664478 0.682484 -0.625961
F16   F     F_    0.803693 0.721439 0.847849 -0.625622
H1    H     H_    0.460886 0.719145 0.660273 0.121703
H2    H     H_    0.581412 0.754953 0.604776 0.119487
H3    H     H_    0.755005 0.420486 0.394827 0.124414
H4    H     H_    0.278694 0.545803 0.660402 0.170029
H5    H     H_    0.544155 0.721485 0.339685 0.153139
H6    H     H_    0.425938 0.246824 0.606579 0.132730
H7    H     H_    0.246215 0.576539 0.391000 0.166302
H8    H     H_    0.722199 0.457847 0.658778 0.109414
H9    H     H_    0.957726 0.220733 0.160776 0.162477
H10   H     H_    0.077333 0.744780 0.899767 0.123613
H11   H     H_    0.255111 0.078832 0.104225 0.169786
H12   H     H_    0.577338 0.245626 0.394525 0.172188
H13   H     H_    0.781517 0.961352 0.838744 0.110562
H14   H     H_    0.038753 0.785757 0.164718 0.107272
H15   H     H_    0.917662 0.255526 0.898987 0.149926
H16   H     H_    0.745178 0.923963 0.103179 0.113625
H17   H     H_    0.217863 0.042746 0.836615 0.129473
H18   H     H_    0.961398 0.787111 0.833034 0.137185
H19   H     H_    0.079204 0.254229 0.105968 0.115814
H20   H     H_    0.255884 0.919670 0.899458 0.160219
H21   H     H_    0.783120 0.040910 0.163243 0.136836
H22   H     H_    0.037299 0.217576 0.839624 0.132828
H23   H     H_    0.754161 0.575359 0.606377 0.132522
H24   H     H_    0.919676 0.744903 0.103203 0.151653
H25   H     H_    0.744474 0.076055 0.899123 0.119108
H26   H     H_    0.217996 0.960276 0.163529 0.125896
H27   H     H_    0.925414 0.561942 0.632508 0.338801
H28   H     H_    0.300709 0.548292 0.149895 0.365998
H29   H     H_    0.461376 0.333406 0.869237 0.380170
H30   H     H_    0.470173 0.756671 0.188817 0.339471
H31   H     H_    0.256903 0.476458 0.801755 0.322105
H32   H     H_    0.916409 0.543169 0.266421 0.366351
H33   H     H_    0.430344 0.889109 0.644807 0.343523
H34   H     H_    0.283417 0.460159 0.334967 0.133533
H35   H     H_    0.709823 0.458361 0.182182 0.376113
H36   H     H_    0.926560 0.257588 0.519368 0.370144
H37   H     H_    0.376585 0.548000 0.980941 0.349829
H38   H     H_    0.567413 0.529968 0.093008 0.363560
H39   H     H_    0.423579 0.073012 0.602510 0.346403
H40   H     H_    0.133098 0.563584 0.148754 0.371297
H41   H     H_    0.915077 0.463973 0.754272 0.348126
H42   H     H_    0.543628 0.293750 0.132822 0.367344
H43   H     H_    0.581140 0.795853 0.883208 0.376064
H44   H     H_    0.362837 0.024843 0.243270 0.357116
H45   H     H_    0.542703 0.283104 0.664287 0.146910
H46   H     H_    0.709459 0.041855 0.682825 0.386787
H47   H     H_    0.968788 0.689671 0.347718 0.349873
H48   H     H_    0.908011 0.131931 0.678229 0.355226
H49   H     H_    0.579368 0.870199 0.026370 0.355976
H50   H     H_    0.080804 0.023918 0.589997 0.339736
H51   H     H_    0.856468 0.982430 0.396679 0.357549
H52   H     H_    0.077199 0.545893 0.842085 0.357524
H53   H     H_    0.092823 0.884097 0.684548 0.319736
H54   H     H_    0.729356 0.239201 0.026587 0.354914
H55   H     H_    0.010781 0.387238 0.675669 0.366560
H56   H     H_    0.421247 0.752637 0.387816 0.135205
H57   H     H_    0.867882 0.828011 0.409653 0.359981
H58   H     H_    0.556882 0.061534 0.792353 0.380978
H59   H     H_    0.328871 0.994746 0.410050 0.380440
H60   H     H_    0.990876 0.892177 0.576490 0.335350
H61   H     H_    0.042392 0.406141 0.237554 0.374886
H62   H     H_    0.245451 0.419559 0.606822 0.164630
H63   H     H_    0.715650 0.538183 0.337324 0.111059
H64   H     H_    0.460966 0.284865 0.335415 0.116839
N1    N     N_R   0.424590 0.632770 0.578330 -0.062477
N2    N     N_R   0.575410 0.632770 0.578330 -0.064091
N3    N     N_R   0.632770 0.424590 0.421670 -0.055371
N4    N     N_R   0.367230 0.575410 0.578330 -0.064154
N5    N     N_R   0.575410 0.632770 0.421670 -0.062350
N6    N     N_R   0.424590 0.367230 0.578330 -0.065456
N7    N     N_R   0.367230 0.575410 0.421670 -0.065532
N8    N     N_R   0.632770 0.424590 0.578330 -0.059624
N9    N     N_R   0.924590 0.132770 0.078330 -0.061132
N10   N     N_R   0.075410 0.867230 0.921670 -0.070268
N11   N     N_R   0.132770 0.075410 0.078330 -0.063541
N12   N     N_R   0.575410 0.367230 0.421670 -0.069142
N13   N     N_R   0.867230 0.924590 0.921670 -0.061922
N14   N     N_R   0.075410 0.867230 0.078330 -0.051061
N15   N     N_R   0.924590 0.132770 0.921670 -0.061087
N16   N     N_R   0.867230 0.924590 0.078330 -0.056362
N17   N     N_R   0.132770 0.075410 0.921670 -0.052314
N18   N     N_R   0.924590 0.867230 0.921670 -0.054586
N19   N     N_R   0.075410 0.132770 0.078330 -0.061997
N20   N     N_R   0.132770 0.924590 0.921670 -0.067182
N21   N     N_R   0.867230 0.075410 0.078330 -0.054748
N22   N     N_R   0.075410 0.132770 0.921670 -0.056524
N23   N     N_R   0.632770 0.575410 0.578330 -0.061352
N24   N     N_R   0.924590 0.867230 0.078330 -0.064092
N25   N     N_R   0.867230 0.075410 0.921670 -0.059658
N26   N     N_R   0.132770 0.924590 0.078330 -0.053477
N27   N     N_R   0.367230 0.424590 0.421670 -0.054816
N28   N     N_R   0.575410 0.367230 0.578330 -0.063512
N29   N     N_R   0.424590 0.632770 0.421670 -0.062618
N30   N     N_R   0.367230 0.424590 0.578330 -0.068456
N31   N     N_R   0.632770 0.575410 0.421670 -0.058549
N32   N     N_R   0.424590 0.367230 0.421670 -0.048274
Ni1   Ni    Ni4+2 0.500000 0.631570 0.500000 0.267597
Ni2   Ni    Ni4+2 0.500000 0.368430 0.500000 0.266082
Ni3   Ni    Ni4+2 0.631570 0.500000 0.500000 0.253210
Ni4   Ni    Ni4+2 0.368430 0.500000 0.500000 0.272828
Ni5   Ni    Ni4+2 1.000000 0.131570 0.000000 0.259135
Ni6   Ni    Ni4+2 1.000000 0.868430 0.000000 0.277311
Ni7   Ni    Ni4+2 0.131570 0.000000 0.000000 0.270077
Ni8   Ni    Ni4+2 0.868430 0.000000 0.000000 0.252122
O1    O     O_2   0.885173 0.608385 0.757760 -0.569105
O2    O     O_R   0.239119 0.432686 0.766122 -0.811347
O3    O     O_2   0.837906 0.621870 0.350910 -0.611528
O4    O     O_R   0.877483 0.574377 0.234438 -0.695927
O5    O     O_2   0.438335 0.858621 0.780744 -0.570616
O6    O     O_R   0.388599 0.849601 0.658131 -0.739854
O7    O     O_2   0.835471 0.407519 0.218226 -0.563197
O8    O     O_R   0.703228 0.404196 0.204198 -0.767656
O9    O     O_2   0.796943 0.205957 0.500271 -0.583740
O10   O     O_R   0.912693 0.257577 0.461991 -0.683779
O11   O     O_2   0.401648 0.557348 0.844060 -0.625895
O12   O     O_R   0.893148 0.611080 0.626161 -0.753140
O13   O     O_R   0.345488 0.592762 0.957962 -0.688949
O14   O     O_2   0.558713 0.669068 0.080974 -0.578520
O15   O     O_R   0.610416 0.555510 0.125078 -0.761085
O16   O     O_2   0.399008 0.110641 0.734618 -0.568353
O17   O     O_R   0.374755 0.106404 0.604625 -0.739798
O18   O     O_2   0.148668 0.578227 0.286591 -0.608494
O19   O     O_R   0.159888 0.614901 0.160740 -0.714738
O20   O     O_2   0.782173 0.478365 0.796651 -0.558846
O21   O     O_R   0.887523 0.411860 0.752410 -0.775118
O22   O     O_2   0.473372 0.186756 0.189432 -0.522295
O23   O     O_2   0.216257 0.449095 0.095904 -0.556913
O24   O     O_R   0.487159 0.309073 0.141233 -0.735627
O25   O     O_2   0.592218 0.712315 0.771840 -0.645332
O26   O     O_R   0.631346 0.807949 0.854928 -0.720673
O27   O     O_2   0.308904 0.119911 0.330564 -0.553577
O28   O     O_R   0.349134 0.073977 0.213753 -0.769730
O29   O     O_2   0.636752 0.933916 0.734194 -0.612429
O30   O     O_R   0.742209 0.992751 0.680453 -0.708808
O31   O     O_2   0.030877 0.813104 0.366718 -0.584180
O32   O     O_R   0.022928 0.687757 0.324801 -0.772159
O33   O     O_2   0.896049 0.271157 0.684592 -0.603352
O34   O     O_R   0.308941 0.497527 0.178645 -0.805058
O35   O     O_R   0.860862 0.146538 0.710343 -0.753653
O36   O     O_2   0.582059 0.876289 0.165946 -0.540431
O37   O     O_R   0.616711 0.829429 0.047535 -0.735702
O38   O     O_2   0.220194 0.039305 0.601765 -0.538135
O39   O     O_R   0.093258 0.073679 0.619469 -0.769406
O40   O     O_2   0.728295 0.027338 0.359114 -0.517219
O41   O     O_R   0.859943 0.037623 0.376345 -0.745128
O42   O     O_2   0.166333 0.608611 0.931516 -0.544464
O43   O     O_R   0.113639 0.581446 0.812650 -0.718461
O44   O     O_2   0.232744 0.895237 0.684893 -0.580480
O45   O     O_2   0.582433 0.364639 0.934602 -0.540796
O46   O     O_R   0.116705 0.838270 0.713135 -0.769223
O47   O     O_2   0.652286 0.183900 0.127851 -0.556433
O48   O     O_R   0.757376 0.246610 0.078223 -0.753299
O49   O     O_2   0.074299 0.347626 0.794723 -0.623616
O50   O     O_R   0.049798 0.344428 0.664738 -0.692512
O51   O     O_2   0.876715 0.854060 0.272954 -0.644973
O52   O     O_R   0.828302 0.795121 0.380061 -0.691718
O53   O     O_2   0.604137 0.137601 0.900471 -0.599240
O54   O     O_R   0.592840 0.104007 0.773038 -0.728908
O55   O     O_2   0.218270 0.985936 0.321806 -0.605889
O56   O     O_R   0.506835 0.312915 0.837925 -0.780138
O57   O     O_R   0.323638 0.939726 0.389304 -0.722792
O58   O     O_2   0.974117 0.760004 0.619022 -0.543577
O59   O     O_R   0.939156 0.886867 0.604156 -0.749167
O60   O     O_2   0.087335 0.278606 0.274397 -0.506189
O61   O     O_R   0.098112 0.398332 0.219609 -0.772037
O62   O     O_2   0.408105 0.866602 0.249418 -0.582454
O63   O     O_R   0.414964 0.742311 0.203951 -0.745080
O64   O     O_2   0.301774 0.353937 0.852290 -0.532472

loop_
_geom_bond_atom_site_label_1
_geom_bond_atom_site_label_2
_ccdc_geom_bond_type
C5    C136  S    
C81   C126  S    
N15   N25   A    
C44   O48   S    
C48   O54   S    
C78   C115  S    
C83   C128  S    
H60   O59   S    
C15   F7    S    
N28   Ni2   S    
N2    N23   A    
C27   O13   S    
C9    C108  S    
C72   C142  S    
C29   C119  S    
C79   H34   S    
N13   N18   A    
N9    Ni5   S    
C7    C133  S    
C17   C107  S    
C67   N22   A    
C50   C140  S    
C7    F15   S    
C126  C143  S    
C30   O18   D    
C119  C130  S    
H32   O4    S    
C107  C140  S    
C43   C133  S    
C117  C132  S    
C74   C144  S    
C70   H25   S    
C22   C113  S    
H38   O15   S    
C56   N11   A    
C39   O36   D    
N8    N28   A    
C61   C105  A    
C19   O56   S    
C87   C99   S    
H27   O12   S    
C44   C135  S    
C36   O30   S    
C13   C91   A    
N13   Ni8   S    
C54   H9    S    
C24   H4    S    
C82   C141  S    
N2    Ni1   S    
N5    N31   A    
C13   H3    S    
H55   O50   S    
N24   Ni6   S    
C27   C117  S    
C65   N20   A    
C16   C88   S    
C8    C81   S    
C31   C121  S    
C121  C128  S    
C41   C131  S    
C69   C105  A    
C123  H63   S    
C76   C118  S    
C101  N29   A    
C82   C125  S    
C74   C110  S    
C67   H22   S    
N27   Ni4   S    
C90   H45   S    
C20   O63   S    
C3    C138  S    
C70   N25   A    
N11   N19   A    
C7    C132  S    
N22   Ni5   S    
C5    C130  S    
C134  H64   S    
H28   O34   S    
C56   H11   S    
H59   O57   S    
H57   O52   S    
C113  C137  S    
H44   O28   S    
C5    C77   S    
C16   C115  S    
H41   O21   S    
C2    N2    A    
C27   O11   D    
C50   O59   S    
C80   C117  S    
C36   C126  S    
C88   C135  S    
C13   N3    A    
C38   C128  S    
C62   C106  A    
C65   H20   S    
C11   C84   S    
C74   C120  S    
N12   Ni2   S    
C48   C138  S    
C42   O43   S    
C19   O45   D    
C118  C129  S    
C28   C118  S    
H54   O48   S    
N9    N21   A    
N27   N32   A    
C30   C120  S    
C34   C125  S    
C68   C92   A    
C144  F10   S    
C18   C108  S    
H46   O30   S    
C143  F9    S    
C46   C96   A    
N17   Ni7   S    
C83   C138  S    
N10   N20   A    
C81   C140  S    
C23   O6    S    
C140  C143  S    
N1    N4    A    
C33   O26   S    
C120  C127  S    
C64   N19   A    
C50   O58   D    
H43   O26   S    
H30   O63   S    
C32   O22   D    
C111  C136  S    
C6    C78   S    
C9    F2    S    
C10   C109  S    
H58   O54   S    
C4    C137  S    
C72   C108  S    
N8    Ni3   S    
N32   Ni2   S    
C3    C75   S    
C55   H10   S    
H42   O24   S    
H37   O13   S    
C37   O31   D    
N14   N26   A    
C11   C110  S    
N16   Ni8   S    
C63   C102  A    
C11   C120  S    
C6    F14   S    
C51   O60   D    
C51   C141  S    
H50   O39   S    
C14   C86   S    
C64   H19   S    
C3    C128  S    
C39   C129  S    
C109  C138  S    
H49   O37   S    
C40   O39   S    
C6    C135  S    
C49   O55   D    
C12   C119  S    
C53   H8    S    
C112  N30   A    
C76   C113  S    
N18   Ni6   S    
C45   O49   D    
C25   O7    D    
C49   O57   S    
C21   O2    S    
C20   C110  S    
C49   C139  S    
C55   N10   A    
C85   C106  S    
C8    C107  S    
H36   O10   S    
C62   N17   A    
C124  C126  S    
C34   O27   D    
C71   C103  A    
N11   Ni7   S    
C47   O52   S    
C78   C116  S    
C73   C92   S    
C32   O24   S    
H29   O56   S    
N4    Ni4   S    
C52   N7    A    
C77   C96   S    
C59   C103  A    
C66   C98   A    
C122  C125  S    
C97   C123  A    
C19   C109  S    
C115  C135  S    
C30   O19   S    
H51   O41   S    
C53   N8    A    
N29   Ni1   S    
N10   Ni6   S    
C55   C99   A    
N15   Ni5   S    
N19   Ni5   S    
C88   C131  S    
C60   C104  A    
C88   C98   S    
C95   C101  A    
C43   O46   S    
C142  F1    S    
C59   H14   S    
C62   H17   S    
N3    N12   A    
C63   H18   S    
C110  C139  S    
C52   H7    S    
C70   C104  A    
C73   C107  S    
C10   C83   S    
C52   C95   A    
C80   C89   S    
C77   C111  S    
C86   C137  S    
C22   O3    D    
C84   C139  S    
C33   C124  S    
C58   C102  A    
C58   N13   A    
C123  N31   A    
C9    C82   S    
C57   H12   S    
C53   C94   A    
C1    H1    S    
C46   N6    A    
C44   O47   D    
C2    H2    S    
C48   O53   D    
C31   O21   S    
C61   H16   S    
C112  H62   S    
C16   C116  S    
C108  C141  S    
C21   C111  S    
C41   O40   D    
C90   C94   A    
N17   N22   A    
C32   C122  S    
C59   N14   A    
C8    C124  S    
C18   O23   D    
C51   O61   S    
C76   C97   S    
C63   N18   A    
C15   C117  S    
H61   O61   S    
H53   O46   S    
C85   C130  S    
C26   O9    D    
N30   Ni4   S    
C14   F6    S    
C3    F11   S    
C9    C122  S    
C16   F8    S    
C60   N15   A    
C40   O38   D    
C65   C99   A    
C57   C91   A    
C72   C93   S    
C36   O29   D    
C4    F12   S    
C66   H21   S    
C5    F13   S    
C18   O34   S    
C43   O44   D    
N14   Ni6   S    
C58   H13   S    
C8    F16   S    
C57   N12   A    
C28   O15   S    
C73   C143  S    
C1    N1    A    
C40   C130  S    
C23   O5    D    
C46   H6    S    
C61   N16   A    
C79   N27   A    
C12   F5    S    
C6    C131  S    
N6    N30   A    
C11   F4    S    
C33   O25   D    
C67   C106  A    
C4    C129  S    
C14   C113  S    
N7    Ni4   S    
C31   O20   D    
C134  N32   A    
C23   C114  S    
C41   O41   S    
C127  C144  S    
N25   Ni8   S    
N7    N29   A    
N26   Ni7   S    
C21   O64   D    
C64   C100  A    
C29   O17   S    
N16   N24   A    
C60   H15   S    
C42   C132  S    
H48   O35   S    
C75   C94   S    
C7    C80   S    
C66   N21   A    
N5    Ni1   S    
C68   H23   S    
C87   C133  S    
C10   C121  S    
C24   C89   A    
C29   O16   D    
C96   C112  A    
C12   C85   S    
C42   O42   D    
C79   C93   A    
C25   C115  S    
C101  H56   S    
H39   O17   S    
C17   O1    D    
N6    Ni2   S    
C14   C118  S    
N20   Ni7   S    
H47   O32   S    
C71   N26   A    
N3    Ni3   S    
C10   F3    S    
C84   C127  S    
C38   O35   S    
H40   O19   S    
H33   O6    S    
H35   O8    S    
C34   O28   S    
C81   C102  S    
C68   N23   A    
N31   Ni3   S    
C75   C109  S    
C83   C104  S    
C47   O51   D    
C93   C134  A    
C26   O10   S    
C85   C136  S    
C90   N28   A    
C35   N5    A    
C87   C132  S    
H52   O43   S    
C139  C144  S    
C69   N24   A    
C125  C142  S    
C73   C124  S    
C47   C137  S    
C15   C114  S    
C2    C92   A    
C80   C114  S    
C37   O32   S    
H31   O2    S    
C86   C105  S    
C56   C100  A    
C71   H26   S    
C17   O12   S    
C15   C87   S    
C45   C136  S    
C1    C89   A    
C72   C122  S    
C75   C121  S    
C82   C100  S    
C74   C95   S    
C77   C119  S    
N23   Ni3   S    
C86   C129  S    
C28   O14   D    
C78   C91   S    
C39   O37   S    
N1    Ni1   S    
C35   C97   A    
C141  C142  S    
C20   O62   D    
C116  C131  S    
C35   H5    S    
C114  C133  S    
C26   C116  S    
C45   O50   S    
C4    C76   S    
C25   O8    S    
C69   H24   S    
C22   O4    S    
C38   O33   D    
C84   C103  S    
C54   C98   A    
C54   N9    A    
C24   N4    A    
N21   Ni8   S    
C12   C111  S    
C37   C127  S    
