data_mof_unit_38594.cif
_audit_creation_date              2012-12-10T17:22:36-0500
_audit_creation_method            fapswitch 2.2
_symmetry_space_group_name_H-M    P1
_symmetry_Int_Tables_number       1
_space_group_crystal_system       triclinic
_cell_length_a                    26.237916
_cell_length_b                    35.812463
_cell_length_c                    26.120833
_cell_angle_alpha                 90.66556
_cell_angle_beta                  90.088305
_cell_angle_gamma                 90.095036
_cell_volume                      24542.5747575

loop_
_atom_site_label
_atom_site_type_symbol
_atom_type_description
_atom_site_fract_x
_atom_site_fract_y
_atom_site_fract_z
_atom_type_partial_charge
C1    C     C_R   0.500015 0.150671 0.249590 0.824873
C2    C     C_R   0.500204 0.150713 0.750096 0.828470
C3    C     C_R   0.499836 0.849290 0.750099 0.823812
C4    C     C_R   0.499970 0.849352 0.250267 0.820620
C5    C     C_R   0.499998 0.650727 0.749612 0.825354
C6    C     C_R   0.500196 0.650738 0.250085 0.826781
C7    C     C_R   0.499854 0.349256 0.250116 0.825218
C8    C     C_R   0.499961 0.349281 0.750291 0.819331
C9    C     C_R   0.000020 0.150668 0.749592 0.824781
C10   C     C_R   0.000198 0.150744 0.250082 0.829438
C11   C     C_R   0.999844 0.849255 0.250111 0.826089
C12   C     C_R   0.999962 0.849344 0.750279 0.818608
C13   C     C_R   0.000010 0.650715 0.249603 0.824863
C14   C     C_R   0.000165 0.650685 0.750053 0.828047
C15   C     C_R   0.999862 0.349315 0.750118 0.824699
C16   C     C_R   0.999979 0.349294 0.250278 0.818578
C17   C     C_R   0.277148 0.214841 0.229337 0.017867
C18   C     C_R   0.274917 0.231237 0.790708 0.020046
C19   C     C_R   0.276222 0.763277 0.795203 0.016885
C20   C     C_R   0.276565 0.766986 0.208077 0.018331
C21   C     C_R   0.276210 0.713793 0.728119 0.019233
C22   C     C_R   0.274979 0.731774 0.289540 0.016773
C23   C     C_R   0.277010 0.267167 0.292624 0.018820
C24   C     C_R   0.276634 0.269698 0.711570 0.014454
C25   C     C_R   0.776445 0.214323 0.727262 0.019559
C26   C     C_R   0.775135 0.232001 0.290907 0.018947
C27   C     C_R   0.776998 0.766360 0.293028 0.018327
C28   C     C_R   0.776706 0.772175 0.712787 0.017278
C29   C     C_R   0.776708 0.714442 0.228265 0.017251
C30   C     C_R   0.775820 0.734788 0.792342 0.018569
C31   C     C_R   0.776645 0.263319 0.795223 0.018924
C32   C     C_R   0.776806 0.269963 0.211197 0.015015
C33   C     C_R   0.196028 0.243719 0.257625 -0.197100
C34   C     C_R   0.196142 0.244643 0.743706 -0.194010
C35   C     C_R   0.195063 0.739208 0.763120 -0.198614
C36   C     C_R   0.196006 0.743928 0.243120 -0.194960
C37   C     C_R   0.695412 0.240655 0.760938 -0.199728
C38   C     C_R   0.696280 0.245831 0.244811 -0.193712
C39   C     C_R   0.695842 0.743130 0.258532 -0.198846
C40   C     C_R   0.696516 0.746207 0.745810 -0.193077
C41   C     C_R   0.304085 0.243368 0.257693 -0.196181
C42   C     C_R   0.303079 0.252882 0.753700 -0.193972
C43   C     C_R   0.303177 0.742433 0.756969 -0.200146
C44   C     C_R   0.303025 0.752140 0.251565 -0.193785
C45   C     C_R   0.803564 0.242389 0.757167 -0.200047
C46   C     C_R   0.803359 0.253062 0.253308 -0.191952
C47   C     C_R   0.803974 0.742998 0.257353 -0.198031
C48   C     C_R   0.803497 0.755011 0.754272 -0.192770
C49   C     C_3   0.439936 0.477596 0.268221 0.408196
C50   C     C_3   0.436604 0.477495 0.745922 0.414622
C51   C     C_3   0.436732 0.522756 0.751019 0.417406
C52   C     C_3   0.438212 0.522690 0.262103 0.408050
C53   C     C_3   0.444300 0.977703 0.778857 0.406359
C54   C     C_3   0.436851 0.977514 0.244289 0.414271
C55   C     C_3   0.436878 0.022818 0.249340 0.417918
C56   C     C_3   0.441510 0.022823 0.773130 0.407954
C57   C     C_3   0.937399 0.477451 0.756857 0.408584
C58   C     C_3   0.936803 0.477502 0.246376 0.414919
C59   C     C_3   0.936970 0.522763 0.251487 0.417875
C60   C     C_3   0.936803 0.522544 0.750228 0.408052
C61   C     C_3   0.938303 0.977598 0.262482 0.408353
C62   C     C_3   0.937178 0.977452 0.743057 0.414833
C63   C     C_3   0.937070 0.022741 0.748187 0.417133
C64   C     C_3   0.937207 0.022687 0.256169 0.407701
C65   C     C_3   0.511628 0.477691 0.195861 -0.059858
C66   C     C_3   0.521094 0.479092 0.801692 -0.057528
C67   C     C_3   0.526887 0.522532 0.797077 -0.040371
C68   C     C_3   0.514539 0.521469 0.196738 -0.038454
C69   C     C_3   0.502049 0.977735 0.694697 -0.059648
C70   C     C_3   0.520013 0.979143 0.301834 -0.059208
C71   C     C_3   0.525907 0.022588 0.297324 -0.040910
C72   C     C_3   0.505120 0.021511 0.695107 -0.038233
C73   C     C_3   0.021285 0.477720 0.699056 -0.061092
C74   C     C_3   0.021673 0.479092 0.301356 -0.058115
C75   C     C_3   0.027408 0.522536 0.296715 -0.040803
C76   C     C_3   0.024299 0.521470 0.700597 -0.040990
C77   C     C_3   0.016510 0.977702 0.197209 -0.060202
C78   C     C_3   0.019236 0.979101 0.802207 -0.057970
C79   C     C_3   0.025146 0.022558 0.797879 -0.040884
C80   C     C_3   0.019457 0.021468 0.198354 -0.038165
C81   C     C_1   0.999629 0.111219 0.249767 -0.174543
C82   C     C_1   0.999487 0.111255 0.748988 -0.172841
C83   C     C_1   0.998929 0.888770 0.751547 -0.174074
C84   C     C_1   0.998926 0.888770 0.249916 -0.176340
C85   C     C_1   0.999468 0.611268 0.749585 -0.174612
C86   C     C_1   0.999402 0.611203 0.249099 -0.172143
C87   C     C_1   0.998916 0.388816 0.251648 -0.173192
C88   C     C_1   0.998968 0.388712 0.749881 -0.176079
C89   C     C_1   0.499874 0.111253 0.750114 -0.174545
C90   C     C_1   0.499436 0.111270 0.248981 -0.173013
C91   C     C_1   0.498866 0.888783 0.251576 -0.171141
C92   C     C_1   0.499110 0.888749 0.750123 -0.177129
C93   C     C_1   0.499688 0.611218 0.249873 -0.174451
C94   C     C_1   0.499338 0.611191 0.749139 -0.172017
C95   C     C_1   0.498827 0.388823 0.751696 -0.172616
C96   C     C_1   0.499035 0.388762 0.249999 -0.176671
C97   C     C_3   0.495477 0.462948 0.250789 0.153676
C98   C     C_3   0.494460 0.462950 0.751453 0.147741
C99   C     C_3   0.494995 0.537078 0.749403 0.149032
C100  C     C_3   0.495035 0.537028 0.250456 0.147222
C101  C     C_3   0.495861 0.962984 0.751656 0.153161
C102  C     C_3   0.494504 0.963004 0.251100 0.148946
C103  C     C_3   0.495100 0.037088 0.249016 0.150723
C104  C     C_3   0.495415 0.037038 0.751528 0.146011
C105  C     C_3   0.995231 0.462971 0.750043 0.153286
C106  C     C_3   0.994632 0.462960 0.251404 0.149478
C107  C     C_3   0.995154 0.537081 0.249338 0.150388
C108  C     C_3   0.994845 0.536999 0.749482 0.148503
C109  C     C_3   0.995243 0.962958 0.250382 0.153363
C110  C     C_3   0.994690 0.962974 0.750981 0.149583
C111  C     C_3   0.995272 0.037064 0.748990 0.150661
C112  C     C_3   0.994924 0.037038 0.249954 0.146892
C113  C     C_3   0.031174 0.022231 0.294289 -0.055893
C114  C     C_3   0.026730 0.020892 0.701914 -0.060159
C115  C     C_3   0.031409 0.977403 0.707010 -0.040321
C116  C     C_3   0.034973 0.978593 0.291258 -0.042756
C117  C     C_3   0.026797 0.522318 0.797089 -0.056373
C118  C     C_3   0.024202 0.520862 0.200762 -0.059638
C119  C     C_3   0.029130 0.477383 0.205640 -0.039993
C120  C     C_3   0.031017 0.478675 0.794416 -0.042529
C121  C     C_3   0.542245 0.022129 0.784362 -0.055063
C122  C     C_3   0.525590 0.020886 0.201323 -0.059948
C123  C     C_3   0.530380 0.977394 0.206404 -0.039401
C124  C     C_3   0.545127 0.978478 0.780267 -0.041738
C125  C     C_3   0.535301 0.522195 0.291101 -0.055639
C126  C     C_3   0.524473 0.520849 0.700979 -0.059043
C127  C     C_3   0.529384 0.477373 0.705927 -0.039150
C128  C     C_3   0.538832 0.478560 0.287714 -0.042611
C129  C     C_1   0.997882 0.077950 0.249882 -0.042827
C130  C     C_1   0.998081 0.077905 0.748592 -0.032640
C131  C     C_1   0.997193 0.922118 0.751850 -0.032017
C132  C     C_1   0.997538 0.922047 0.249980 -0.029149
C133  C     C_1   0.997689 0.577916 0.749538 -0.041797
C134  C     C_1   0.997953 0.577930 0.248824 -0.032238
C135  C     C_1   0.997167 0.422092 0.252106 -0.031956
C136  C     C_1   0.997603 0.422067 0.749831 -0.029593
C137  C     C_1   0.498270 0.077947 0.750735 -0.042530
C138  C     C_1   0.497963 0.077924 0.248573 -0.032613
C139  C     C_1   0.497047 0.922136 0.251922 -0.031489
C140  C     C_1   0.497915 0.922065 0.750564 -0.028247
C141  C     C_1   0.497969 0.577944 0.250151 -0.043329
C142  C     C_1   0.497836 0.577928 0.748872 -0.032155
C143  C     C_1   0.497014 0.422086 0.752166 -0.031416
C144  C     C_1   0.497730 0.422042 0.250173 -0.028688
C145  C     C_R   0.419073 0.210605 0.048028 -0.201499
C146  C     C_R   0.454463 0.190741 0.952188 -0.212291
C147  C     C_R   0.428325 0.798959 0.953921 -0.210895
C148  C     C_R   0.460851 0.815377 0.052265 -0.200532
C149  C     C_R   0.419076 0.711807 0.546461 -0.204367
C150  C     C_R   0.454958 0.689906 0.451514 -0.208061
C151  C     C_R   0.428806 0.299434 0.453625 -0.206546
C152  C     C_R   0.462094 0.315086 0.551886 -0.196920
C153  C     C_R   0.918827 0.211464 0.547608 -0.202996
C154  C     C_R   0.954609 0.190973 0.452165 -0.210758
C155  C     C_R   0.928839 0.799532 0.454161 -0.208087
C156  C     C_R   0.961792 0.815615 0.552469 -0.196389
C157  C     C_R   0.915366 0.715024 0.048868 -0.201309
C158  C     C_R   0.948827 0.693039 0.953136 -0.217329
C159  C     C_R   0.928752 0.299225 0.954048 -0.209906
C160  C     C_R   0.961980 0.315174 0.052253 -0.198162
C161  C     C_R   0.497193 0.248537 0.390275 0.810294
C162  C     C_R   0.503256 0.252010 0.609906 0.813145
C163  C     C_R   0.496325 0.752553 0.610185 0.812620
C164  C     C_R   0.502647 0.748967 0.390554 0.807272
C165  C     C_R   0.497508 0.748659 0.890420 0.810508
C166  C     C_R   0.503694 0.752479 0.110075 0.812047
C167  C     C_R   0.496170 0.252667 0.110183 0.815446
C168  C     C_R   0.500195 0.250397 0.890468 0.807188
C169  C     C_R   0.997419 0.248637 0.890340 0.810448
C170  C     C_R   0.003441 0.252159 0.109985 0.813540
C171  C     C_R   0.996166 0.752919 0.110207 0.816088
C172  C     C_R   0.999650 0.750641 0.890459 0.803408
C173  C     C_R   0.997529 0.748723 0.390418 0.809853
C174  C     C_R   0.003714 0.752441 0.610069 0.814201
C175  C     C_R   0.996307 0.252668 0.610157 0.816297
C176  C     C_R   0.000261 0.250393 0.390431 0.806840
C177  C     C_R   0.398690 0.178995 0.023587 0.249292
C178  C     C_R   0.417061 0.168637 0.975042 0.241557
C179  C     C_R   0.407262 0.829577 0.980337 0.229386
C180  C     C_R   0.423269 0.837588 0.030407 0.244112
C181  C     C_R   0.396191 0.681418 0.521558 0.249395
C182  C     C_R   0.414865 0.669816 0.473596 0.243773
C183  C     C_R   0.408845 0.330390 0.480117 0.231510
C184  C     C_R   0.425146 0.337971 0.530211 0.243632
C185  C     C_R   0.897297 0.180509 0.522607 0.249659
C186  C     C_R   0.916145 0.169564 0.474487 0.242938
C187  C     C_R   0.907476 0.829863 0.481104 0.231134
C188  C     C_R   0.923868 0.837770 0.531080 0.245047
C189  C     C_R   0.892342 0.684327 0.024851 0.250595
C190  C     C_R   0.910139 0.672413 0.976701 0.241943
C191  C     C_R   0.907756 0.329674 0.981006 0.229496
C192  C     C_R   0.924121 0.337400 0.031010 0.246106
C193  C     C_R   0.471008 0.225134 0.974540 0.023727
C194  C     C_R   0.459092 0.231585 0.026115 0.027333
C195  C     C_R   0.479583 0.782786 0.027440 0.029875
C196  C     C_R   0.467563 0.776462 0.975390 0.038119
C197  C     C_R   0.474538 0.723130 0.474374 0.023940
C198  C     C_R   0.461309 0.730705 0.525484 0.032189
C199  C     C_R   0.479445 0.282059 0.527097 0.026941
C200  C     C_R   0.467091 0.276129 0.475083 0.037113
C201  C     C_R   0.971447 0.225244 0.474495 0.022725
C202  C     C_R   0.959491 0.231866 0.525978 0.027118
C203  C     C_R   0.980167 0.782989 0.527491 0.028935
C204  C     C_R   0.967978 0.776817 0.475433 0.037233
C205  C     C_R   0.967685 0.726993 0.974815 0.024151
C206  C     C_R   0.956781 0.734080 0.026467 0.026793
C207  C     C_R   0.979941 0.282373 0.027301 0.027581
C208  C     C_R   0.967644 0.276333 0.975297 0.038096
C209  C     C_R   0.498200 0.253029 0.947118 -0.143884
C210  C     C_R   0.488235 0.258048 0.054446 -0.162174
C211  C     C_R   0.509996 0.756582 0.053797 -0.164772
C212  C     C_R   0.494404 0.747844 0.947429 -0.160211
C213  C     C_R   0.506337 0.748846 0.447566 -0.157013
C214  C     C_R   0.490078 0.756910 0.553956 -0.165252
C215  C     C_R   0.508680 0.255008 0.553393 -0.162094
C216  C     C_R   0.492652 0.247077 0.447036 -0.159166
C217  C     C_R   0.998659 0.253042 0.447031 -0.143547
C218  C     C_R   0.988939 0.258078 0.554357 -0.161193
C219  C     C_R   0.010144 0.756469 0.553784 -0.164643
C220  C     C_R   0.994340 0.747968 0.447419 -0.159534
C221  C     C_R   0.996093 0.754144 0.946985 -0.144465
C222  C     C_R   0.988313 0.759046 0.054551 -0.161959
C223  C     C_R   0.009413 0.255557 0.053602 -0.163076
C224  C     C_R   0.993779 0.247479 0.947200 -0.159206
C225  C     C_R   0.518975 0.285027 0.974261 0.035325
C226  C     C_R   0.514760 0.286643 0.028211 0.030499
C227  C     C_R   0.539074 0.730155 0.025622 0.031235
C228  C     C_R   0.526388 0.722530 0.974281 0.024606
C229  C     C_R   0.533026 0.777852 0.476082 0.039202
C230  C     C_R   0.520479 0.783593 0.527977 0.027978
C231  C     C_R   0.535200 0.226963 0.525117 0.031973
C232  C     C_R   0.522010 0.220241 0.473677 0.023388
C233  C     C_R   0.019816 0.284861 0.474075 0.032656
C234  C     C_R   0.016149 0.286477 0.528088 0.032016
C235  C     C_R   0.038573 0.729612 0.525543 0.031101
C236  C     C_R   0.025649 0.722259 0.474206 0.024559
C237  C     C_R   0.017187 0.785985 0.973615 0.029985
C238  C     C_R   0.015952 0.787218 0.027922 0.034586
C239  C     C_R   0.036840 0.228003 0.025448 0.029791
C240  C     C_R   0.024323 0.221202 0.973823 0.023898
C241  C     C_R   0.544004 0.315431 0.950037 -0.229566
C242  C     C_R   0.535766 0.318235 0.054529 -0.206501
C243  C     C_R   0.580891 0.710937 0.047221 -0.202254
C244  C     C_R   0.546538 0.689618 0.951286 -0.193164
C245  C     C_R   0.572269 0.801202 0.455867 -0.215401
C246  C     C_R   0.537820 0.816023 0.553942 -0.193243
C247  C     C_R   0.575127 0.205335 0.546272 -0.204092
C248  C     C_R   0.539170 0.186762 0.449915 -0.191976
C249  C     C_R   0.044764 0.315293 0.449645 -0.219037
C250  C     C_R   0.038098 0.317773 0.554218 -0.210180
C251  C     C_R   0.079793 0.709643 0.547073 -0.201488
C252  C     C_R   0.044892 0.689104 0.451046 -0.192620
C253  C     C_R   0.039564 0.817240 0.948202 -0.219392
C254  C     C_R   0.040141 0.817790 0.053680 -0.215042
C255  C     C_R   0.076646 0.206731 0.047281 -0.193892
C256  C     C_R   0.043214 0.188100 0.950137 -0.190750
C257  C     C_R   0.572912 0.341821 0.977469 0.233997
C258  C     C_R   0.568858 0.342934 0.030714 0.242037
C259  C     C_R   0.603581 0.680414 0.022592 0.243560
C260  C     C_R   0.586354 0.669561 0.973706 0.254128
C261  C     C_R   0.594464 0.830886 0.484912 0.232845
C262  C     C_R   0.576771 0.838194 0.534512 0.247497
C263  C     C_R   0.594952 0.173977 0.520976 0.243119
C264  C     C_R   0.577066 0.164656 0.471774 0.255174
C265  C     C_R   0.074407 0.341324 0.476710 0.231778
C266  C     C_R   0.071216 0.342373 0.530006 0.240944
C267  C     C_R   0.101332 0.678671 0.522460 0.243808
C268  C     C_R   0.084110 0.668418 0.473345 0.253337
C269  C     C_R   0.071138 0.842676 0.974168 0.236658
C270  C     C_R   0.071977 0.842709 0.027944 0.237024
C271  C     C_R   0.097149 0.175439 0.022474 0.237691
C272  C     C_R   0.081268 0.166537 0.972655 0.245434
C273  C     C_R   0.640067 0.248551 0.248144 0.835557
C274  C     C_R   0.640020 0.247485 0.753254 0.840003
C275  C     C_R   0.640155 0.748453 0.748266 0.835563
C276  C     C_R   0.640189 0.748379 0.252186 0.832373
C277  C     C_R   0.140011 0.248164 0.747715 0.837067
C278  C     C_R   0.140251 0.248458 0.251831 0.834356
C279  C     C_R   0.139984 0.747986 0.247613 0.837744
C280  C     C_R   0.139854 0.746843 0.754187 0.841165
C281  C     C_R   0.359800 0.248369 0.251930 0.833703
C282  C     C_R   0.359726 0.251278 0.751800 0.831228
C283  C     C_R   0.359401 0.748451 0.751325 0.831551
C284  C     C_R   0.359682 0.750938 0.251035 0.833946
C285  C     C_R   0.859552 0.248289 0.751532 0.833036
C286  C     C_R   0.859799 0.251186 0.251553 0.834002
C287  C     C_R   0.859775 0.748236 0.251785 0.834235
C288  C     C_R   0.859856 0.751584 0.751679 0.834276
C289  C     C_R   0.301488 0.185437 0.199778 0.247541
C290  C     C_R   0.295138 0.216920 0.838280 0.229983
C291  C     C_R   0.301342 0.785833 0.832389 0.263530
C292  C     C_R   0.300841 0.781766 0.163482 0.253837
C293  C     C_R   0.300143 0.685891 0.695667 0.239786
C294  C     C_R   0.295930 0.719021 0.337192 0.240339
C295  C     C_R   0.300994 0.290206 0.330786 0.253638
C296  C     C_R   0.301058 0.288049 0.669722 0.266846
C297  C     C_R   0.800145 0.186544 0.694405 0.240476
C298  C     C_R   0.795150 0.218088 0.338755 0.229668
C299  C     C_R   0.801045 0.789378 0.331365 0.254638
C300  C     C_R   0.800467 0.790835 0.670663 0.262589
C301  C     C_R   0.800179 0.685736 0.196430 0.239884
C302  C     C_R   0.797564 0.722933 0.839961 0.245295
C303  C     C_R   0.801534 0.284960 0.833880 0.259315
C304  C     C_R   0.800659 0.286691 0.167481 0.258353
C305  C     C_R   0.275200 0.168811 0.159225 -0.230813
C306  C     C_R   0.269838 0.187915 0.863225 -0.208719
C307  C     C_R   0.286919 0.781194 0.883244 -0.223994
C308  C     C_R   0.277159 0.775443 0.116051 -0.221171
C309  C     C_R   0.271978 0.669079 0.656402 -0.236713
C310  C     C_R   0.274024 0.688484 0.361507 -0.202369
C311  C     C_R   0.276114 0.293501 0.377959 -0.237255
C312  C     C_R   0.279306 0.284039 0.621019 -0.216736
C313  C     C_R   0.772013 0.170566 0.654423 -0.237324
C314  C     C_R   0.769510 0.189429 0.364168 -0.208214
C315  C     C_R   0.776727 0.791832 0.378796 -0.228505
C316  C     C_R   0.776553 0.788798 0.622776 -0.220465
C317  C     C_R   0.771575 0.668534 0.157738 -0.239746
C318  C     C_R   0.776625 0.692637 0.865310 -0.200634
C319  C     C_R   0.782745 0.281980 0.883631 -0.228877
C320  C     C_R   0.775456 0.283836 0.120256 -0.224422
C321  C     C_R   0.223006 0.168457 0.160123 -0.223911
C322  C     C_R   0.225218 0.173126 0.844099 -0.210020
C323  C     C_R   0.237541 0.769093 0.893014 -0.208580
C324  C     C_R   0.224287 0.774065 0.115044 -0.225104
C325  C     C_R   0.220077 0.666949 0.660827 -0.224227
C326  C     C_R   0.229948 0.672311 0.343019 -0.214582
C327  C     C_R   0.223252 0.294534 0.377150 -0.214272
C328  C     C_R   0.226776 0.280066 0.618017 -0.226498
C329  C     C_R   0.719983 0.169532 0.657674 -0.224839
C330  C     C_R   0.725189 0.174281 0.344725 -0.207702
C331  C     C_R   0.723932 0.792095 0.378692 -0.225390
C332  C     C_R   0.723806 0.786436 0.621776 -0.226862
C333  C     C_R   0.719615 0.667104 0.162175 -0.227375
C334  C     C_R   0.732592 0.675885 0.847809 -0.215805
C335  C     C_R   0.731011 0.274927 0.889483 -0.213636
C336  C     C_R   0.722623 0.284922 0.120807 -0.223946
C337  C     C_R   0.197858 0.185175 0.201302 0.244379
C338  C     C_R   0.202715 0.187957 0.800660 0.253509
C339  C     C_R   0.202952 0.769183 0.851837 0.191301
C340  C     C_R   0.198863 0.779467 0.161446 0.245468
C341  C     C_R   0.196304 0.683056 0.703108 0.250850
C342  C     C_R   0.204284 0.687569 0.301469 0.246441
C343  C     C_R   0.199424 0.291235 0.329446 0.266687
C344  C     C_R   0.199675 0.282664 0.663898 0.245335
C345  C     C_R   0.696392 0.184708 0.700602 0.251824
C346  C     C_R   0.703139 0.188727 0.300813 0.254115
C347  C     C_R   0.699577 0.789932 0.331153 0.257962
C348  C     C_R   0.698785 0.787628 0.668814 0.258331
C349  C     C_R   0.696437 0.683986 0.204125 0.254723
C350  C     C_R   0.705985 0.690285 0.806154 0.243039
C351  C     C_R   0.700752 0.276040 0.845217 0.223504
C352  C     C_R   0.698909 0.287302 0.168466 0.260614
C353  C     C_R   0.222708 0.214773 0.229574 0.021500
C354  C     C_R   0.223757 0.221129 0.777895 0.022763
C355  C     C_R   0.223060 0.758807 0.802032 0.031982
C356  C     C_R   0.222905 0.764929 0.206014 0.015964
C357  C     C_R   0.221621 0.712528 0.731239 0.021432
C358  C     C_R   0.223988 0.720870 0.277658 0.024381
C359  C     C_R   0.223352 0.267553 0.292079 0.011291
C360  C     C_R   0.223179 0.266841 0.708031 0.014530
C361  C     C_R   0.721896 0.213674 0.729687 0.020466
C362  C     C_R   0.724037 0.221966 0.278241 0.022103
C363  C     C_R   0.723225 0.766949 0.293295 0.019375
C364  C     C_R   0.723116 0.769517 0.710677 0.009612
C365  C     C_R   0.722169 0.714195 0.230562 0.020821
C366  C     C_R   0.724892 0.723401 0.780868 0.021489
C367  C     C_R   0.723086 0.261049 0.799162 0.023864
C368  C     C_R   0.723175 0.268856 0.209943 0.011493
H1    H     H_    0.295495 0.305593 0.410660 0.160649
H2    H     H_    0.299573 0.293317 0.587364 0.157842
H3    H     H_    0.289735 0.649699 0.629859 0.164160
H4    H     H_    0.291212 0.677052 0.395570 0.153580
H5    H     H_    0.308847 0.793514 0.914103 0.157866
H6    H     H_    0.296882 0.781844 0.080856 0.157325
H7    H     H_    0.293748 0.148625 0.134430 0.161462
H8    H     H_    0.285326 0.176019 0.897902 0.153698
H9    H     H_    0.803799 0.293388 0.915757 0.159202
H10   H     H_    0.794691 0.291601 0.085276 0.157503
H11   H     H_    0.788741 0.648312 0.132023 0.166104
H12   H     H_    0.794691 0.681748 0.899261 0.156933
H13   H     H_    0.796283 0.803374 0.411978 0.159290
H14   H     H_    0.795915 0.798425 0.588743 0.157054
H15   H     H_    0.789437 0.151076 0.627909 0.164585
H16   H     H_    0.784593 0.177985 0.399299 0.153736
H17   H     H_    0.541528 0.321272 0.910151 0.198105
H18   H     H_    0.525733 0.324973 0.093438 0.180179
H19   H     H_    0.598130 0.720259 0.082711 0.187892
H20   H     H_    0.530681 0.678292 0.916266 0.173513
H21   H     H_    0.589022 0.795899 0.418852 0.189472
H22   H     H_    0.520787 0.825011 0.589567 0.168366
H23   H     H_    0.593769 0.213448 0.581502 0.192319
H24   H     H_    0.522746 0.176973 0.414289 0.169970
H25   H     H_    0.041424 0.321376 0.409882 0.198261
H26   H     H_    0.028748 0.324711 0.593222 0.182657
H27   H     H_    0.097411 0.718653 0.582518 0.189042
H28   H     H_    0.028798 0.678126 0.415949 0.173096
H29   H     H_    0.031206 0.824429 0.908651 0.191069
H30   H     H_    0.033286 0.824573 0.093420 0.186215
H31   H     H_    0.094792 0.215140 0.082614 0.187010
H32   H     H_    0.027552 0.177696 0.914538 0.173538
H33   H     H_    0.575694 0.473083 0.267770 0.126700
H34   H     H_    0.569554 0.473191 0.718779 0.124905
H35   H     H_    0.564150 0.532023 0.704264 0.138751
H36   H     H_    0.573056 0.532710 0.277735 0.136344
H37   H     H_    0.577854 0.972999 0.753977 0.126814
H38   H     H_    0.570223 0.973238 0.220122 0.125405
H39   H     H_    0.565146 0.032056 0.205458 0.139247
H40   H     H_    0.577057 0.032607 0.764494 0.136509
H41   H     H_    0.070965 0.473316 0.781664 0.126054
H42   H     H_    0.069360 0.473156 0.218117 0.125262
H43   H     H_    0.063866 0.532022 0.203718 0.138954
H44   H     H_    0.066404 0.532935 0.791156 0.136261
H45   H     H_    0.073551 0.973123 0.274881 0.126478
H46   H     H_    0.070979 0.973177 0.721457 0.125752
H47   H     H_    0.066200 0.032058 0.706864 0.139219
H48   H     H_    0.070056 0.032751 0.284571 0.136339
O1    O     O_3   0.500010 0.250000 0.250000 -0.467823
O2    O     O_3   0.500010 0.250000 0.750000 -0.465827
O3    O     O_3   0.500010 0.750000 0.750000 -0.467662
O4    O     O_3   0.500010 0.750000 0.250000 -0.467790
O5    O     O_3   0.000010 0.250000 0.750000 -0.467243
O6    O     O_3   0.000010 0.250000 0.250000 -0.466236
O7    O     O_3   0.000010 0.750000 0.250000 -0.467126
O8    O     O_3   0.000010 0.750000 0.750000 -0.466189
O9    O     O_R   0.469630 0.168010 0.219620 -0.652412
O10   O     O_R   0.469630 0.168010 0.780380 -0.642274
O11   O     O_R   0.469630 0.831990 0.780380 -0.640879
O12   O     O_R   0.469630 0.831990 0.219620 -0.652652
O13   O     O_R   0.469630 0.668010 0.719620 -0.651772
O14   O     O_R   0.469630 0.668010 0.280380 -0.642543
O15   O     O_R   0.469630 0.331990 0.280380 -0.642725
O16   O     O_R   0.469630 0.331990 0.719620 -0.652917
O17   O     O_R   0.969630 0.168010 0.719620 -0.650872
O18   O     O_R   0.969630 0.168010 0.280380 -0.642115
O19   O     O_R   0.969630 0.831990 0.280380 -0.642343
O20   O     O_R   0.969630 0.831990 0.719620 -0.653915
O21   O     O_R   0.969630 0.668010 0.219620 -0.651748
O22   O     O_R   0.969630 0.668010 0.780380 -0.639484
O23   O     O_R   0.969630 0.331990 0.780380 -0.640564
O24   O     O_R   0.969630 0.331990 0.219620 -0.652822
O25   O     O_R   0.530360 0.228500 0.365800 -0.640245
O26   O     O_R   0.530360 0.228500 0.634200 -0.654011
O27   O     O_R   0.530360 0.771500 0.634200 -0.648498
O28   O     O_R   0.530360 0.771500 0.365800 -0.658362
O29   O     O_R   0.530360 0.728500 0.865800 -0.643744
O30   O     O_R   0.530360 0.728500 0.134200 -0.650453
O31   O     O_R   0.530360 0.271500 0.134200 -0.653576
O32   O     O_R   0.530360 0.271500 0.865800 -0.670534
O33   O     O_R   0.030360 0.228500 0.865800 -0.642521
O34   O     O_R   0.030360 0.228500 0.134200 -0.654199
O35   O     O_R   0.030360 0.771500 0.134200 -0.660232
O36   O     O_R   0.030360 0.771500 0.865800 -0.672970
O37   O     O_R   0.030360 0.728500 0.365800 -0.642193
O38   O     O_R   0.030360 0.728500 0.634200 -0.651349
O39   O     O_R   0.030360 0.271500 0.634200 -0.657151
O40   O     O_R   0.030360 0.271500 0.365800 -0.662523
O41   O     O_R   0.615810 0.228490 0.280360 -0.633351
O42   O     O_R   0.615810 0.228490 0.719640 -0.646072
O43   O     O_R   0.615810 0.771510 0.719640 -0.640196
O44   O     O_R   0.615810 0.771510 0.280360 -0.646340
O45   O     O_R   0.615810 0.728490 0.780360 -0.638358
O46   O     O_R   0.615810 0.728490 0.219640 -0.646029
O47   O     O_R   0.615810 0.271510 0.219640 -0.641454
O48   O     O_R   0.615810 0.271510 0.780360 -0.648471
O49   O     O_R   0.115810 0.228490 0.780360 -0.633999
O50   O     O_R   0.115810 0.228490 0.219640 -0.648191
O51   O     O_R   0.115810 0.771510 0.219640 -0.642990
O52   O     O_R   0.115810 0.771510 0.780360 -0.650788
O53   O     O_R   0.115810 0.728490 0.280360 -0.635971
O54   O     O_R   0.115810 0.728490 0.719640 -0.645164
O55   O     O_R   0.115810 0.271510 0.719640 -0.643267
O56   O     O_R   0.115810 0.271510 0.280360 -0.641531
O57   O     O_R   0.384200 0.228500 0.219630 -0.649118
O58   O     O_R   0.384200 0.228500 0.780370 -0.639535
O59   O     O_R   0.384200 0.771500 0.780370 -0.643431
O60   O     O_R   0.384200 0.771500 0.219630 -0.642564
O61   O     O_R   0.384200 0.728500 0.719630 -0.651733
O62   O     O_R   0.384200 0.728500 0.280370 -0.634204
O63   O     O_R   0.384200 0.271500 0.280370 -0.648758
O64   O     O_R   0.384200 0.271500 0.719630 -0.638617
O65   O     O_R   0.884200 0.228500 0.719630 -0.652482
O66   O     O_R   0.884200 0.228500 0.280370 -0.639416
O67   O     O_R   0.884200 0.771500 0.280370 -0.646720
O68   O     O_R   0.884200 0.771500 0.719630 -0.642263
O69   O     O_R   0.884200 0.728500 0.219630 -0.653262
O70   O     O_R   0.884200 0.728500 0.780370 -0.633056
O71   O     O_R   0.884200 0.271500 0.780370 -0.644939
O72   O     O_R   0.884200 0.271500 0.219630 -0.642044
O73   O     O_R   0.469650 0.271490 0.365810 -0.660583
O74   O     O_R   0.469650 0.271490 0.634190 -0.645871
O75   O     O_R   0.469650 0.728510 0.634190 -0.652717
O76   O     O_R   0.469650 0.728510 0.365810 -0.658267
O77   O     O_R   0.469650 0.771490 0.865810 -0.658083
O78   O     O_R   0.469650 0.771490 0.134190 -0.649947
O79   O     O_R   0.469650 0.228510 0.134190 -0.652253
O80   O     O_R   0.469650 0.228510 0.865810 -0.661594
O81   O     O_R   0.969650 0.271490 0.865810 -0.659561
O82   O     O_R   0.969650 0.271490 0.134190 -0.647960
O83   O     O_R   0.969650 0.728510 0.134190 -0.650166
O84   O     O_R   0.969650 0.728510 0.865810 -0.663676
O85   O     O_R   0.969650 0.771490 0.365810 -0.659613
O86   O     O_R   0.969650 0.771490 0.634190 -0.646675
O87   O     O_R   0.969650 0.228510 0.634190 -0.652580
O88   O     O_R   0.969650 0.228510 0.365810 -0.661913
O89   O     O_R   0.530350 0.168010 0.280340 -0.659318
O90   O     O_R   0.530350 0.168010 0.719660 -0.654652
O91   O     O_R   0.530350 0.831990 0.719660 -0.653938
O92   O     O_R   0.530350 0.831990 0.280340 -0.642115
O93   O     O_R   0.530350 0.668010 0.780340 -0.657302
O94   O     O_R   0.530350 0.668010 0.219660 -0.654769
O95   O     O_R   0.530350 0.331990 0.219660 -0.654644
O96   O     O_R   0.530350 0.331990 0.780340 -0.647993
O97   O     O_R   0.030350 0.168010 0.780340 -0.660008
O98   O     O_R   0.030350 0.168010 0.219660 -0.653126
O99   O     O_R   0.030350 0.831990 0.219660 -0.652746
O100  O     O_R   0.030350 0.831990 0.780340 -0.646093
O101  O     O_R   0.030350 0.668010 0.280340 -0.658830
O102  O     O_R   0.030350 0.668010 0.719660 -0.656115
O103  O     O_R   0.030350 0.331990 0.719660 -0.653275
O104  O     O_R   0.030350 0.331990 0.280340 -0.652382
Zn1   Zn    Zn3+2 0.456640 0.280700 0.293380 0.937443
Zn2   Zn    Zn3+2 0.456640 0.280700 0.706620 0.943749
Zn3   Zn    Zn3+2 0.456640 0.719300 0.706620 0.931492
Zn4   Zn    Zn3+2 0.456640 0.719300 0.293380 0.947227
Zn5   Zn    Zn3+2 0.456640 0.780700 0.793380 0.942307
Zn6   Zn    Zn3+2 0.456640 0.780700 0.206620 0.941512
Zn7   Zn    Zn3+2 0.456640 0.219300 0.206620 0.932277
Zn8   Zn    Zn3+2 0.456640 0.219300 0.793380 0.941766
Zn9   Zn    Zn3+2 0.956640 0.280700 0.793380 0.941467
Zn10  Zn    Zn3+2 0.956640 0.280700 0.206620 0.939614
Zn11  Zn    Zn3+2 0.956640 0.719300 0.206620 0.930368
Zn12  Zn    Zn3+2 0.956640 0.719300 0.793380 0.946273
Zn13  Zn    Zn3+2 0.956640 0.780700 0.293380 0.939878
Zn14  Zn    Zn3+2 0.956640 0.780700 0.706620 0.941356
Zn15  Zn    Zn3+2 0.956640 0.219300 0.706620 0.931064
Zn16  Zn    Zn3+2 0.956640 0.219300 0.293380 0.942968
Zn17  Zn    Zn3+2 0.543380 0.219280 0.293370 0.948015
Zn18  Zn    Zn3+2 0.543380 0.219280 0.706630 0.939476
Zn19  Zn    Zn3+2 0.543380 0.780720 0.706630 0.943020
Zn20  Zn    Zn3+2 0.543380 0.780720 0.293370 0.938200
Zn21  Zn    Zn3+2 0.543380 0.719280 0.793370 0.944690
Zn22  Zn    Zn3+2 0.543380 0.719280 0.206630 0.937969
Zn23  Zn    Zn3+2 0.543380 0.280720 0.206630 0.941121
Zn24  Zn    Zn3+2 0.543380 0.280720 0.793370 0.928024
Zn25  Zn    Zn3+2 0.043380 0.219280 0.793370 0.946806
Zn26  Zn    Zn3+2 0.043380 0.219280 0.206630 0.938800
Zn27  Zn    Zn3+2 0.043380 0.780720 0.206630 0.938359
Zn28  Zn    Zn3+2 0.043380 0.780720 0.793370 0.925821
Zn29  Zn    Zn3+2 0.043380 0.719280 0.293370 0.945727
Zn30  Zn    Zn3+2 0.043380 0.719280 0.706630 0.939842
Zn31  Zn    Zn3+2 0.043380 0.280720 0.706630 0.939343
Zn32  Zn    Zn3+2 0.043380 0.280720 0.293370 0.932619
C369  C     C_3   0.428391 0.465584 0.324406 -0.878541
H49   H     H_    0.387400 0.469194 0.334038 0.233649
H50   H     H_    0.437289 0.435650 0.330352 0.247314
H51   H     H_    0.448814 0.482096 0.353342 0.230710
C370  C     C_3   0.413162 0.463697 0.693957 -0.886019
H52   H     H_    0.418624 0.433197 0.688266 0.243644
H53   H     H_    0.371365 0.468671 0.692441 0.235479
H54   H     H_    0.428641 0.477924 0.660563 0.232718
C371  C     C_3   0.403290 0.542234 0.709174 -0.891301
H55   H     H_    0.362951 0.532895 0.711687 0.232259
H56   H     H_    0.403010 0.573030 0.714561 0.243131
H57   H     H_    0.414888 0.537160 0.669439 0.237983
C372  C     C_3   0.414903 0.543641 0.309725 -0.882666
H58   H     H_    0.411486 0.574075 0.302790 0.247879
H59   H     H_    0.375803 0.533328 0.317789 0.233305
H60   H     H_    0.436455 0.541248 0.345433 0.236061
C373  C     C_3   0.443062 0.965740 0.836271 -0.876903
H61   H     H_    0.404491 0.969450 0.853245 0.233687
H62   H     H_    0.452849 0.935785 0.840508 0.247183
H63   H     H_    0.468394 0.982206 0.861025 0.230565
C374  C     C_3   0.414568 0.963727 0.191881 -0.887168
H64   H     H_    0.420016 0.933207 0.186407 0.243497
H65   H     H_    0.372884 0.968793 0.189388 0.236001
H66   H     H_    0.430868 0.977882 0.158866 0.233222
C375  C     C_3   0.404409 0.042263 0.206782 -0.892151
H67   H     H_    0.364046 0.032977 0.208452 0.232412
H68   H     H_    0.404093 0.073069 0.212070 0.243407
H69   H     H_    0.416808 0.037112 0.167357 0.238415
C376  C     C_3   0.426954 0.043789 0.824206 -0.882688
H70   H     H_    0.422310 0.074228 0.817995 0.247385
H71   H     H_    0.389894 0.033514 0.839125 0.233759
H72   H     H_    0.454499 0.041377 0.855537 0.235905
C377  C     C_3   0.915777 0.465612 0.810070 -0.878391
H73   H     H_    0.873674 0.469108 0.811938 0.233729
H74   H     H_    0.923533 0.435735 0.817794 0.247023
H75   H     H_    0.930498 0.482295 0.842163 0.230746
C378  C     C_3   0.912955 0.463715 0.194655 -0.886527
H76   H     H_    0.918557 0.433247 0.188810 0.244072
H77   H     H_    0.871158 0.468565 0.193565 0.235490
H78   H     H_    0.927973 0.478060 0.161197 0.232582
C379  C     C_3   0.903193 0.542260 0.209999 -0.892897
H79   H     H_    0.862948 0.532845 0.212777 0.232612
H80   H     H_    0.902856 0.573045 0.215491 0.243036
H81   H     H_    0.914516 0.537296 0.170208 0.238137
C380  C     C_3   0.904942 0.543544 0.792489 -0.881572
H82   H     H_    0.902714 0.573930 0.784715 0.247789
H83   H     H_    0.865048 0.533068 0.793203 0.232545
H84   H     H_    0.919529 0.541414 0.831641 0.236227
C381  C     C_3   0.921562 0.965615 0.317367 -0.878593
H85   H     H_    0.879837 0.969204 0.323114 0.233491
H86   H     H_    0.929869 0.935692 0.324163 0.247184
H87   H     H_    0.939209 0.982161 0.348075 0.230697
C382  C     C_3   0.915934 0.963682 0.690195 -0.886071
H88   H     H_    0.921924 0.933232 0.684578 0.244040
H89   H     H_    0.874221 0.968443 0.687048 0.235646
H90   H     H_    0.932507 0.978104 0.657553 0.232427
C383  C     C_3   0.905382 0.042220 0.705072 -0.891779
H91   H     H_    0.865073 0.032729 0.705768 0.232607
H92   H     H_    0.904687 0.073001 0.710610 0.243685
H93   H     H_    0.918729 0.037339 0.665907 0.238149
C384  C     C_3   0.909520 0.043646 0.301363 -0.881579
H94   H     H_    0.906761 0.074075 0.294097 0.247692
H95   H     H_    0.869814 0.033311 0.305714 0.232932
H96   H     H_    0.927636 0.041295 0.338971 0.236071
C385  C     C_3   0.598383 0.371101 0.062378 -0.945430
H97   H     H_    0.590043 0.368548 0.103812 0.238541
H98   H     H_    0.639910 0.366430 0.056987 0.244737
H99   H     H_    0.588613 0.399826 0.050649 0.246256
C386  C     C_3   0.606205 0.369019 0.949297 -0.950466
H100  H     H_    0.603989 0.364973 0.907175 0.238042
H101  H     H_    0.594340 0.398090 0.958150 0.247508
H102  H     H_    0.646590 0.365177 0.960884 0.245526
C387  C     C_3   0.611530 0.638483 0.943692 -0.947002
H103  H     H_    0.596298 0.636105 0.904114 0.236277
H104  H     H_    0.653105 0.644223 0.940589 0.245079
H105  H     H_    0.605602 0.611412 0.962986 0.242475
C388  C     C_3   0.644106 0.659506 0.051146 -0.953982
H106  H     H_    0.627984 0.650845 0.088577 0.239530
H107  H     H_    0.657268 0.633823 0.031118 0.250610
H108  H     H_    0.677549 0.678104 0.057777 0.246634
C389  C     C_3   0.599202 0.868757 0.568379 -0.946870
H109  H     H_    0.582811 0.868667 0.607545 0.239795
H110  H     H_    0.640985 0.864735 0.572570 0.245605
H111  H     H_    0.591768 0.896630 0.551896 0.243302
C390  C     C_3   0.635764 0.855116 0.462338 -0.954119
H112  H     H_    0.640613 0.849864 0.420844 0.235075
H113  H     H_    0.625762 0.885078 0.467111 0.252220
H114  H     H_    0.672714 0.850224 0.481931 0.238964
C391  C     C_3   0.600388 0.133470 0.440446 -0.945771
H115  H     H_    0.586834 0.133584 0.400164 0.238904
H116  H     H_    0.642506 0.137009 0.439392 0.245584
H117  H     H_    0.590885 0.106089 0.457269 0.241221
C392  C     C_3   0.634417 0.151093 0.548273 -0.962809
H118  H     H_    0.621244 0.145801 0.587979 0.238785
H119  H     H_    0.640880 0.123447 0.530035 0.253227
H120  H     H_    0.670987 0.166739 0.549352 0.244078
C393  C     C_3   0.101354 0.370396 0.561243 -0.948634
H121  H     H_    0.093710 0.367842 0.602805 0.239399
H122  H     H_    0.142774 0.365672 0.555129 0.245279
H123  H     H_    0.091503 0.399172 0.549740 0.246942
C394  C     C_3   0.107578 0.368424 0.448084 -0.944273
H124  H     H_    0.104979 0.364224 0.406020 0.233929
H125  H     H_    0.095892 0.397526 0.456922 0.246584
H126  H     H_    0.148060 0.364529 0.459248 0.243368
C395  C     C_3   0.109198 0.637592 0.442709 -0.945461
H127  H     H_    0.095630 0.636793 0.402455 0.237410
H128  H     H_    0.151084 0.642421 0.441597 0.247002
H129  H     H_    0.101332 0.610148 0.460152 0.241252
C396  C     C_3   0.140844 0.656651 0.550948 -0.959732
H130  H     H_    0.126308 0.651049 0.590039 0.239243
H131  H     H_    0.148996 0.629209 0.532995 0.251909
H132  H     H_    0.176725 0.673040 0.553509 0.247147
C397  C     C_3   0.104428 0.870052 0.058123 -0.944448
H133  H     H_    0.099125 0.867162 0.100154 0.237768
H134  H     H_    0.145507 0.864999 0.049511 0.243732
H135  H     H_    0.094401 0.899102 0.047861 0.247487
C398  C     C_3   0.101684 0.870699 0.944033 -0.948356
H136  H     H_    0.097486 0.866258 0.901985 0.243528
H137  H     H_    0.088874 0.899432 0.953495 0.246266
H138  H     H_    0.142890 0.867954 0.953531 0.243343
C399  C     C_3   0.106103 0.135487 0.942311 -0.936519
H139  H     H_    0.093508 0.135202 0.901715 0.236278
H140  H     H_    0.148144 0.139542 0.942414 0.245216
H141  H     H_    0.096974 0.108089 0.959273 0.241623
C400  C     C_3   0.134028 0.151085 0.050728 -0.948565
H142  H     H_    0.132716 0.157503 0.092285 0.234677
H143  H     H_    0.123098 0.121276 0.046273 0.247695
H144  H     H_    0.173247 0.155335 0.036206 0.246376
H145  H     H_    0.401522 0.219140 0.083614 0.188162
H146  H     H_    0.471192 0.179856 0.917501 0.180554
H147  H     H_    0.410363 0.791961 0.918085 0.188036
H148  H     H_    0.476077 0.824553 0.088713 0.172618
H149  H     H_    0.401797 0.721465 0.581664 0.184698
H150  H     H_    0.471513 0.678430 0.416945 0.176016
H151  H     H_    0.410542 0.292802 0.417795 0.189182
H152  H     H_    0.477820 0.324041 0.588211 0.171845
H153  H     H_    0.901372 0.220256 0.583136 0.186366
H154  H     H_    0.971594 0.179835 0.417722 0.179513
H155  H     H_    0.911062 0.792926 0.418133 0.189560
H156  H     H_    0.977217 0.824632 0.588923 0.171211
H157  H     H_    0.899062 0.724568 0.084656 0.183265
H158  H     H_    0.964889 0.680952 0.918856 0.184444
H159  H     H_    0.910771 0.292640 0.918099 0.188332
H160  H     H_    0.977660 0.324238 0.088561 0.171444
C401  C     C_3   0.359096 0.156885 0.051718 -0.964818
H161  H     H_    0.374271 0.149457 0.089987 0.241633
H162  H     H_    0.324347 0.174128 0.056413 0.242470
H163  H     H_    0.348358 0.130440 0.032204 0.252991
C402  C     C_3   0.395656 0.135487 0.945911 -0.948549
H164  H     H_    0.410606 0.133751 0.906228 0.243320
H165  H     H_    0.405415 0.109288 0.965793 0.247106
H166  H     H_    0.353545 0.138063 0.943001 0.241232
C403  C     C_3   0.368503 0.854092 0.954560 -0.956798
H167  H     H_    0.365017 0.847321 0.913460 0.236980
H168  H     H_    0.330713 0.850668 0.972897 0.241564
H169  H     H_    0.380448 0.883733 0.957384 0.254899
C404  C     C_3   0.399156 0.868516 0.061670 -0.948979
H170  H     H_    0.413519 0.869207 0.101643 0.240345
H171  H     H_    0.407038 0.895948 0.044200 0.247324
H172  H     H_    0.357219 0.864090 0.063390 0.246197
C405  C     C_3   0.353760 0.661864 0.548859 -0.966479
H173  H     H_    0.368866 0.650373 0.585071 0.241795
H174  H     H_    0.323136 0.682207 0.557754 0.242675
H175  H     H_    0.336607 0.638525 0.526800 0.252580
C406  C     C_3   0.391930 0.637147 0.444794 -0.945007
H176  H     H_    0.408306 0.633880 0.405891 0.244315
H177  H     H_    0.398431 0.611080 0.466170 0.247483
H178  H     H_    0.350332 0.641431 0.440062 0.236738
C407  C     C_3   0.370860 0.355528 0.454324 -0.956563
H179  H     H_    0.368641 0.349679 0.412790 0.236334
H180  H     H_    0.332580 0.351736 0.471417 0.238907
H181  H     H_    0.382612 0.385146 0.458710 0.254357
C408  C     C_3   0.401962 0.369132 0.561751 -0.946355
H182  H     H_    0.416209 0.369290 0.601774 0.238636
H183  H     H_    0.410905 0.396536 0.544693 0.245720
H184  H     H_    0.359883 0.365456 0.563312 0.246316
C409  C     C_3   0.855780 0.159745 0.549673 -0.970026
H185  H     H_    0.870872 0.149437 0.586632 0.242094
H186  H     H_    0.823678 0.179163 0.556870 0.242396
H187  H     H_    0.840856 0.135342 0.528066 0.253652
C410  C     C_3   0.894397 0.136561 0.445367 -0.945740
H188  H     H_    0.911321 0.133546 0.406633 0.243212
H189  H     H_    0.901480 0.110493 0.466678 0.247266
H190  H     H_    0.852701 0.140345 0.440109 0.239618
C411  C     C_3   0.867881 0.854082 0.456098 -0.956191
H191  H     H_    0.861721 0.846126 0.415614 0.234530
H192  H     H_    0.831126 0.851824 0.476791 0.241514
H193  H     H_    0.880645 0.883603 0.456495 0.253416
C412  C     C_3   0.899509 0.868311 0.562929 -0.946292
H194  H     H_    0.915276 0.869616 0.602349 0.238370
H195  H     H_    0.905444 0.895826 0.544954 0.247790
H196  H     H_    0.857888 0.862890 0.566251 0.243557
C413  C     C_3   0.851221 0.664326 0.053570 -0.962068
H197  H     H_    0.868175 0.652534 0.088898 0.241480
H198  H     H_    0.820937 0.684663 0.064107 0.243808
H199  H     H_    0.833133 0.641106 0.031865 0.251375
C414  C     C_3   0.888128 0.638650 0.949535 -0.945116
H200  H     H_    0.903255 0.635370 0.910065 0.243198
H201  H     H_    0.897134 0.613096 0.971315 0.248398
H202  H     H_    0.846124 0.641412 0.946123 0.235774
C415  C     C_3   0.868621 0.354192 0.955940 -0.955802
H203  H     H_    0.864358 0.347457 0.914897 0.236284
H204  H     H_    0.831122 0.350804 0.974849 0.241405
H205  H     H_    0.880662 0.383877 0.958580 0.253717
C416  C     C_3   0.899809 0.367869 0.062998 -0.948033
H206  H     H_    0.914833 0.368537 0.102735 0.239750
H207  H     H_    0.906671 0.395516 0.045742 0.246970
H208  H     H_    0.858021 0.362864 0.065400 0.245073
C417  C     C_3   0.346102 0.162276 0.217598 -0.814821
H209  H     H_    0.377333 0.163975 0.188947 0.269893
H210  H     H_    0.359384 0.170363 0.256414 0.229034
H211  H     H_    0.335022 0.132402 0.219448 0.204046
C418  C     C_3   0.339370 0.232603 0.868793 -0.805214
H212  H     H_    0.371262 0.212056 0.867900 0.279780
H213  H     H_    0.352079 0.260346 0.855336 0.221131
H214  H     H_    0.329001 0.236075 0.909651 0.210626
C419  C     C_3   0.323087 0.823336 0.818193 -0.851083
H215  H     H_    0.362833 0.826192 0.832068 0.259840
H216  H     H_    0.322389 0.827317 0.776087 0.233254
H217  H     H_    0.299873 0.845982 0.835778 0.220201
C420  C     C_3   0.330321 0.817974 0.165866 -0.808002
H218  H     H_    0.308331 0.840311 0.146561 0.206963
H219  H     H_    0.336425 0.827814 0.205801 0.239674
H220  H     H_    0.367239 0.814684 0.145602 0.266894
C421  C     C_3   0.346282 0.662838 0.709924 -0.801323
H221  H     H_    0.377105 0.667215 0.681347 0.270085
H222  H     H_    0.359377 0.668673 0.749514 0.232871
H223  H     H_    0.337062 0.632598 0.708231 0.200714
C422  C     C_3   0.336631 0.738799 0.368151 -0.823729
H224  H     H_    0.370472 0.720292 0.371756 0.280261
H225  H     H_    0.347658 0.766043 0.351781 0.218992
H226  H     H_    0.322719 0.744298 0.407543 0.214915
C423  C     C_3   0.327951 0.325775 0.315279 -0.828378
H227  H     H_    0.367079 0.326629 0.331279 0.259687
H228  H     H_    0.329534 0.328395 0.273011 0.233772
H229  H     H_    0.307236 0.350748 0.329957 0.214308
C424  C     C_3   0.329565 0.324250 0.677834 -0.817156
H230  H     H_    0.306399 0.347745 0.662887 0.208812
H231  H     H_    0.336353 0.330287 0.719014 0.234483
H232  H     H_    0.366178 0.323531 0.656626 0.263852
C425  C     C_3   0.846216 0.163170 0.707989 -0.801204
H233  H     H_    0.877033 0.167938 0.679522 0.269172
H234  H     H_    0.859418 0.168366 0.747683 0.233688
H235  H     H_    0.836905 0.132967 0.705396 0.200558
C426  C     C_3   0.839466 0.233942 0.368959 -0.807258
H236  H     H_    0.871187 0.213259 0.368531 0.280400
H237  H     H_    0.852419 0.261442 0.354841 0.220857
H238  H     H_    0.829058 0.237960 0.409722 0.211004
C427  C     C_3   0.826558 0.825515 0.315506 -0.829044
H239  H     H_    0.865913 0.827162 0.330918 0.259501
H240  H     H_    0.827357 0.828186 0.273169 0.233004
H241  H     H_    0.805040 0.850094 0.330534 0.215251
C428  C     C_3   0.832481 0.825539 0.678474 -0.813759
H242  H     H_    0.811957 0.850144 0.663011 0.206726
H243  H     H_    0.839511 0.831542 0.719599 0.235152
H244  H     H_    0.868999 0.822765 0.657381 0.267919
C429  C     C_3   0.846871 0.662937 0.209973 -0.796546
H245  H     H_    0.877233 0.667658 0.180813 0.269506
H246  H     H_    0.860459 0.668690 0.249515 0.232084
H247  H     H_    0.838219 0.632510 0.208096 0.198793
C430  C     C_3   0.838725 0.743460 0.869315 -0.836858
H248  H     H_    0.872395 0.724936 0.873637 0.280135
H249  H     H_    0.849952 0.770046 0.851215 0.215316
H250  H     H_    0.825150 0.750229 0.908496 0.217243
C431  C     C_3   0.824240 0.322427 0.820808 -0.842390
H251  H     H_    0.863939 0.324530 0.835052 0.258533
H252  H     H_    0.823933 0.327064 0.778845 0.234471
H253  H     H_    0.801523 0.345262 0.838652 0.218551
C432  C     C_3   0.831763 0.322081 0.172673 -0.808258
H254  H     H_    0.811071 0.345755 0.154898 0.206304
H255  H     H_    0.838012 0.330081 0.213310 0.236654
H256  H     H_    0.868628 0.318736 0.152339 0.268419
H257  H     H_    0.700007 0.149751 0.633262 0.158785
H258  H     H_    0.708134 0.150644 0.363852 0.150525
H259  H     H_    0.704664 0.804071 0.411836 0.158775
H260  H     H_    0.704140 0.794842 0.587263 0.158892
H261  H     H_    0.699687 0.646075 0.139904 0.159913
H262  H     H_    0.718841 0.651363 0.867458 0.150575
H263  H     H_    0.714204 0.280879 0.926513 0.156027
H264  H     H_    0.702900 0.294020 0.086702 0.157186
H265  H     H_    0.204072 0.147933 0.136115 0.157029
H266  H     H_    0.208252 0.149417 0.863143 0.150628
H267  H     H_    0.223584 0.771844 0.931971 0.152045
H268  H     H_    0.205095 0.779830 0.079290 0.156788
H269  H     H_    0.200558 0.646192 0.637566 0.159636
H270  H     H_    0.215286 0.647695 0.361835 0.151028
H271  H     H_    0.203733 0.307738 0.409046 0.157464
H272  H     H_    0.208251 0.286658 0.582160 0.158840
C433  C     C_3   0.154224 0.161977 0.221297 -0.819086
H273  H     H_    0.141550 0.171179 0.259835 0.227950
H274  H     H_    0.122361 0.162368 0.193243 0.270314
H275  H     H_    0.166254 0.132426 0.224743 0.205329
C434  C     C_3   0.161719 0.163527 0.777058 -0.832729
H276  H     H_    0.128200 0.162499 0.803176 0.270269
H277  H     H_    0.150114 0.172649 0.738465 0.226295
H278  H     H_    0.175731 0.134431 0.773058 0.205756
C435  C     C_3   0.162935 0.799575 0.859486 -0.782558
H279  H     H_    0.160721 0.817797 0.825144 0.250206
H280  H     H_    0.125620 0.786983 0.870471 0.272691
H281  H     H_    0.173139 0.819599 0.891125 0.205688
C436  C     C_3   0.171350 0.816575 0.164525 -0.807379
H282  H     H_    0.132699 0.813797 0.147646 0.264886
H283  H     H_    0.168822 0.827011 0.204649 0.238742
H284  H     H_    0.192304 0.838278 0.142911 0.210054
C437  C     C_3   0.151763 0.660686 0.722657 -0.823926
H285  H     H_    0.138531 0.670302 0.760802 0.225294
H286  H     H_    0.120513 0.661442 0.693963 0.271941
H287  H     H_    0.162971 0.630998 0.726525 0.204870
C438  C     C_3   0.161134 0.663506 0.281291 -0.822891
H288  H     H_    0.128971 0.664185 0.309176 0.269622
H289  H     H_    0.148133 0.671660 0.242735 0.228574
H290  H     H_    0.173315 0.633911 0.278340 0.202503
C439  C     C_3   0.172914 0.326751 0.313128 -0.821065
H291  H     H_    0.169216 0.328139 0.270867 0.231367
H292  H     H_    0.134839 0.328731 0.331339 0.258247
H293  H     H_    0.195488 0.351590 0.325283 0.212065
C440  C     C_3   0.171085 0.319279 0.668979 -0.804623
H294  H     H_    0.132812 0.316591 0.651224 0.265917
H295  H     H_    0.167699 0.328257 0.709645 0.237678
H296  H     H_    0.191734 0.342082 0.649194 0.208687
C441  C     C_3   0.652762 0.161357 0.720153 -0.818751
H297  H     H_    0.639943 0.170129 0.758806 0.226709
H298  H     H_    0.620956 0.162130 0.692050 0.270679
H299  H     H_    0.664804 0.131750 0.722844 0.204726
C442  C     C_3   0.663101 0.163915 0.276336 -0.835572
H300  H     H_    0.629174 0.162279 0.301824 0.270523
H301  H     H_    0.651893 0.173173 0.237670 0.226196
H302  H     H_    0.677970 0.135062 0.272197 0.206675
C443  C     C_3   0.675435 0.826585 0.315248 -0.830990
H303  H     H_    0.675217 0.829510 0.272964 0.231426
H304  H     H_    0.636049 0.829045 0.330435 0.257326
H305  H     H_    0.697842 0.850746 0.330719 0.214404
C444  C     C_3   0.671074 0.824197 0.678155 -0.809503
H306  H     H_    0.633038 0.823351 0.659605 0.267442
H307  H     H_    0.667015 0.830375 0.719676 0.234913
H308  H     H_    0.692856 0.847841 0.661631 0.208260
C445  C     C_3   0.653066 0.661528 0.225974 -0.825287
H309  H     H_    0.640316 0.672095 0.263850 0.225174
H310  H     H_    0.621279 0.660894 0.197822 0.272615
H311  H     H_    0.665351 0.632195 0.231201 0.205316
C446  C     C_3   0.662953 0.665239 0.787967 -0.815261
H312  H     H_    0.630660 0.667169 0.815659 0.269645
H313  H     H_    0.650362 0.671372 0.748572 0.231104
H314  H     H_    0.674938 0.635560 0.787944 0.200430
C447  C     C_3   0.668931 0.311344 0.844302 -0.801450
H315  H     H_    0.667591 0.323415 0.805397 0.243361
H316  H     H_    0.630141 0.305594 0.859162 0.266604
H317  H     H_    0.685664 0.333667 0.869059 0.208644
C448  C     C_3   0.671711 0.323989 0.177942 -0.813106
H318  H     H_    0.633715 0.323486 0.159312 0.263307
H319  H     H_    0.667592 0.329985 0.219532 0.234768
H320  H     H_    0.694011 0.347441 0.161686 0.210111
C449  C     C_3   0.904387 0.034810 0.209169 -0.873423
H321  H     H_    0.911763 0.018341 0.174424 0.234350
H322  H     H_    0.862926 0.031325 0.216701 0.232762
H323  H     H_    0.910330 0.064730 0.200223 0.243171
C450  C     C_3   0.908620 0.036590 0.797340 -0.891566
H324  H     H_    0.920215 0.022183 0.832078 0.233334
H325  H     H_    0.914087 0.067031 0.803762 0.238619
H326  H     H_    0.866849 0.031950 0.794265 0.236069
C451  C     C_3   0.899366 0.958114 0.780971 -0.892367
H327  H     H_    0.907020 0.962968 0.821688 0.237180
H328  H     H_    0.859727 0.967760 0.774308 0.234006
H329  H     H_    0.899091 0.927336 0.775321 0.240740
C452  C     C_3   0.897672 0.956775 0.228412 -0.886670
H330  H     H_    0.902631 0.959356 0.187105 0.231663
H331  H     H_    0.897416 0.926315 0.235896 0.243332
H332  H     H_    0.858643 0.967101 0.237096 0.232484
C453  C     C_3   0.908444 0.534425 0.700282 -0.875056
H333  H     H_    0.918227 0.517329 0.666751 0.232277
H334  H     H_    0.866398 0.531476 0.704190 0.232920
H335  H     H_    0.915896 0.564135 0.691190 0.244141
C454  C     C_3   0.911005 0.536659 0.301997 -0.892321
H336  H     H_    0.924448 0.522347 0.336149 0.233669
H337  H     H_    0.916641 0.567123 0.308023 0.238257
H338  H     H_    0.869158 0.531935 0.301087 0.236178
C455  C     C_3   0.900928 0.458191 0.286165 -0.892317
H339  H     H_    0.910513 0.463151 0.326450 0.237374
H340  H     H_    0.860986 0.467789 0.281413 0.233833
H341  H     H_    0.900458 0.427406 0.280647 0.240451
C456  C     C_3   0.900018 0.456418 0.719381 -0.887810
H342  H     H_    0.909171 0.458328 0.678699 0.232317
H343  H     H_    0.898651 0.426069 0.727514 0.242684
H344  H     H_    0.860447 0.467036 0.723974 0.233333
C457  C     C_3   0.397282 0.035007 0.736737 -0.871695
H345  H     H_    0.395149 0.018593 0.701186 0.233985
H346  H     H_    0.359371 0.031503 0.755165 0.232720
H347  H     H_    0.400510 0.064943 0.726634 0.244026
C458  C     C_3   0.409368 0.036745 0.298991 -0.892295
H348  H     H_    0.421701 0.022452 0.333563 0.233424
H349  H     H_    0.414858 0.067212 0.305156 0.238693
H350  H     H_    0.367563 0.032035 0.296777 0.235929
C459  C     C_3   0.399751 0.958254 0.282962 -0.891132
H351  H     H_    0.408058 0.963264 0.323519 0.237194
H352  H     H_    0.359978 0.967827 0.276922 0.233859
H353  H     H_    0.399472 0.927459 0.277512 0.240790
C460  C     C_3   0.395962 0.957000 0.757154 -0.883161
H354  H     H_    0.389399 0.959693 0.716064 0.230455
H355  H     H_    0.397789 0.926519 0.764265 0.245863
H356  H     H_    0.360790 0.967337 0.776320 0.232255
C461  C     C_3   0.401138 0.534848 0.218449 -0.873555
H357  H     H_    0.405318 0.518441 0.183118 0.234817
H358  H     H_    0.360593 0.531301 0.229830 0.232771
H359  H     H_    0.406121 0.564787 0.209103 0.243389
C462  C     C_3   0.410309 0.536675 0.801343 -0.891150
H360  H     H_    0.423465 0.522382 0.835661 0.233270
H361  H     H_    0.415904 0.567143 0.807401 0.238260
H362  H     H_    0.368427 0.531951 0.800078 0.235838
C463  C     C_3   0.400351 0.458197 0.785452 -0.891101
H363  H     H_    0.409573 0.463191 0.825859 0.237007
H364  H     H_    0.360403 0.467773 0.780321 0.233525
H365  H     H_    0.399946 0.427406 0.779969 0.240319
C464  C     C_3   0.396363 0.456806 0.238079 -0.887193
H366  H     H_    0.397529 0.459405 0.196507 0.231770
H367  H     H_    0.396783 0.426343 0.245530 0.244133
H368  H     H_    0.358319 0.467154 0.250343 0.232446
H369  H     H_    0.551749 0.468176 0.190131 0.138138
H370  H     H_    0.560742 0.467744 0.801013 0.140245
H371  H     H_    0.567816 0.526546 0.786819 0.125185
H372  H     H_    0.556107 0.528169 0.196034 0.126165
H373  H     H_    0.540510 0.968157 0.681826 0.138174
H374  H     H_    0.559619 0.967804 0.302061 0.140822
H375  H     H_    0.567010 0.026609 0.287994 0.125754
H376  H     H_    0.545923 0.028129 0.687007 0.126546
H377  H     H_    0.061717 0.468058 0.700731 0.138029
H378  H     H_    0.061275 0.467747 0.300330 0.140409
H379  H     H_    0.068210 0.526552 0.286137 0.125411
H380  H     H_    0.065323 0.528035 0.707888 0.125617
H381  H     H_    0.056976 0.968143 0.195267 0.137949
H382  H     H_    0.058853 0.967806 0.803151 0.140773
H383  H     H_    0.066421 0.026641 0.789385 0.125805
H384  H     H_    0.060945 0.028134 0.201648 0.126142
C465  C     C_3   0.486765 0.459524 0.147888 -0.864200
H385  H     H_    0.448828 0.470486 0.138542 0.237482
H386  H     H_    0.511028 0.465202 0.113943 0.237539
H387  H     H_    0.484780 0.428746 0.151215 0.242834
C466  C     C_3   0.502340 0.464762 0.854139 -0.866222
H388  H     H_    0.473363 0.482850 0.872190 0.246546
H389  H     H_    0.487552 0.435791 0.851234 0.245703
H390  H     H_    0.534776 0.464112 0.881559 0.230315
C467  C     C_3   0.525763 0.545783 0.847629 -0.866237
H391  H     H_    0.487576 0.551502 0.863026 0.248960
H392  H     H_    0.548284 0.531655 0.877713 0.243702
H393  H     H_    0.544392 0.573283 0.841688 0.234335
C468  C     C_3   0.496960 0.541513 0.147077 -0.849278
H394  H     H_    0.461520 0.530792 0.129695 0.244488
H395  H     H_    0.492069 0.571887 0.153079 0.243432
H396  H     H_    0.526599 0.537884 0.117115 0.228117
C469  C     C_3   0.469065 0.959683 0.651857 -0.865333
H397  H     H_    0.429854 0.970343 0.649965 0.237851
H398  H     H_    0.486490 0.965880 0.614053 0.237957
H399  H     H_    0.468454 0.928860 0.654937 0.240938
C470  C     C_3   0.500099 0.964861 0.353811 -0.865069
H400  H     H_    0.470708 0.982934 0.371116 0.246346
H401  H     H_    0.485461 0.935875 0.350630 0.246701
H402  H     H_    0.531865 0.964317 0.381943 0.230921
C471  C     C_3   0.523678 0.045837 0.347796 -0.868432
H403  H     H_    0.485214 0.051290 0.362551 0.249533
H404  H     H_    0.545842 0.031847 0.378208 0.243903
H405  H     H_    0.542059 0.073452 0.342162 0.234864
C472  C     C_3   0.479056 0.041553 0.649310 -0.847607
H406  H     H_    0.440991 0.030971 0.638651 0.244454
H407  H     H_    0.475603 0.072000 0.655928 0.242267
H408  H     H_    0.502803 0.037675 0.614432 0.228116
C473  C     C_3   0.005201 0.459919 0.647162 -0.864123
H409  H     H_    0.969925 0.471555 0.631150 0.239850
H410  H     H_    0.035401 0.465450 0.618299 0.235520
H411  H     H_    0.002059 0.429217 0.649818 0.244954
C474  C     C_3   0.003404 0.464745 0.353908 -0.868243
H412  H     H_    0.974606 0.482826 0.372197 0.247142
H413  H     H_    0.988628 0.435773 0.351123 0.245842
H414  H     H_    0.036047 0.464099 0.381011 0.230517
C475  C     C_3   0.026689 0.545794 0.347221 -0.867916
H415  H     H_    0.988660 0.551596 0.362837 0.249458
H416  H     H_    0.049336 0.531644 0.377137 0.244121
H417  H     H_    0.045336 0.573262 0.341128 0.234601
C476  C     C_3   0.017067 0.541593 0.648327 -0.850388
H418  H     H_    0.982348 0.533704 0.626812 0.246756
H419  H     H_    0.017745 0.572291 0.653050 0.244451
H420  H     H_    0.049690 0.533980 0.622917 0.229286
C477  C     C_3   0.996101 0.959592 0.147119 -0.862951
H421  H     H_    0.959210 0.970628 0.134334 0.237682
H422  H     H_    0.023399 0.965275 0.115558 0.236925
H423  H     H_    0.993761 0.928816 0.150236 0.243728
C478  C     C_3   0.998432 0.964735 0.853799 -0.868340
H424  H     H_    0.968649 0.982725 0.870572 0.246880
H425  H     H_    0.983972 0.935716 0.850317 0.245359
H426  H     H_    0.029688 0.964235 0.882512 0.230840
C479  C     C_3   0.021878 0.045750 0.848330 -0.868213
H427  H     H_    0.983142 0.050883 0.862565 0.249320
H428  H     H_    0.043791 0.031868 0.879022 0.243617
H429  H     H_    0.039981 0.073498 0.843014 0.234936
C480  C     C_3   0.006828 0.041482 0.147186 -0.849042
H430  H     H_    0.972727 0.031172 0.126851 0.244618
H431  H     H_    0.002366 0.071970 0.152490 0.244211
H432  H     H_    0.038859 0.037277 0.119953 0.227183
C481  C     C_3   0.550097 0.457565 0.338230 -0.860116
H433  H     H_    0.519563 0.458079 0.366946 0.248708
H434  H     H_    0.559172 0.427852 0.330064 0.234254
H435  H     H_    0.584522 0.469736 0.356795 0.237522
C482  C     C_3   0.530908 0.454067 0.655411 -0.866205
H436  H     H_    0.554584 0.468326 0.626363 0.244414
H437  H     H_    0.549589 0.426776 0.662425 0.228461
H438  H     H_    0.493570 0.447817 0.638209 0.250738
C483  C     C_3   0.509197 0.535252 0.647444 -0.867515
H439  H     H_    0.481224 0.517257 0.627482 0.247562
H440  H     H_    0.494610 0.564271 0.649392 0.248088
H441  H     H_    0.543301 0.535796 0.622222 0.229701
C484  C     C_3   0.533628 0.538831 0.346062 -0.866454
H442  H     H_    0.521093 0.568359 0.346357 0.243736
H443  H     H_    0.509474 0.522767 0.372408 0.245618
H444  H     H_    0.572571 0.538463 0.362886 0.231534
C485  C     C_3   0.565271 0.957401 0.827904 -0.860920
H445  H     H_    0.540364 0.957902 0.861701 0.248420
H446  H     H_    0.572759 0.927696 0.818123 0.233975
H447  H     H_    0.602467 0.969515 0.839998 0.237494
C486  C     C_3   0.533005 0.954059 0.156005 -0.868657
H448  H     H_    0.556970 0.968418 0.127365 0.245253
H449  H     H_    0.551827 0.926886 0.163398 0.228148
H450  H     H_    0.496063 0.947542 0.138238 0.251182
C487  C     C_3   0.511488 0.035280 0.147513 -0.868844
H451  H     H_    0.483993 0.017269 0.126968 0.248038
H452  H     H_    0.496864 0.064287 0.149151 0.248487
H453  H     H_    0.546098 0.035839 0.123077 0.230009
C488  C     C_3   0.550331 0.038693 0.838848 -0.865609
H454  H     H_    0.538088 0.068248 0.841432 0.242914
H455  H     H_    0.531187 0.022663 0.869087 0.245159
H456  H     H_    0.591639 0.038214 0.848494 0.231491
C489  C     C_3   0.032789 0.457687 0.846185 -0.857726
H457  H     H_    0.997446 0.458126 0.868714 0.248640
H458  H     H_    0.043258 0.428002 0.839843 0.234890
H459  H     H_    0.063189 0.469945 0.870845 0.237144
C490  C     C_3   0.030214 0.454139 0.155120 -0.867355
H460  H     H_    0.054408 0.468153 0.126326 0.244079
H461  H     H_    0.048074 0.426559 0.162064 0.228957
H462  H     H_    0.992849 0.448570 0.137658 0.251103
C491  C     C_3   0.008521 0.535276 0.147403 -0.868753
H463  H     H_    0.980326 0.517339 0.127729 0.247699
H464  H     H_    0.994074 0.564322 0.149470 0.248136
H465  H     H_    0.042367 0.535725 0.121907 0.230150
C492  C     C_3   0.014835 0.538960 0.850758 -0.865550
H466  H     H_    0.002517 0.568471 0.848618 0.244898
H467  H     H_    0.986141 0.522890 0.872100 0.245010
H468  H     H_    0.049937 0.538615 0.874708 0.231528
C493  C     C_3   0.041427 0.957603 0.342634 -0.858429
H469  H     H_    0.008350 0.958159 0.368378 0.248463
H470  H     H_    0.051123 0.927878 0.335379 0.234600
H471  H     H_    0.074032 0.969752 0.364339 0.237359
C494  C     C_3   0.034978 0.954199 0.656578 -0.867016
H472  H     H_    0.060939 0.968098 0.629257 0.243932
H473  H     H_    0.052041 0.926488 0.664426 0.229567
H474  H     H_    0.998581 0.948951 0.636993 0.250851
C495  C     C_3   0.013745 0.035307 0.647830 -0.867872
H475  H     H_    0.986508 0.017396 0.626781 0.247587
H476  H     H_    0.999287 0.064363 0.649173 0.248076
H477  H     H_    0.048818 0.035711 0.624060 0.230418
C496  C     C_3   0.024361 0.038876 0.348853 -0.864997
H478  H     H_    0.011881 0.068402 0.347944 0.244226
H479  H     H_    0.997810 0.022820 0.372821 0.245232
H480  H     H_    0.061568 0.038518 0.369301 0.231611

loop_
_geom_bond_atom_site_label_1
_geom_bond_atom_site_label_2
_ccdc_geom_bond_type
C39   C276  S    
O7    Zn29  S    
O100  Zn28  S    
C75   C107  S    
C398  H136  S    
C249  H25   S    
C287  O67   A    
C429  H246  S    
C369  H49   S    
C466  H388  S    
C281  O57   A    
C332  H260  S    
O31   Zn23  S    
C369  H50   S    
C234  C250  A    
O3    Zn21  S    
C439  H291  S    
C451  H328  S    
C197  C213  A    
C402  H164  S    
C36   C356  A    
C319  C335  A    
C408  H182  S    
C409  H187  S    
C37   C361  A    
C352  C368  A    
C472  H408  S    
C175  O39   A    
C384  H94   S    
C185  C409  S    
C412  H196  S    
C238  C254  A    
C29   C301  A    
C163  O27   A    
C12   O20   A    
C379  H80   S    
C119  H42   S    
C53   C460  S    
C300  C428  S    
C450  H325  S    
C270  C397  S    
C474  H412  S    
O1    Zn17  S    
C370  H54   S    
C282  O58   A    
C52   C461  S    
C25   C45   A    
C38   C368  A    
C271  C272  A    
C296  C312  A    
C405  H173  S    
C483  H441  S    
C24   C42   A    
C68   C468  S    
O4    Zn20  S    
C377  H73   S    
C57   C377  S    
C464  H367  S    
O51   Zn27  S    
O6    Zn10  S    
C445  H311  S    
C172  C221  S    
C4    O12   A    
C24   C296  A    
C33   C359  A    
C5    O13   A    
C254  H30   S    
C247  H23   S    
C77   C109  S    
C169  O81   A    
O8    Zn12  S    
C371  H56   S    
C393  H121  S    
C125  C484  S    
C276  O46   A    
C112  C129  S    
C336  C352  A    
C295  C423  S    
O40   Zn32  S    
C69   H373  S    
O52   Zn28  S    
C428  H243  S    
O16   Zn2   S    
C391  H117  S    
O53   Zn29  S    
C292  C420  S    
C53   C56   S    
O2    Zn18  S    
C309  C325  A    
C199  C200  A    
C324  H268  S    
C470  H400  S    
C449  H322  S    
C65   C465  S    
C493  H470  S    
C298  C314  A    
C250  C266  A    
C153  C202  A    
C203  C219  A    
O5    Zn15  S    
C319  H9    S    
C163  O75   A    
C267  C396  S    
C399  H139  S    
C473  H410  S    
O37   Zn29  S    
C122  C123  S    
C460  H355  S    
O24   Zn10  S    
C441  H299  S    
C298  C426  S    
C290  C306  A    
C127  H34   S    
C233  C249  A    
C191  C192  A    
C46   C286  S    
C436  H282  S    
O72   Zn10  S    
C273  O47   A    
C424  H230  S    
C67   H371  S    
O82   Zn10  S    
C401  H162  S    
C424  H232  S    
C42   C282  S    
C394  H126  S    
C217  C233  A    
C410  H190  S    
C413  H198  S    
C31   C367  A    
C271  C400  S    
C373  H63   S    
C12   O100  A    
C262  C389  S    
C370  H52   S    
O83   Zn11  S    
C492  H467  S    
C152  H152  S    
C350  C366  A    
C331  H259  S    
C192  C416  S    
C100  C125  S    
C9    C82   S    
C221  C237  A    
C3    C92   S    
C465  H387  S    
C162  O74   A    
C404  H172  S    
C183  C184  A    
C36   C279  S    
C83   C131  T    
C484  H442  S    
C347  C363  A    
C96   C144  T    
C441  H298  S    
C111  C130  S    
C81   C129  T    
C227  C228  A    
C228  C244  A    
C65   C68   S    
C242  H18   S    
C109  C132  S    
C70   C102  S    
C161  O73   A    
C110  C131  S    
C274  O42   A    
C493  H471  S    
C49   C464  S    
C76   H380  S    
C397  H135  S    
C320  C336  A    
C218  C234  A    
C389  H109  S    
C305  C321  A    
C427  H241  S    
C30   C366  A    
C43   C283  S    
C98   C127  S    
C2    O10   A    
C263  C392  S    
C440  H296  S    
C176  C217  S    
C146  H146  S    
C239  C255  A    
C390  H112  S    
C369  H51   S    
C386  H102  S    
C53   C373  S    
C67   C467  S    
C398  H137  S    
O41   Zn17  S    
C102  C123  S    
C198  C214  A    
C251  C267  A    
C154  C201  A    
C213  C229  A    
C52   C372  S    
C488  H456  S    
O22   Zn12  S    
C408  H184  S    
C168  O80   A    
O69   Zn11  S    
C161  O25   A    
C189  C413  S    
C460  H356  S    
O70   Zn12  S    
C158  C205  A    
C168  C209  S    
O46   Zn22  S    
C231  C247  A    
C255  H31   S    
C15   O23   A    
C474  H414  S    
C493  H469  S    
C104  C121  S    
C70   C470  S    
C69   C101  S    
C11   C84   S    
C428  H244  S    
C292  C308  A    
O85   Zn13  S    
C385  H97   S    
C155  H155  S    
C496  H479  S    
O8    Zn30  S    
C23   C41   A    
O4    Zn22  S    
C40   C364  A    
C182  C406  S    
O68   Zn14  S    
C439  H293  S    
O80   Zn8   S    
C444  H307  S    
C481  H433  S    
C108  C133  S    
C412  H195  S    
C223  C239  A    
C396  H130  S    
O64   Zn2   S    
C32   C304  A    
C373  H62   S    
C80   C480  S    
C337  C353  A    
C176  O40   A    
C35   C355  A    
C237  C238  A    
C114  C495  S    
C333  C349  A    
C148  H148  S    
C84   C132  T    
C102  C139  S    
C115  C494  S    
C63   C111  S    
C462  H360  S    
C483  H440  S    
C26   C362  A    
O58   Zn8   S    
O88   Zn16  S    
C461  H358  S    
C177  C178  A    
C49   C97   S    
C195  C196  A    
C196  C212  A    
O35   Zn27  S    
C71   C471  S    
C484  H443  S    
C193  C194  A    
C422  H226  S    
O76   Zn4   S    
C312  H2    S    
C323  H267  S    
C155  C187  A    
O104  Zn32  S    
C190  C414  S    
O59   Zn5   S    
C381  H85   S    
C386  H100  S    
C289  C305  A    
C160  H160  S    
C34   C360  A    
C119  C490  S    
C233  C234  A    
C162  O26   A    
C166  O30   A    
O48   Zn24  S    
C308  H6    S    
C107  C134  S    
C156  C188  A    
C207  C223  A    
C400  H142  S    
C171  C222  S    
C376  H72   S    
C126  C483  S    
C48   C288  S    
C20   C356  A    
C124  H37   S    
C245  C261  A    
C423  H229  S    
C117  H44   S    
C383  H91   S    
C280  O52   A    
C173  O85   A    
C118  H43   S    
C335  H263  S    
C488  H454  S    
O1    Zn7   S    
C385  H98   S    
O6    Zn32  S    
C154  C186  A    
C153  C185  A    
C473  H409  S    
C482  H436  S    
C302  C318  A    
C199  C215  A    
C463  H365  S    
C30   C48   A    
C438  H290  S    
C300  C316  A    
C88   C136  T    
C426  H238  S    
C9    O97   A    
C18   C42   A    
O47   Zn23  S    
C420  H218  S    
C163  C214  S    
C320  H10   S    
O23   Zn9   S    
C68   H372  S    
C286  O72   A    
O95   Zn23  S    
C283  O59   A    
C177  C401  S    
C146  C178  A    
C490  H461  S    
C419  H215  S    
O81   Zn9   S    
C482  H438  S    
C402  H165  S    
C416  H207  S    
C291  C419  S    
C389  H111  S    
C224  C240  A    
O26   Zn18  S    
C7    O95   A    
C193  C209  A    
C338  C434  S    
O55   Zn31  S    
C393  H123  S    
C312  C328  A    
C27   C299  A    
C310  H4    S    
C392  H120  S    
O102  Zn30  S    
C105  C120  S    
C180  C404  S    
C272  C399  S    
C453  H334  S    
C477  H421  S    
O7    Zn13  S    
C150  C197  A    
C149  H149  S    
C308  C324  A    
C4    C91   S    
C229  C245  A    
C297  C313  A    
C66   C67   S    
C455  H339  S    
C302  C430  S    
C438  H289  S    
C478  H424  S    
C427  H240  S    
C325  C341  A    
C338  C354  A    
C3    O11   A    
C475  H416  S    
C376  H70   S    
C8    C95   S    
C329  C345  A    
C236  C252  A    
C97   C128  S    
C299  C427  S    
C1    O9    A    
C120  H41   S    
C455  H340  S    
C86   C134  T    
C172  O36   A    
C407  H179  S    
C99   C126  S    
C33   C278  S    
C432  H255  S    
C485  H445  S    
O75   Zn3   S    
C385  H99   S    
C145  H145  S    
C417  H210  S    
C489  H458  S    
C389  H110  S    
C35   C280  S    
C488  H455  S    
C20   C292  A    
C425  H233  S    
C219  C235  A    
C462  H362  S    
C21   C293  A    
C121  C488  S    
C246  C262  A    
C61   C381  S    
C396  H132  S    
C253  C269  A    
C264  C391  S    
C178  C402  S    
C341  C437  S    
C424  H231  S    
O66   Zn16  S    
C18   C354  A    
C463  H364  S    
C465  H385  S    
O57   Zn7   S    
C58   C455  S    
C61   C452  S    
C52   C100  S    
C59   C107  S    
C347  C443  S    
O45   Zn21  S    
C232  C248  A    
C10   O18   A    
C492  H468  S    
C39   C363  A    
C68   C100  S    
C97   C144  S    
C327  H271  S    
C410  H188  S    
O61   Zn3   S    
C147  C179  A    
C37   C274  S    
C322  C338  A    
O62   Zn4   S    
C127  C482  S    
C148  C195  A    
C73   C105  S    
C310  C326  A    
O99   Zn27  S    
C235  C236  A    
C431  H253  S    
C62   C63   S    
C492  H466  S    
C427  H239  S    
O65   Zn15  S    
C25   C361  A    
C147  C196  A    
C326  H270  S    
O91   Zn19  S    
C381  H87   S    
C325  H269  S    
C306  C322  A    
C371  H55   S    
C387  H103  S    
C436  H283  S    
C80   H384  S    
C343  C359  A    
C284  O62   A    
C456  H344  S    
C322  H266  S    
C332  C348  A    
C72   H376  S    
C56   C376  S    
C400  H144  S    
C321  H265  S    
C154  H154  S    
O10   Zn8   S    
C328  C344  A    
C423  H228  S    
C276  O44   A    
C327  C343  A    
C455  H341  S    
C480  H432  S    
C328  H272  S    
C278  O56   A    
C349  C365  A    
O1    Zn23  S    
C326  C342  A    
C315  C331  A    
O13   Zn3   S    
C451  H329  S    
C341  C357  A    
C6    O94   A    
C448  H319  S    
C443  H303  S    
C50   C98   S    
C372  H60   S    
C434  H278  S    
C105  C136  S    
O4    Zn6   S    
C54   C55   S    
C28   C48   A    
C473  H411  S    
O103  Zn31  S    
C14   O102  A    
C168  O32   A    
C165  O77   A    
C108  C117  S    
C59   C379  S    
C49   C52   S    
C452  H330  S    
C384  H95   S    
C62   C451  S    
C244  H20   S    
C230  C246  A    
C418  H214  S    
C40   C366  A    
C267  C268  A    
C54   C459  S    
C165  C212  S    
C151  C183  A    
C330  C346  A    
C54   C374  S    
C67   C99   S    
C409  H186  S    
O50   Zn26  S    
C457  H346  S    
C27   C47   A    
C113  C496  S    
C188  C412  S    
C415  H205  S    
C21   C357  A    
C379  H79   S    
C66   C98   S    
C316  H14   S    
C79   C479  S    
C164  O76   A    
C243  H19   S    
C450  H324  S    
C122  H39   S    
C429  H247  S    
C77   C80   S    
O2    Zn24  S    
C461  H357  S    
C435  H280  S    
C36   C358  A    
C467  H393  S    
C206  C222  A    
C50   C370  S    
O1    Zn1   S    
C278  O50   A    
C464  H366  S    
C403  H168  S    
C200  C216  A    
C248  C264  A    
C281  O63   A    
C197  C198  A    
C128  H33   S    
C477  H423  S    
C247  C263  A    
C445  H310  S    
C9    O17   A    
C421  H223  S    
O17   Zn15  S    
C418  H213  S    
O43   Zn19  S    
C482  H437  S    
C57   C456  S    
O19   Zn13  S    
C440  H295  S    
C463  H363  S    
C433  H274  S    
C414  H202  S    
C253  H29   S    
C275  O45   A    
C288  O70   A    
C265  C394  S    
C19   C291  A    
C69   C72   S    
C346  C442  S    
C447  H316  S    
C480  H430  S    
C156  C203  A    
O25   Zn17  S    
C28   C300  A    
C311  C327  A    
C259  C260  A    
C15   C88   S    
C343  C439  S    
C11   O99   A    
C72   C472  S    
C38   C362  A    
C408  H183  S    
O28   Zn20  S    
C95   C143  T    
C454  H336  S    
C60   C108  S    
O101  Zn29  S    
C106  C119  S    
C378  H78   S    
C277  O55   A    
C485  H446  S    
C457  H345  S    
C286  O66   A    
C329  H257  S    
C239  C240  A    
O5    Zn9   S    
C333  H261  S    
O32   Zn24  S    
C250  H26   S    
C318  H12   S    
C395  H127  S    
C63   C450  S    
O71   Zn9   S    
O8    Zn14  S    
C263  C264  A    
C150  C182  A    
C2    O90   A    
C293  C421  S    
C486  H448  S    
C481  H435  S    
C323  C339  A    
C7    C96   S    
C393  H122  S    
C158  C190  A    
O34   Zn26  S    
C456  H342  S    
C204  C220  A    
C342  C358  A    
C487  H453  S    
C237  C253  A    
C225  C226  A    
C296  C424  S    
C495  H476  S    
C468  H396  S    
C100  C141  S    
C394  H125  S    
C279  O53   A    
C496  H480  S    
C169  C224  S    
C11   O19   A    
C225  C241  A    
C466  H390  S    
C44   C284  S    
C460  H354  S    
C283  O61   A    
C479  H429  S    
C45   C285  S    
C104  C137  S    
C174  O86   A    
C201  C202  A    
C430  H249  S    
C313  C329  A    
C404  H171  S    
C285  O71   A    
C71   C103  S    
C348  C364  A    
C494  H474  S    
C58   C378  S    
C395  H128  S    
C437  H286  S    
C442  H302  S    
C437  H287  S    
C252  C268  A    
C458  H350  S    
C55   C458  S    
C185  C186  A    
C53   C101  S    
O9    Zn7   S    
C375  H68   S    
C125  H36   S    
C244  C260  A    
C126  H35   S    
C16   O24   A    
C425  H235  S    
C70   C71   S    
C414  H200  S    
C397  H134  S    
O60   Zn6   S    
C258  C385  S    
C22   C358  A    
C121  H40   S    
C434  H276  S    
C149  C198  A    
C443  H305  S    
C293  C309  A    
C382  H90   S    
O98   Zn26  S    
C434  H277  S    
O49   Zn25  S    
C116  H45   S    
C148  C180  A    
C483  H439  S    
C416  H206  S    
C149  C181  A    
C256  H32   S    
O15   Zn1   S    
C456  H343  S    
C406  H177  S    
C209  C225  A    
C28   C364  A    
C23   C295  A    
C151  C200  A    
O6    Zn16  S    
C116  C493  S    
C399  H140  S    
C426  H236  S    
C19   C43   A    
C451  H327  S    
C33   C353  A    
O84   Zn12  S    
O94   Zn22  S    
C380  H84   S    
C64   C384  S    
C294  C422  S    
C153  H153  S    
C114  H47   S    
C74   C474  S    
C335  C351  A    
C377  H74   S    
C94   C142  T    
C207  C208  A    
C340  C356  A    
C159  C191  A    
C73   H377  S    
C117  C492  S    
C56   C104  S    
O12   Zn6   S    
C117  C120  S    
C261  C390  S    
C194  C210  A    
C476  H419  S    
C235  C251  A    
C307  H5    S    
C489  H459  S    
C72   C104  S    
C40   C275  S    
C58   C59   S    
C372  H58   S    
C13   O101  A    
O2    Zn2   S    
C152  C199  A    
C7    O15   A    
O67   Zn13  S    
C191  C415  S    
C181  C182  A    
C464  H368  S    
C289  C417  S    
C348  C444  S    
C458  H348  S    
C412  H194  S    
C406  H176  S    
C342  C438  S    
C87   C135  T    
C166  C211  S    
C420  H220  S    
O4    Zn4   S    
C469  H399  S    
C470  H402  S    
O44   Zn20  S    
C175  O87   A    
C176  O88   A    
C371  H57   S    
O2    Zn8   S    
C78   H382  S    
C275  O43   A    
C50   C51   S    
C478  H426  S    
C77   H381  S    
C74   C106  S    
C5    C94   S    
C397  H133  S    
C467  H392  S    
C146  C193  A    
C446  H313  S    
C158  H158  S    
C160  C192  A    
C34   C354  A    
C435  H279  S    
C241  C257  A    
C74   H378  S    
C290  C418  S    
C91   C139  T    
C27   C363  A    
C24   C360  A    
C150  H150  S    
C34   C277  S    
C29   C47   A    
C438  H288  S    
O8    Zn28  S    
C454  H338  S    
C297  C425  S    
C470  H401  S    
C422  H225  S    
C282  O64   A    
C448  H318  S    
C457  H347  S    
C306  H8    S    
C491  H465  S    
C103  C138  S    
C208  C224  A    
O33   Zn25  S    
C92   C140  T    
C433  H273  S    
O21   Zn11  S    
C435  H281  S    
C93   C141  T    
O74   Zn2   S    
O42   Zn18  S    
C474  H413  S    
C447  H315  S    
C454  H337  S    
C430  H250  S    
C440  H294  S    
C60   C453  S    
C388  H108  S    
O27   Zn19  S    
C405  H175  S    
C259  C388  S    
C257  C386  S    
C423  H227  S    
C305  H7    S    
C54   C102  S    
C23   C359  A    
C157  C206  A    
C75   C475  S    
C167  C210  S    
C349  C445  S    
C406  H178  S    
C461  H359  S    
C254  C270  A    
O78   Zn6   S    
C313  H15   S    
C378  H77   S    
C10   O98   A    
C38   C273  S    
C201  C217  A    
C179  C180  A    
C183  C407  S    
C311  H1    S    
C449  H321  S    
C10   C81   S    
C252  H28   S    
C453  H335  S    
O79   Zn7   S    
C387  H104  S    
C415  H203  S    
C419  H217  S    
C79   H383  S    
C113  H48   S    
C210  C226  A    
C346  C362  A    
C245  H21   S    
C187  C188  A    
C426  H237  S    
C268  C395  S    
C47   C287  S    
C442  H300  S    
C61   C64   S    
C227  C243  A    
C486  H450  S    
C487  H452  S    
C184  C408  S    
C418  H212  S    
C476  H420  S    
C334  C350  A    
C125  C128  S    
C495  H475  S    
C476  H418  S    
C277  O49   A    
C480  H431  S    
C71   H375  S    
C14   O22   A    
C15   O103  A    
C316  C332  A    
C101  C124  S    
C111  C114  S    
C73   C473  S    
C114  C115  S    
C459  H351  S    
O87   Zn15  S    
C189  C190  A    
C466  H389  S    
C481  H434  S    
C171  O83   A    
O63   Zn1   S    
C64   C112  S    
C491  H464  S    
C26   C46   A    
C436  H284  S    
C170  C223  S    
C212  C228  A    
C430  H248  S    
C260  C387  S    
O6    Zn26  S    
C73   C76   S    
C4    O92   A    
C410  H189  S    
C403  H167  S    
C31   C45   A    
C416  H208  S    
C345  C361  A    
C345  C441  S    
C392  H119  S    
C432  H254  S    
C450  H326  S    
C169  O33   A    
C174  C219  S    
C6    O14   A    
C159  H159  S    
C453  H333  S    
C388  H106  S    
C103  C122  S    
C444  H306  S    
C110  C115  S    
C309  H3    S    
C85   C133  T    
C31   C303  A    
C152  C184  A    
C284  O60   A    
C57   C105  S    
C203  C204  A    
C314  H16   S    
C51   C462  S    
C374  H66   S    
C98   C143  S    
C2    C89   S    
C70   H374  S    
C287  O69   A    
C99   C142  S    
O29   Zn21  S    
C411  H193  S    
C246  H22   S    
C390  H114  S    
C285  O65   A    
C374  H65   S    
C61   C109  S    
C344  C440  S    
C489  H457  S    
O5    Zn25  S    
O97   Zn25  S    
C159  C208  A    
C303  C431  S    
C255  C271  A    
C205  C206  A    
C49   C369  S    
C383  H93   S    
C336  H264  S    
C26   C298  A    
C417  H209  S    
C229  C230  A    
O89   Zn17  S    
O3    Zn5   S    
C215  C231  A    
C459  H352  S    
C274  O48   A    
C377  H75   S    
C301  C317  A    
C304  C320  A    
C257  C258  A    
C465  H386  S    
C41   C281  S    
C396  H131  S    
C303  C319  A    
C187  C411  S    
O93   Zn21  S    
C398  H138  S    
C350  C446  S    
C32   C46   A    
C3    O91   A    
C249  C265  A    
C55   C103  S    
C174  O38   A    
C269  C270  A    
O96   Zn24  S    
C226  C242  A    
O86   Zn14  S    
C471  H403  S    
C240  C256  A    
C269  C398  S    
C462  H361  S    
C118  C119  S    
C121  C124  S    
C337  C433  S    
C331  C347  A    
O92   Zn20  S    
C479  H428  S    
C21   C43   A    
O36   Zn28  S    
C280  O54   A    
C339  C435  S    
C496  H478  S    
C318  C334  A    
C288  O68   A    
C317  C333  A    
O56   Zn32  S    
C173  C220  S    
C30   C302  A    
C13   C86   S    
C76   C108  S    
C446  H314  S    
C351  C367  A    
C469  H398  S    
O5    Zn31  S    
C202  C218  A    
C17   C289  A    
C147  H147  S    
C381  H86   S    
C32   C368  A    
C413  H197  S    
C242  C258  A    
C431  H251  S    
C429  H245  S    
C299  C315  A    
C439  H292  S    
C387  H105  S    
C20   C44   A    
C175  C218  S    
C459  H353  S    
C467  H391  S    
C446  H312  S    
C419  H216  S    
C382  H89   S    
C339  C355  A    
C173  O37   A    
C400  H143  S    
C59   C454  S    
C452  H331  S    
C80   C112  S    
C490  H460  S    
C444  H308  S    
C157  H157  S    
C407  H181  S    
C421  H221  S    
C422  H224  S    
C112  C113  S    
C55   C375  S    
C101  C140  S    
C77   C477  S    
C370  H53   S    
C17   C41   A    
C162  C215  S    
C458  H349  S    
C51   C99   S    
C304  C432  S    
C220  C236  A    
C449  H323  S    
C295  C311  A    
C379  H81   S    
C37   C367  A    
C386  H101  S    
C151  H151  S    
C74   C75   S    
C181  C405  S    
C372  H59   S    
C484  H444  S    
C66   H370  S    
C428  H242  S    
C39   C365  A    
C65   H369  S    
C340  C436  S    
C172  O84   A    
C388  H107  S    
O20   Zn14  S    
C405  H174  S    
C452  H332  S    
O7    Zn11  S    
C420  H219  S    
C22   C294  A    
C261  C262  A    
C78   C79   S    
C401  H163  S    
C243  C259  A    
C6    C93   S    
C431  H252  S    
C409  H185  S    
C17   C353  A    
C222  C238  A    
C378  H76   S    
C124  C485  S    
C415  H204  S    
C90   C138  T    
C402  H166  S    
C273  O41   A    
C76   C476  S    
C380  H82   S    
O30   Zn22  S    
O18   Zn16  S    
C56   C457  S    
C16   C87   S    
C195  C211  A    
C58   C106  S    
C478  H425  S    
C321  C337  A    
O73   Zn1   S    
C294  C310  A    
C403  H169  S    
C75   H379  S    
C399  H141  S    
C78   C478  S    
C8    O16   A    
C411  H191  S    
C145  C194  A    
C486  H449  S    
C78   C110  S    
O38   Zn30  S    
C307  C323  A    
O90   Zn18  S    
C490  H462  S    
C421  H222  S    
C445  H309  S    
O54   Zn30  S    
C448  H320  S    
C375  H69   S    
C475  H415  S    
C106  C135  S    
C123  C486  S    
C186  C410  S    
C487  H451  S    
C29   C365  A    
C471  H404  S    
C414  H201  S    
C447  H317  S    
C126  C127  S    
O7    Zn27  S    
C63   C383  S    
C433  H275  S    
C494  H473  S    
C375  H67   S    
O11   Zn5   S    
C468  H394  S    
C82   C130  T    
C472  H407  S    
C25   C297  A    
C155  C204  A    
C265  C266  A    
C1    C90   S    
C494  H472  S    
C495  H477  S    
C167  O31   A    
C314  C330  A    
O14   Zn4   S    
C391  H115  S    
C179  C403  S    
C432  H256  S    
C5    O93   A    
C69   C469  S    
C442  H301  S    
C417  H211  S    
C19   C355  A    
C107  C118  S    
O3    Zn3   S    
C51   C371  S    
C256  C272  A    
C404  H170  S    
C161  C216  S    
C50   C463  S    
C12   C83   S    
C14   C85   S    
O3    Zn19  S    
C401  H161  S    
O39   Zn31  S    
C334  H262  S    
C122  C487  S    
C165  O29   A    
C60   C380  S    
C382  H88   S    
C279  O51   A    
C475  H417  S    
C411  H192  S    
C266  C393  S    
C170  O82   A    
C164  C213  S    
C384  H96   S    
C376  H71   S    
C441  H297  S    
C390  H113  S    
C16   O104  A    
C89   C137  T    
C248  H24   S    
C79   C111  S    
C317  H11   S    
C471  H405  S    
C113  C116  S    
C315  H13   S    
C167  O79   A    
C35   C357  A    
C383  H92   S    
C123  H38   S    
C65   C97   S    
C352  C448  S    
C468  H395  S    
C394  H124  S    
C120  C489  S    
C160  C207  A    
C291  C307  A    
C166  O78   A    
C156  H156  S    
C425  H234  S    
C373  H61   S    
C392  H118  S    
C241  H17   S    
C128  C481  S    
C66   C466  S    
C477  H422  S    
C205  C221  A    
C395  H129  S    
C407  H180  S    
C62   C110  S    
C8    O96   A    
O77   Zn5   S    
C324  C340  A    
C1    O89   A    
C64   C449  S    
C479  H427  S    
C374  H64   S    
C413  H199  S    
C157  C189  A    
C164  O28   A    
C344  C360  A    
C115  H46   S    
C171  O35   A    
C251  H27   S    
C57   C60   S    
C351  C447  S    
C485  H447  S    
C18   C290  A    
C109  C116  S    
C491  H463  S    
C62   C382  S    
C145  C177  A    
C231  C232  A    
C330  H258  S    
C118  C491  S    
C13   O21   A    
C22   C44   A    
C216  C232  A    
C211  C227  A    
C380  H83   S    
C391  H116  S    
C437  H285  S    
C472  H406  S    
C469  H397  S    
C301  C429  S    
C443  H304  S    
C170  O34   A    
C214  C230  A    
