data_mof_unit_66758.cif
_audit_creation_date              2013-03-05T15:40:48-0500
_audit_creation_method            fapswitch 2.2
_symmetry_space_group_name_H-M    P1
_symmetry_Int_Tables_number       1
_space_group_crystal_system       triclinic
_cell_length_a                    8.479144
_cell_length_b                    13.0327
_cell_length_c                    15.253912
_cell_angle_alpha                 95.801749
_cell_angle_beta                  99.014511
_cell_angle_gamma                 98.037989
_cell_volume                      1635.38518005

loop_
_atom_site_label
_atom_site_type_symbol
_atom_site_description
_atom_site_fract_x
_atom_site_fract_y
_atom_site_fract_z
_atom_type_partial_charge
P1    P     P_3+3 0.998660 0.747790 0.570900 0.502916
O1    O     O_2   0.168170 0.764170 0.543850 -0.312474
O2    O     O_3   0.898670 0.629780 0.545890 -0.390496
O3    O     O_3   0.365980 0.695510 0.380810 -0.359821
O4    O     O_2   0.286425 0.884433 0.424338 -0.319364
O5    O     O_3   0.063310 0.761023 0.686652 -0.609144
O6    O     O_3   0.417304 0.868203 0.280109 -0.617764
H1    H     H_    0.178702 0.795023 0.248161 0.175008
C1    C     C_3   0.254407 0.870512 0.135830 -0.453920
P2    P     P_3+3 0.306970 0.411860 0.294270 0.539829
P3    P     P_3+3 0.880367 0.616931 0.217189 0.454114
O7    O     O_2   0.136040 0.444100 0.280280 -0.295880
O8    O     O_3   0.934510 0.640480 0.335500 -0.327119
O9    O     O_2   0.012504 0.564062 0.181559 -0.441859
O10   O     O_3   0.253028 0.276274 0.281417 -0.524803
O11   O     O_3   0.904548 0.738196 0.177541 -0.574865
C2    C     C_3   0.774968 0.790964 0.191564 0.415733
H2    H     H_    0.665616 0.738604 0.199021 0.071718
C3    C     C_3   0.731151 0.848320 0.110837 -0.893355
H3    H     H_    0.838010 0.900787 0.098685 0.257902
H4    H     H_    0.685397 0.790741 0.050221 0.282345
C4    C     C_3   0.876091 0.166677 0.284019 0.296142
H5    H     H_    0.002196 0.200574 0.314063 0.173392
H6    H     H_    0.849403 0.087538 0.303445 0.078719
C5    C     C_3   0.860562 0.156950 0.182848 -0.791967
H7    H     H_    0.870156 0.235532 0.160597 0.298772
H8    H     H_    0.958918 0.118554 0.161259 0.243285
H9    H     H_    0.742818 0.109366 0.150843 0.223337
Ba1   Ba    Ba6+2 0.153570 0.551840 0.456200 1.665929
C6    C     C_3   0.932987 0.758448 0.733393 0.170000
H10   H     H_    0.815999 0.726138 0.689468 0.137699
C7    C     C_3   0.925221 0.869484 0.773255 -0.729339
H11   H     H_    0.802918 0.871524 0.789389 0.245966
H12   H     H_    0.944286 0.923666 0.723069 0.222864
C8    C     C_3   0.390119 0.227980 0.275583 0.202469
H13   H     H_    0.500900 0.277087 0.314216 0.114861
C9    C     C_3   0.407667 0.201109 0.176531 -0.724299
H14   H     H_    0.295748 0.209870 0.131316 0.280042
H15   H     H_    0.427107 0.119049 0.161819 0.155801
P4    P     P_3+3 0.811620 0.252200 0.429030 0.500953
O12   O     O_2   0.642110 0.235770 0.456130 -0.379409
O13   O     O_3   0.911620 0.370210 0.454030 -0.303746
O14   O     O_3   0.444310 0.304480 0.619110 -0.400664
O15   O     O_3   0.767692 0.229701 0.312607 -0.591994
P5    P     P_3+3 0.939030 0.384314 0.781447 0.460494
O16   O     O_3   0.400800 0.556680 0.607590 -0.345188
O17   O     O_3   0.875770 0.359510 0.664420 -0.386456
O18   O     O_2   0.847861 0.468558 0.817986 -0.375315
O19   O     O_3   0.872321 0.281408 0.838146 -0.603862
Ba2   Ba    Ba6+2 0.656590 0.448150 0.543720 1.661663
P6    P     P_3+3 0.422125 0.832846 0.389056 0.503880
C10   C     C_3   0.288614 0.808753 0.217622 0.397025
H16   H     H_    0.372562 0.905219 0.120524 0.165501
O20   O     O_3   0.409490 0.443300 0.392340 -0.392883
C11   C     C_3   0.431658 0.772830 0.767998 0.297480
H17   H     H_    0.315040 0.725543 0.736002 0.151151
H18   H     H_    0.436148 0.782700 0.841607 0.123496
C12   C     C_3   0.444213 0.879360 0.734434 -0.606068
H19   H     H_    0.551755 0.930251 0.774231 0.246354
H20   H     H_    0.335032 0.914507 0.742489 0.150948
P7    P     P_3+3 0.505910 0.593310 0.719847 0.497673
O21   O     O_2   0.674250 0.555830 0.719690 -0.355823
O22   O     O_3   0.563556 0.727277 0.747979 -0.548583
H21   H     H_    0.636098 0.896087 0.121655 0.215542
C13   C     C_3   0.894944 0.180506 0.804202 0.278164
C14   C     C_3   0.875371 0.114901 0.881689 -0.697947
H22   H     H_    0.820273 0.033411 0.857789 0.258074
H23   H     H_    0.992538 0.118755 0.927109 0.274327
H24   H     H_    0.796474 0.145684 0.925439 0.247803
P8    P     P_3+3 0.391112 0.169606 0.616039 0.454231
C15   C     C_3   0.468571 0.239990 0.784305 0.259553
H25   H     H_    0.364344 0.281695 0.771225 0.117163
O23   O     O_2   0.508549 0.120064 0.563115 -0.391661
O24   O     O_3   0.444765 0.144130 0.727421 -0.570903
H26   H     H_    0.574414 0.292940 0.771332 0.146247
C16   C     C_3   0.498135 0.229249 0.884735 -0.662675
H27   H     H_    0.434778 0.285517 0.918728 0.183222
H28   H     H_    0.627297 0.255395 0.912967 0.215997
C17   C     C_R   0.082635 0.181681 0.523170 -0.249109
C18   C     C_R   0.725577 0.826941 0.492998 -0.343942
C19   C     C_R   0.691900 0.997097 0.449812 -0.224648
C20   C     C_R   0.627565 0.891901 0.452288 0.247970
C21   C     C_R   0.889350 0.858225 0.527107 0.192300
C22   C     C_R   0.955038 0.967848 0.526810 0.067498
C23   C     C_R   0.854134 0.038774 0.487240 -0.000477
C24   C     C_R   0.920124 0.148220 0.485372 0.097517
C25   C     C_R   0.179812 0.114783 0.562849 0.365628
C26   C     C_R   0.116538 0.009218 0.564597 -0.263689
H29   H     H_    0.615483 0.045159 0.416427 0.162431
H30   H     H_    0.193050 0.960297 0.597416 0.117894
H31   H     H_    0.135283 0.262059 0.522122 0.145760
H32   H     H_    0.671364 0.750215 0.500259 0.183509
C27   C     C_R   0.243472 0.479779 0.765478 -0.320771
C28   C     C_R   0.154458 0.429502 0.820795 0.380931
C29   C     C_R   0.226920 0.418646 0.907262 -0.391633
C30   C     C_R   0.378069 0.479093 0.948041 0.076784
C31   C     C_R   0.463859 0.535419 0.890294 -0.194843
C32   C     C_R   0.399611 0.529329 0.798862 0.182981
C33   C     C_R   0.611976 0.523851 0.080212 -0.135827
C34   C     C_R   0.675550 0.540790 0.171796 0.173153
C35   C     C_R   0.416607 0.464539 0.205760 0.085247
C36   C     C_R   0.346741 0.454813 0.113559 -0.164255
C37   C     C_R   0.445265 0.484037 0.048014 0.121497
C38   C     C_R   0.578102 0.510570 0.232270 -0.481169
H33   H     H_    0.694507 0.545250 0.035706 0.116656
H34   H     H_    0.163659 0.359995 0.939089 0.166036
H35   H     H_    0.578503 0.584803 0.914157 0.156168
H36   H     H_    0.188382 0.483311 0.697043 0.153356
C39   C     C_2   0.958467 0.691702 0.808277 1.127902
O25   O     O_2   0.078355 0.649410 0.819666 -0.666347
O26   O     O_R   0.851368 0.686252 0.869342 -0.779476
H37   H     H_    0.885936 0.644986 0.919912 0.318962
C40   C     C_2   0.049217 0.904545 0.856706 0.722008
H38   H     H_    0.176912 0.910752 0.853783 0.061236
O27   O     O_2   0.006475 0.922957 0.928595 -0.632257
C41   C     C_2   0.371807 0.130271 0.319548 0.709696
H39   H     H_    0.436996 0.067913 0.301603 -0.012134
O28   O     O_2   0.286397 0.120486 0.376479 -0.562459
C42   C     C_2   0.162064 0.802111 0.052962 0.613892
H40   H     H_    0.036259 0.769449 0.048770 0.083997
O29   O     O_2   0.229236 0.782648 0.989451 -0.567858
C43   C     C_2   0.549091 0.268290 0.152774 0.615268
H41   H     H_    0.633974 0.321372 0.202727 0.075118
O30   O     O_2   0.574361 0.261993 0.076432 -0.620709
C44   C     C_2   0.333456 0.704333 0.188838 0.387932
H42   H     H_    0.305620 0.639826 0.225470 0.093264
O31   O     O_2   0.398476 0.690639 0.123725 -0.610491
C45   C     C_2   0.465081 0.874004 0.638513 0.726988
H43   H     H_    0.469832 0.943758 0.606109 0.072345
O32   O     O_2   0.476303 0.791899 0.595867 -0.558821
C46   C     C_2   0.165152 0.959953 0.153549 0.415207
H44   H     H_    0.145074 0.011890 0.103114 0.070823
O33   O     O_2   0.113722 0.975460 0.223079 -0.545170
C47   C     C_2   0.770464 0.139554 0.723248 0.563653
H45   H     H_    0.720658 0.194711 0.683717 0.131405
O34   O     O_2   0.741345 0.046908 0.694694 -0.676992
C48   C     C_2   0.053504 0.171824 0.773378 0.880433
O35   O     O_2   0.091718 0.219622 0.713369 -0.723679
O36   O     O_R   0.138818 0.093920 0.800199 -0.824989
H46   H     H_    0.195796 0.064701 0.752452 0.320187
C49   C     C_2   0.443788 0.124118 0.911696 1.313746
O37   O     O_2   0.510400 0.050155 0.892322 -0.694410
O38   O     O_R   0.324739 0.113528 0.965434 -0.781798
H47   H     H_    0.307297 0.041459 0.985166 0.307329
C50   C     C_2   0.818677 0.866293 0.275392 0.606086
H48   H     H_    0.736938 0.919977 0.289025 -0.066011
O39   O     O_2   0.941487 0.866229 0.329082 -0.516878
C51   C     C_2   0.169992 0.425613 0.089203 0.619104
H49   H     H_    0.100703 0.475111 0.050867 0.053439
O40   O     O_2   0.100895 0.343662 0.106632 -0.588351
C52   C     C_2   0.650178 0.523700 0.325150 1.107843
O41   O     O_2   0.731055 0.460477 0.353442 -0.570556
O42   O     O_R   0.624858 0.608142 0.380610 -0.800785
H50   H     H_    0.649503 0.596060 0.444849 0.343214

loop_
_geom_bond_atom_site_label_1
_geom_bond_atom_site_label_2
_geom_bond_distance
_ccdc_geom_bond_type
C33   C37   1.426333 A    
C25   C26   1.409545 A    
C12   C45   1.496988 S    
C35   C36   1.423691 A    
O7    Ba1   2.872206 S    
C36   C37   1.446493 A    
C14   H23   1.110342 S    
C29   C30   1.420845 A    
P2    Ba1   3.446819 S    
C11   H17   1.101500 S    
C45   H43   1.076664 S    
C17   C25   1.398841 A    
C50   H48   1.079106 S    
C23   C24   1.462343 A    
C5    H9    1.110217 S    
C48   O36   1.384972 S    
Ba2   O20   2.853647 S    
O19   C13   1.413576 S    
O1    Ba1   2.926569 S    
P1    C21   1.936546 S    
C38   C52   1.435423 S    
O8    Ba1   2.851816 S    
C3    H4    1.111066 S    
C16   H28   1.104158 S    
O6    C10   1.409914 S    
P2    O10   1.745256 S    
C39   O26   1.399203 S    
C27   H36   1.083038 S    
C6    H10   1.108195 S    
Ba1   O13   2.901372 S    
P3    O9    1.535088 D    
P4    Ba2   3.473686 S    
C14   H24   1.102134 S    
Ba1   O20   2.983452 S    
P5    C28   1.824234 S    
C12   H20   1.106715 S    
O38   H47   1.013375 S    
C34   C38   1.382063 A    
C41   H39   1.081200 S    
O2    Ba1   2.972297 S    
P1    O1    1.549034 D    
C1    C46   1.500558 S    
P4    C24   1.938511 S    
P7    O22   1.736541 S    
C36   C51   1.471849 S    
C4    O15   1.404969 S    
O26   H37   1.013560 S    
O11   C2    1.407525 S    
C4    C5    1.518931 S    
C11   O22   1.397325 S    
P8    O24   1.765763 S    
C52   O41   1.213513 D    
C7    C40   1.504403 S    
C6    C7    1.526261 S    
H1    C10   1.106266 S    
C17   H31   1.082463 S    
O3    Ba1   2.865915 S    
C13   C48   1.507090 S    
C16   C49   1.501835 S    
P5    O17   1.764558 S    
C14   H22   1.099396 S    
O42   H50   1.002442 S    
C28   C29   1.394733 A    
C1    C10   1.563164 S    
C18   C21   1.392002 A    
P8    C25   1.856890 S    
O10   C8    1.407471 S    
C50   O39   1.219934 D    
O2    Ba2   2.902023 S    
C31   C32   1.405588 A    
O17   Ba2   2.852435 S    
Ba1   Ba2   4.679860 S    
C42   O29   1.221032 D    
C33   H33   1.077474 S    
O3    P6    1.772990 S    
P1    O5    1.748291 S    
C22   C23   1.457036 A    
C18   C20   1.390821 A    
C47   O34   1.218662 D    
O16   P7    1.786586 S    
C12   H19   1.102686 S    
C19   C20   1.409392 A    
P3    C34   1.866141 S    
P1    O2    1.626383 S    
C8    H13   1.105159 S    
C7    H12   1.107675 S    
C18   H32   1.064546 S    
C2    C50   1.494039 S    
C9    H14   1.109229 S    
C29   H34   1.072226 S    
P3    O11   1.745570 S    
C21   C22   1.459766 A    
P5    O19   1.744223 S    
C3    H21   1.107065 S    
C10   C44   1.505170 S    
C30   C31   1.423426 A    
P8    O23   1.544821 D    
P1    Ba1   3.473193 S    
C2    H2    1.100045 S    
C8    C41   1.498477 S    
C27   C28   1.372606 A    
C51   H49   1.085298 S    
C42   H40   1.081347 S    
P6    C20   1.872309 S    
P2    O7    1.553766 D    
O13   Ba2   2.973229 S    
P4    O12   1.549380 D    
O5    C6    1.404254 S    
C26   H30   1.075377 S    
O14   P8    1.746546 S    
C11   H18   1.111200 S    
C44   H42   1.074961 S    
C1    C42   1.507461 S    
C4    H6    1.104683 S    
C30   C37   1.533597 S    
C1    H16   1.109389 S    
C43   O30   1.213469 D    
C46   H44   1.084196 S    
O12   Ba2   2.926993 S    
C40   H38   1.082694 S    
P5    O18   1.536991 D    
C6    C39   1.511381 S    
C8    C9    1.551051 S    
P2    C35   1.886956 S    
C22   C26   1.407652 A    
C51   O40   1.218969 D    
C46   O33   1.217432 D    
C45   O32   1.218345 D    
C15   O24   1.417698 S    
O36   H46   1.007239 S    
O14   Ba2   2.865256 S    
C47   H45   1.073057 S    
C35   C38   1.395071 A    
C48   O35   1.217661 D    
O16   Ba2   2.982510 S    
C33   C34   1.399763 A    
Ba1   O16   2.854441 S    
C7    H11   1.105924 S    
C3    H3    1.108099 S    
C49   O38   1.397551 S    
C5    H7    1.107377 S    
C19   H29   1.070566 S    
C15   H25   1.103296 S    
C9    H15   1.110712 S    
C39   O25   1.219864 D    
C15   H26   1.109446 S    
C16   H27   1.102639 S    
P3    O8    1.775072 S    
P7    C32   1.814893 S    
C15   C16   1.536921 S    
Ba2   O21   2.872394 S    
P4    O13   1.626403 S    
C2    C3    1.527595 S    
C41   O28   1.220057 D    
C13   C47   1.491490 S    
C52   O42   1.381183 S    
P7    O21   1.572207 D    
P2    O20   1.590715 S    
O6    P6    1.764825 S    
C9    C43   1.497523 S    
C31   H35   1.076323 S    
P4    O15   1.742251 S    
C13   C14   1.543298 S    
C11   C12   1.523319 S    
C44   O31   1.218844 D    
C4    H5    1.105399 S    
O4    P6    1.550105 D    
C43   H41   1.076826 S    
C49   O37   1.217584 D    
C27   C32   1.382850 A    
C17   C24   1.397680 A    
C19   C23   1.412618 A    
C40   O27   1.219471 D    
C5    H8    1.106273 S    
