data_mof_unit_38009.cif
_audit_creation_date              2012-12-10T20:39:56-0500
_audit_creation_method            fapswitch 2.2
_symmetry_space_group_name_H-M    P1
_symmetry_Int_Tables_number       1
_space_group_crystal_system       triclinic
_cell_length_a                    22.853687
_cell_length_b                    10.739856
_cell_length_c                    9.899002
_cell_angle_alpha                 89.557115
_cell_angle_beta                  90.61375
_cell_angle_gamma                 90.072663
_cell_volume                      2429.44990482

loop_
_atom_site_label
_atom_site_type_symbol
_atom_type_description
_atom_site_fract_x
_atom_site_fract_y
_atom_site_fract_z
_atom_type_partial_charge
C1    C     C_R   0.502306 0.260460 0.500431 0.902459
C2    C     C_R   0.962501 0.225784 0.587853 0.678918
C3    C     C_R   0.021983 0.230496 0.559519 -0.236648
C4    C     C_R   0.054776 0.337462 0.589545 -0.108034
C5    C     C_R   0.028002 0.438391 0.654477 -0.011395
C6    C     C_R   0.061688 0.540749 0.695563 -0.043056
C7    C     C_R   0.035153 0.638834 0.764241 -0.159164
C8    C     C_R   0.974514 0.641039 0.785893 0.155101
C9    C     C_R   0.113763 0.346862 0.554729 0.564231
C10   C     C_R   0.121516 0.542835 0.666052 0.596468
C11   C     C_R   0.228421 0.558232 0.484556 0.730207
C12   C     C_R   0.388986 0.495296 0.500035 0.889820
C13   C     C_R   0.288182 0.568385 0.461571 -0.396494
C14   C     C_R   0.326176 0.473679 0.504525 -0.148160
C15   C     C_R   0.303916 0.366259 0.570437 0.150065
C16   C     C_R   0.244357 0.360697 0.599268 -0.233777
C17   C     C_R   0.206540 0.456004 0.557465 0.122906
C18   C     C_R   0.766673 0.393140 0.502047 0.611891
C19   C     C_R   0.707816 0.401469 0.462594 -0.037173
C20   C     C_R   0.674778 0.503794 0.506555 -0.254128
C21   C     C_R   0.702913 0.604885 0.570424 -0.021028
C22   C     C_R   0.761745 0.592737 0.609842 0.601393
C23   C     C_R   0.496991 0.739803 0.498827 0.877604
C24   C     C_R   0.791241 0.477336 0.597114 -0.092685
C25   C     C_R   0.518517 0.060669 0.615864 0.072604
C26   C     C_R   0.507749 0.128808 0.498542 -0.121367
C27   C     C_R   0.498647 0.067998 0.375947 -0.278658
C28   C     C_R   0.488731 0.941081 0.373410 0.168879
C29   C     C_R   0.496964 0.872556 0.495584 -0.137752
C30   C     C_R   0.512946 0.933939 0.614234 0.015210
C31   C     C_3   0.485935 0.930901 0.752353 -0.016504
C32   C     C_3   0.493168 0.071963 0.753717 -0.472888
C33   C     C_R   0.451542 0.536781 0.067816 0.136978
C34   C     C_R   0.611071 0.500397 0.500842 0.958658
C35   C     C_R   0.549310 0.471096 0.073314 -0.136456
C36   C     C_R   0.549180 0.470274 0.929699 -0.116857
C37   C     C_R   0.452517 0.539590 0.925879 0.138819
C38   C     C_3   0.392064 0.493093 0.907313 -0.479303
C39   C     C_3   0.389299 0.484711 0.061359 0.258818
C40   C     C_R   0.877502 0.537227 0.740397 0.606793
C41   C     C_R   0.873773 0.337148 0.651819 0.674293
C42   C     C_R   0.934483 0.330973 0.640873 -0.184068
C43   C     C_R   0.967353 0.437310 0.676292 -0.123705
C44   C     C_R   0.939450 0.540314 0.736911 -0.043862
H1    H     H_    0.492076 0.120898 0.283889 0.176839
H2    H     H_    0.514510 0.882009 0.827404 0.166723
H3    H     H_    0.451481 0.125176 0.753468 0.205447
H4    H     H_    0.526187 0.104050 0.829043 0.186099
H5    H     H_    0.588763 0.445806 0.127997 0.151899
H6    H     H_    0.042064 0.150624 0.512642 0.218447
H7    H     H_    0.588508 0.444160 0.877246 0.154985
H8    H     H_    0.363719 0.565459 0.859412 0.196134
H9    H     H_    0.389965 0.402978 0.853985 0.197538
H10   H     H_    0.061580 0.717000 0.797228 0.190957
H11   H     H_    0.304904 0.652449 0.414998 0.171425
H12   H     H_    0.226965 0.281666 0.654521 0.184000
N1    N     N_R   0.847585 0.450969 0.664520 -0.331600
N2    N     N_R   0.145820 0.449127 0.592094 -0.333858
N3    N     N_R   0.499610 0.499140 0.142800 -0.113030
N4    N     N_R   0.499610 0.499180 0.857150 -0.100909
O1    O     O_R   0.500010 0.316790 0.614690 -0.621996
O2    O     O_2   0.841577 0.231819 0.653433 -0.431278
O3    O     O_2   0.138653 0.255498 0.482242 -0.548300
O4    O     O_2   0.155179 0.637544 0.711017 -0.534631
O5    O     O_R   0.500000 0.316760 0.385350 -0.628334
O6    O     O_R   0.416160 0.499980 0.614700 -0.623415
O7    O     O_R   0.416150 0.499940 0.385360 -0.633861
O8    O     O_R   0.500000 0.683240 0.614650 -0.627167
O9    O     O_R   0.499990 0.683210 0.385310 -0.615464
O10   O     O_R   0.583850 0.500060 0.614640 -0.625456
O11   O     O_R   0.583840 0.500020 0.385300 -0.626843
O12   O     O_2   0.848121 0.610015 0.826086 -0.501772
Zn1   Zn    Zn3+2 0.500000 0.500020 0.653130 0.922371
Zn2   Zn    Zn3+2 0.500000 0.499980 0.346870 0.920159
F1    F     F_    0.931968 0.122065 0.553248 -0.611860
C45   C     C_3   0.681041 0.295592 0.381882 -0.324283
C46   C     C_3   0.662986 0.188597 0.474841 -0.809848
H13   H     H_    0.631764 0.221911 0.551748 0.238428
H14   H     H_    0.641419 0.114598 0.414398 0.239178
H15   H     H_    0.701981 0.148348 0.526853 0.303800
H16   H     H_    0.642609 0.326213 0.321511 0.199225
H17   H     H_    0.712749 0.260637 0.306833 0.257424
C47   C     C_3   0.670937 0.726578 0.596573 -0.324359
C48   C     C_3   0.658759 0.798045 0.465361 -0.824877
H18   H     H_    0.700476 0.819757 0.413620 0.289137
H19   H     H_    0.630179 0.743290 0.396621 0.256409
H20   H     H_    0.636216 0.886755 0.488408 0.237928
H21   H     H_    0.629240 0.709114 0.649823 0.203348
H22   H     H_    0.696774 0.788062 0.664451 0.262778
F2    F     F_    0.790725 0.697756 0.645411 -0.638960
C49   C     C_3   0.458896 0.890792 0.247007 -0.381984
C50   C     C_3   0.394886 0.861081 0.276227 -0.867542
H23   H     H_    0.371103 0.841462 0.180969 0.247893
H24   H     H_    0.391414 0.779440 0.344913 0.250983
H25   H     H_    0.373334 0.942129 0.323549 0.267347
H26   H     H_    0.459325 0.961309 0.164337 0.189766
H27   H     H_    0.481871 0.810230 0.203201 0.227768
C51   C     C_3   0.421456 0.887723 0.754332 -0.337387
C52   C     C_3   0.396573 0.895166 0.896040 -0.920564
H28   H     H_    0.421919 0.833194 0.965129 0.252161
H29   H     H_    0.398441 0.992201 0.933624 0.272363
H30   H     H_    0.350238 0.863949 0.894663 0.264052
H31   H     H_    0.394148 0.944740 0.684245 0.213902
H32   H     H_    0.417946 0.789602 0.721436 0.227655
C53   C     C_3   0.344151 0.578985 0.115819 -0.447300
C54   C     C_3   0.280479 0.536810 0.100065 -0.805310
H33   H     H_    0.270928 0.509455 0.994130 0.264536
H34   H     H_    0.271127 0.457447 0.169076 0.257545
H35   H     H_    0.250969 0.614602 0.127081 0.281129
H36   H     H_    0.353181 0.597805 0.222969 0.234534
H37   H     H_    0.348747 0.669234 0.061577 0.200923
C55   C     C_3   0.380186 0.349017 0.114216 -0.293713
C56   C     C_3   0.426816 0.253500 0.075878 -0.926413
H38   H     H_    0.432256 0.247313 0.965174 0.249771
H39   H     H_    0.469512 0.275141 0.123367 0.282381
H40   H     H_    0.412914 0.160493 0.113088 0.242937
H41   H     H_    0.376475 0.349817 0.225181 0.226229
H42   H     H_    0.337776 0.313743 0.074035 0.205157
C57   C     C_3   0.950321 0.756586 0.852754 -0.428561
C58   C     C_3   0.924291 0.846901 0.748498 -0.590963
H43   H     H_    0.889483 0.801705 0.687508 0.313951
H44   H     H_    0.905301 0.928357 0.800650 0.262804
H45   H     H_    0.959036 0.880469 0.679480 0.255661
H46   H     H_    0.918561 0.732732 0.932580 0.266162
H47   H     H_    0.985752 0.807087 0.907469 0.198042
F3    F     F_    0.192061 0.649682 0.439469 -0.635852
C59   C     C_3   0.341697 0.255141 0.608335 -0.418302
C60   C     C_3   0.354247 0.176291 0.484693 -0.849391
H48   H     H_    0.312771 0.147426 0.434403 0.280117
H49   H     H_    0.381399 0.229031 0.412255 0.254740
H50   H     H_    0.378774 0.091762 0.515679 0.243095
H51   H     H_    0.383371 0.284307 0.656215 0.215518
H52   H     H_    0.319341 0.195154 0.683978 0.208195
F4    F     F_    0.800315 0.307260 0.439546 -0.611565

loop_
_geom_bond_atom_site_label_1
_geom_bond_atom_site_label_2
_ccdc_geom_bond_type
C53   H36   S    
C41   C42   A    
C23   O9    A    
C35   C36   A    
C48   H20   S    
C60   H48   S    
C7    C8    A    
C46   H13   S    
C26   C27   A    
C29   C30   A    
C47   C48   S    
C18   C24   A    
C5    C6    A    
C23   C29   S    
C21   C47   S    
C28   C29   A    
C10   N2    A    
C48   H19   S    
C18   C19   A    
C30   C31   S    
C38   H8    S    
C54   H33   S    
C51   H31   S    
N4    Zn1   S    
C3    C4    A    
C35   N3    A    
C9    N2    A    
C31   C51   S    
C59   H51   S    
C49   H26   S    
C11   C17   A    
C31   C32   S    
C16   C17   A    
C31   H2    S    
C35   H5    S    
C1    O5    A    
C34   O10   A    
C58   H45   S    
C17   N2    S    
C56   H40   S    
C20   C34   S    
C27   H1    S    
C25   C32   S    
C47   H21   S    
C5    C43   A    
C33   N3    A    
C15   C59   S    
C21   C22   A    
C32   H4    S    
C41   O2    S    
C55   C56   S    
C3    H6    S    
C58   H44   S    
C45   C46   S    
C46   H14   S    
C38   C39   S    
C47   H22   S    
C12   O7    A    
C8    C44   A    
C11   F3    S    
C48   H18   S    
C45   H17   S    
C49   C50   S    
C24   N1    S    
O1    Zn1   S    
O8    Zn1   S    
C57   H46   S    
O6    Zn1   S    
C12   O6    A    
C50   H25   S    
C33   C37   A    
O5    Zn2   S    
C1    O1    A    
C23   O8    A    
C43   C44   A    
C16   H12   S    
C37   C38   S    
C52   H28   S    
O10   Zn1   S    
C50   H24   S    
C22   F2    S    
O9    Zn2   S    
O7    Zn2   S    
C33   C39   S    
C49   H27   S    
N3    Zn2   S    
C36   H7    S    
C57   H47   S    
C39   C55   S    
C52   H29   S    
C12   C14   S    
C1    C26   S    
C32   H3    S    
C22   C24   A    
C42   C43   A    
C59   C60   S    
C60   H50   S    
C58   H43   S    
C56   H38   S    
C46   H15   S    
C25   C30   A    
C39   C53   S    
C19   C45   S    
C40   N1    A    
C40   O12   S    
C9    O3    S    
C10   O4    S    
C59   H52   S    
C4    C5    A    
C36   N4    A    
C60   H49   S    
C45   H16   S    
C6    C10   A    
O11   Zn2   S    
C57   C58   S    
C6    C7    A    
C53   C54   S    
C19   C20   A    
C2    C3    A    
C25   C26   A    
C41   N1    A    
C55   H42   S    
C11   C13   A    
C55   H41   S    
C38   H9    S    
C54   H34   S    
C2    C42   A    
C51   H32   S    
C50   H23   S    
C18   F4    S    
C28   C49   S    
C53   H37   S    
C37   N4    A    
C40   C44   A    
C52   H30   S    
C20   C21   A    
C51   C52   S    
C27   C28   A    
C14   C15   A    
C7    H10   S    
C13   H11   S    
C4    C9    A    
C13   C14   A    
C34   O11   A    
C2    F1    S    
C15   C16   A    
C8    C57   S    
C56   H39   S    
C54   H35   S    
