data_mof_unit_31898.cif
_audit_creation_date              2013-03-05T15:48:45-0500
_audit_creation_method            fapswitch 2.2
_symmetry_space_group_name_H-M    P1
_symmetry_Int_Tables_number       1
_space_group_crystal_system       triclinic
_cell_length_a                    10.79521
_cell_length_b                    13.001837
_cell_length_c                    11.791823
_cell_angle_alpha                 99.340694
_cell_angle_beta                  92.791137
_cell_angle_gamma                 93.170133
_cell_volume                      1627.83129414

loop_
_atom_site_label
_atom_site_type_symbol
_atom_site_description
_atom_site_fract_x
_atom_site_fract_y
_atom_site_fract_z
_atom_type_partial_charge
O1    O     O_R   0.506640 0.354460 0.582000 -0.554290
O2    O     O_R   0.490840 0.341410 0.386200 -0.566329
C1    C     C_R   0.499019 0.299493 0.478871 0.883853
O3    O     O_R   0.325590 0.506510 0.597900 -0.540899
O4    O     O_R   0.309790 0.493450 0.402100 -0.580296
C2    C     C_R   0.260114 0.494666 0.500227 0.880188
Cu1   Cu    Cu3+1 0.509350 0.507730 0.615930 1.071152
Cu2   Cu    Cu3+1 0.490650 0.492270 0.384070 1.061644
O5    O     O_R   0.509160 0.658590 0.613800 -0.584005
O6    O     O_R   0.493360 0.645540 0.418000 -0.570882
O7    O     O_R   0.690210 0.506550 0.597900 -0.558573
O8    O     O_R   0.674410 0.493490 0.402100 -0.530068
C3    C     C_R   0.502091 0.700551 0.521113 0.882553
C4    C     C_R   0.739218 0.494921 0.498067 0.898068
C5    C     C_3   0.071091 0.425855 0.589981 0.118088
H1    H     H_    0.118647 0.452151 0.676051 0.206658
C6    C     C_3   0.929606 0.441247 0.599732 0.028983
H2    H     H_    0.919453 0.495465 0.680983 0.215787
C7    C     C_3   0.080552 0.606261 0.521369 0.041151
C8    C     C_3   0.063038 0.438729 0.380114 -0.404136
C9    C     C_3   0.122036 0.491435 0.500359 -0.205832
H3    H     H_    0.087746 0.488368 0.314970 0.232159
H4    H     H_    0.100630 0.361962 0.351161 0.260916
C10   C     C_3   0.876971 0.491479 0.495683 -0.207333
C11   C     C_3   0.936450 0.605460 0.503202 0.067721
C12   C     C_3   0.920566 0.423037 0.383161 0.071272
H5    H     H_    0.895652 0.339505 0.386701 0.214931
H6    H     H_    0.119435 0.645663 0.452293 0.121496
H7    H     H_    0.917667 0.626972 0.416464 0.175335
C13   C     C_R   0.505697 0.814040 0.533192 -0.091144
C14   C     C_R   0.500667 0.186229 0.466521 -0.115129
C15   C     C_R   0.491979 0.016600 0.344190 0.347251
C16   C     C_R   0.490369 0.124838 0.357065 -0.176222
C17   C     C_R   0.514507 0.139586 0.564506 -0.108456
C18   C     C_R   0.514435 0.031446 0.554914 0.036996
C19   C     C_R   0.501117 0.969020 0.443712 0.002499
C20   C     C_R   0.493712 0.860633 0.434935 -0.137123
C21   C     C_R   0.522306 0.875899 0.642248 -0.108495
C22   C     C_R   0.525811 0.984039 0.654031 0.300774
H8    H     H_    0.476517 0.811721 0.351759 0.217076
H9    H     H_    0.531852 0.840357 0.718924 0.196173
H10   H     H_    0.483550 0.160997 0.280700 0.224690
H11   H     H_    0.524618 0.188287 0.648274 0.226820
N1    N     N_R   0.523430 0.519360 0.790130 -0.217513
N2    N     N_R   0.476570 0.480640 0.209880 -0.239174
C23   C     C_R   0.387768 0.396809 0.024587 -0.227959
C24   C     C_R   0.396857 0.406234 0.144085 0.411290
C25   C     C_R   0.549330 0.547348 0.155544 0.423889
C26   C     C_R   0.542194 0.539373 0.032987 -0.026901
C27   C     C_R   0.459973 0.462816 0.967168 -0.069909
C28   C     C_R   0.451788 0.453885 0.845324 0.450112
C29   C     C_R   0.603588 0.593834 0.853173 0.071054
C30   C     C_R   0.614523 0.605217 0.973823 -0.173493
H12   H     H_    0.659266 0.645409 0.809811 0.186592
H13   H     H_    0.323114 0.336377 0.978344 0.236220
H14   H     H_    0.679685 0.665940 0.018885 0.220185
Br1   Br    Br    0.850267 0.443397 0.232902 -0.403148
N3    N     N_R   0.486828 0.957185 0.229884 0.124199
O9    O     O_R   0.413994 0.983172 0.149348 -0.267063
O10   O     O_R   0.571420 0.891880 0.200889 -0.302667
Br2   Br    Br    0.545743 0.061643 0.808020 -0.325201
Br3   Br    Br    0.338460 0.348052 0.758901 -0.411516
Br4   Br    Br    0.110548 0.278207 0.549270 -0.342530
Br5   Br    Br    0.292987 0.308429 0.206877 -0.421024
Br6   Br    Br    0.663979 0.653227 0.243275 -0.373491
Br7   Br    Br    0.831872 0.314338 0.622680 -0.385486
N4    N     N_R   0.131234 0.667242 0.631741 0.183438
O11   O     O_R   0.110126 0.637814 0.729668 -0.299958
O12   O     O_R   0.202298 0.751399 0.631673 -0.311931
N5    N     N_R   0.880308 0.684650 0.585580 0.162432
O13   O     O_R   0.871727 0.675267 0.693082 -0.309736
O14   O     O_R   0.831898 0.763568 0.548977 -0.305726

loop_
_geom_bond_atom_site_label_1
_geom_bond_atom_site_label_2
_geom_bond_distance
_ccdc_geom_bond_type
C23   H13   1.079374 S    
O4    Cu2   1.974859 S    
C18   C22   1.410413 A    
C10   C11   1.569362 S    
C14   C16   1.398972 A    
C7    N4    1.472943 S    
N5    O13   1.300296 A    
C17   C18   1.392104 A    
C25   Br6   1.929168 S    
C23   C27   1.403047 A    
C18   C19   1.422022 A    
C8    H4    1.106870 S    
C15   N3    1.437563 S    
Cu2   O8    1.983677 S    
C15   C16   1.391920 A    
N1    C29   1.360160 A    
C6    H2    1.107448 S    
C6    Br7   1.972106 S    
C14   C17   1.394907 A    
Cu1   Cu2   2.705469 S    
O7    C4    1.303954 A    
O1    Cu1   1.966150 S    
Cu1   N1    2.032648 S    
C8    C9    1.560148 S    
C1    C14   1.457299 S    
C7    H6    1.116718 S    
N4    O12   1.301262 A    
C10   C12   1.580413 S    
C12   H5    1.112264 S    
C21   C22   1.388455 A    
C28   Br3   1.914648 S    
C8    C12   1.543196 S    
O3    Cu1   1.983678 S    
C26   C30   1.415005 A    
C16   H10   1.082645 S    
C15   C19   1.414486 A    
N1    C28   1.379298 A    
O3    C2    1.304199 A    
C19   C20   1.393699 A    
C7    C9    1.567013 S    
O8    C4    1.298080 A    
Cu1   O7    1.974860 S    
C20   H8    1.080547 S    
O2    C1    1.299307 A    
N2    C24   1.370243 A    
C11   H7    1.115529 S    
O4    C2    1.296970 A    
C22   Br2   1.924770 S    
C12   Br1   1.956749 S    
C30   H14   1.080045 S    
C6    C10   1.577354 S    
N5    O14   1.301285 A    
C8    H3    1.113375 S    
C7    C11   1.559145 S    
N3    O10   1.301419 A    
N4    O11   1.300439 A    
C3    C13   1.457388 S    
C5    C9    1.563197 S    
C29   C30   1.404713 A    
C13   C21   1.399489 A    
C21   H9    1.083263 S    
Cu2   O6    1.966150 S    
C26   C27   1.401926 A    
C23   C24   1.392600 A    
N2    C25   1.390600 A    
C4    C10   1.491719 S    
C24   Br5   1.910873 S    
Cu1   O5    1.965803 S    
C5    Br4   1.976942 S    
Cu2   N2    2.032533 S    
C25   C26   1.429986 A    
O5    C3    1.299246 A    
C11   N5    1.474015 S    
C27   C28   1.420544 A    
N3    O9    1.301936 A    
C5    C6    1.558704 S    
C2    C9    1.488929 S    
O2    Cu2   1.965803 S    
C17   H11   1.080453 S    
C5    H1    1.108022 S    
C13   C20   1.395739 A    
C29   H12   1.081217 S    
O1    C1    1.303073 A    
O6    C3    1.303050 A    
