data_mof_unit_46378.cif
_audit_creation_date              2013-03-05T16:03:51-0500
_audit_creation_method            fapswitch 2.2
_symmetry_space_group_name_H-M    P1
_symmetry_Int_Tables_number       1
_space_group_crystal_system       triclinic
_cell_length_a                    6.932084
_cell_length_b                    17.770934
_cell_length_c                    19.428279
_cell_angle_alpha                 109.078851
_cell_angle_beta                  90.036984
_cell_angle_gamma                 90.540422
_cell_volume                      2261.77557862

loop_
_atom_site_label
_atom_site_type_symbol
_atom_site_description
_atom_site_fract_x
_atom_site_fract_y
_atom_site_fract_z
_atom_type_partial_charge
O1    O     O_R   0.505700 0.440210 0.561730 -0.600835
O2    O     O_R   0.169350 0.406300 0.412660 -0.591082
O3    O     O_R   0.005650 0.559790 0.438270 -0.598962
C1    C     C_R   0.338482 0.383028 0.385016 0.942623
O4    O     O_R   0.175560 0.430650 0.559600 -0.600682
O5    O     O_R   0.011900 0.584320 0.586250 -0.583207
C2    C     C_R   0.344262 0.416384 0.581774 0.918179
O6    O     O_R   0.499450 0.415680 0.413750 -0.586690
O7    O     O_3   0.341370 0.550390 0.508570 -0.269311
V1    V     V_3+5 0.063940 0.490650 0.498410 1.157981
O8    O     O_R   0.682570 0.593700 0.587340 -0.592008
C3    C     C_R   0.851544 0.615482 0.615650 0.937498
O9    O     O_R   0.676370 0.569350 0.440400 -0.599229
C4    C     C_R   0.845554 0.584369 0.418833 0.916540
V2    V     V_3+5 0.564750 0.509350 0.501590 1.160274
O10   O     O_3   0.837190 0.449610 0.491430 -0.273884
C5    C     C_R   0.036918 0.679169 0.282800 -0.128226
H1    H     H_    0.167652 0.676348 0.251672 0.115797
C6    C     C_R   0.026020 0.634104 0.329848 -0.165147
H2    H     H_    0.149290 0.598838 0.334058 0.126581
C7    C     C_R   0.857305 0.633352 0.369801 -0.126260
C8    C     C_R   0.700131 0.679291 0.361864 -0.154546
H3    H     H_    0.568397 0.680502 0.392140 0.130356
C9    C     C_R   0.711920 0.725291 0.315567 -0.154182
H4    H     H_    0.589371 0.761328 0.312428 0.097939
C10   C     C_R   0.880325 0.725767 0.275055 0.112635
C11   C     C_R   0.728000 0.787082 0.187852 -0.107890
H5    H     H_    0.590237 0.760617 0.193563 0.105601
C12   C     C_R   0.739163 0.833043 0.141568 -0.113517
H6    H     H_    0.609360 0.841355 0.113950 0.129794
C13   C     C_R   0.915796 0.866685 0.130179 -0.103320
C14   C     C_R   0.080738 0.853677 0.166748 -0.102584
H7    H     H_    0.218805 0.879282 0.159817 0.112318
C15   C     C_R   0.069102 0.808649 0.213862 -0.128502
H8    H     H_    0.198514 0.801858 0.242375 0.088736
C16   C     C_R   0.892611 0.774391 0.225034 0.110216
C17   C     C_R   0.925658 0.904733 0.737739 0.342029
C18   C     C_R   0.887786 0.916222 0.671206 -0.170048
C19   C     C_R   0.833683 0.852760 0.610701 -0.168625
C20   C     C_R   0.825021 0.776385 0.615047 -0.153167
C21   C     C_R   0.860148 0.762528 0.681643 0.106886
C22   C     C_R   0.898081 0.828460 0.745806 -0.049228
C23   C     C_R   0.863079 0.683988 0.684212 -0.268125
C24   C     C_R   0.887031 0.670936 0.751762 0.142041
C25   C     C_R   0.907500 0.736612 0.817112 0.084097
C26   C     C_R   0.911248 0.815660 0.814615 -0.284634
C27   C     C_R   0.887570 0.592915 0.755580 -0.240118
C28   C     C_R   0.907333 0.579615 0.821950 -0.223108
C29   C     C_R   0.927019 0.643514 0.886798 0.425586
C30   C     C_R   0.926386 0.721489 0.884010 -0.311616
H9    H     H_    0.908183 0.974522 0.665755 0.142588
H10   H     H_    0.806704 0.862224 0.559262 0.138260
H11   H     H_    0.790742 0.728398 0.565472 0.107351
H12   H     H_    0.871726 0.541173 0.707296 0.123679
H13   H     H_    0.907139 0.518848 0.822398 0.168988
H14   H     H_    0.941954 0.770174 0.934626 0.140106
H15   H     H_    0.063694 0.449206 0.178982 0.134916
C31   C     C_R   0.511262 0.234504 0.383546 -0.145444
C32   C     C_R   0.604789 0.165818 0.384550 -0.111860
C33   C     C_R   0.637640 0.104311 0.319949 -0.120402
C34   C     C_R   0.576989 0.110932 0.253817 -0.177996
C35   C     C_R   0.483357 0.180274 0.250846 0.118434
C36   C     C_R   0.449905 0.243567 0.317189 0.118878
C37   C     C_R   0.419542 0.186465 0.183531 -0.308127
C38   C     C_R   0.322974 0.256455 0.182871 0.121529
C39   C     C_R   0.289480 0.319739 0.249217 0.119273
C40   C     C_R   0.353303 0.313554 0.316542 -0.319776
C41   C     C_R   0.261663 0.265525 0.116505 -0.152278
C42   C     C_R   0.168252 0.334234 0.115492 -0.097897
C43   C     C_R   0.135340 0.395732 0.180101 -0.100686
C44   C     C_R   0.195801 0.389064 0.246241 -0.182346
H16   H     H_    0.485658 0.279814 0.435490 0.103073
H17   H     H_    0.650748 0.160071 0.435854 0.115351
H18   H     H_    0.709363 0.050861 0.321081 0.116085
H19   H     H_    0.603963 0.060888 0.205329 0.117477
H20   H     H_    0.287222 0.220209 0.064562 0.090376
H21   H     H_    0.122409 0.339990 0.064175 0.129035
H22   H     H_    0.168642 0.439045 0.294741 0.117376
C45   C     C_R   0.531588 0.330773 0.724096 -0.143934
H23   H     H_    0.661235 0.336837 0.756585 0.109857
C46   C     C_R   0.521460 0.373096 0.674853 -0.142736
H24   H     H_    0.644127 0.409480 0.670537 0.124038
C47   C     C_R   0.354341 0.369863 0.632887 -0.127380
C48   C     C_R   0.197345 0.323107 0.641431 -0.165489
H25   H     H_    0.066501 0.319222 0.609901 0.129224
C49   C     C_R   0.208659 0.279519 0.689814 -0.142422
H26   H     H_    0.086793 0.242344 0.693065 0.104493
C50   C     C_R   0.376131 0.282614 0.731985 0.116606
C51   C     C_R   0.225392 0.218674 0.818357 -0.151350
H27   H     H_    0.086136 0.242310 0.811413 0.102475
C52   C     C_R   0.238277 0.171981 0.863989 -0.063948
H28   H     H_    0.108585 0.160985 0.890306 0.153514
C53   C     C_R   0.416004 0.140544 0.875960 -0.128226
C54   C     C_R   0.581498 0.160297 0.843593 -0.133554
H29   H     H_    0.721601 0.140313 0.853664 0.180080
C55   C     C_R   0.568569 0.205640 0.796919 -0.148949
H30   H     H_    0.699118 0.216135 0.770799 0.101350
C56   C     C_R   0.389990 0.235180 0.783022 0.112564
O11   O     O_R   0.273230 0.084330 0.086440 -0.601659
O12   O     O_R   0.596660 0.069390 0.940470 -0.580621
O13   O     O_R   0.760270 0.915710 0.913690 -0.573858
C57   C     C_R   0.427388 0.087123 0.921280 0.985669
O14   O     O_R   0.603330 0.093680 0.087390 -0.599607
O15   O     O_R   0.766990 0.940160 0.061660 -0.611937
C58   C     C_R   0.434257 0.116982 0.115084 0.915968
O16   O     O_R   0.266510 0.059870 0.938470 -0.551618
O17   O     O_3   0.431050 0.949630 0.991510 -0.274780
V3    V     V_3+5 0.708490 0.009340 0.001580 1.204055
O18   O     O_R   0.096270 0.930570 0.059390 -0.601162
C59   C     C_R   0.927174 0.915635 0.081096 0.901303
O19   O     O_R   0.089600 0.906290 0.912460 -0.566785
C60   C     C_R   0.920672 0.883969 0.884100 1.033814
V4    V     V_3+5 0.207670 0.990600 0.998190 1.219441
O20   O     O_3   0.935250 0.050360 0.008480 -0.260969
N1    N     N_R   0.022885 0.967648 0.791772 0.209287
O21   O     O_R   0.924060 0.025623 0.834951 -0.456650
O22   O     O_R   0.208182 0.976121 0.786082 -0.424868
N2    N     N_R   0.948422 0.629271 0.955261 0.238973
O23   O     O_R   0.942232 0.557103 0.958067 -0.400701
O24   O     O_R   0.976300 0.688168 0.015363 -0.410447

loop_
_geom_bond_atom_site_label_1
_geom_bond_atom_site_label_2
_geom_bond_distance
_ccdc_geom_bond_type
C28   H13   1.082751 S    
C2    C47   1.487326 S    
C53   C54   1.404423 A    
C26   C60   1.492438 S    
C11   C12   1.400251 A    
C21   C22   1.426481 A    
C42   H21   1.082734 S    
C6    H2    1.083137 S    
C1    O6    1.291766 A    
C46   H24   1.083202 S    
C37   C58   1.494182 S    
C25   C26   1.421353 A    
C34   H19   1.081193 S    
O13   C60   1.298340 A    
C35   C36   1.427505 A    
C5    C10   1.408865 A    
C4    C7    1.487503 S    
C6    C7    1.406486 A    
C17   C18   1.398062 A    
C48   C49   1.402430 A    
C3    C23   1.483477 S    
C42   C43   1.389361 A    
O5    C3    1.293926 A    
C18   C19   1.385322 A    
C49   C50   1.410723 A    
V2    O10   2.152688 S    
C15   H8    1.082264 S    
C22   C26   1.430477 A    
V3    O20   1.713043 S    
C17   C22   1.425604 A    
N2    O23   1.301646 A    
O17   V4    1.704262 S    
C35   C37   1.418602 A    
O8    V2    2.008001 S    
C47   C48   1.405595 A    
C41   C42   1.393265 A    
N1    O22   1.300859 A    
C55   C56   1.409040 A    
O17   V3    2.165262 S    
C57   O16   1.298396 A    
C43   C44   1.393071 A    
O1    V2    1.993005 S    
H15   C43   1.082857 S    
C51   C52   1.401678 A    
O7    V1    2.165319 S    
C32   H17   1.082677 S    
C24   C27   1.412538 A    
O18   V4    1.990727 S    
O13   V3    1.991931 S    
C39   C40   1.418764 A    
C32   C33   1.389248 A    
O9    C4    1.300035 A    
C21   C23   1.413150 A    
C54   H29   1.076723 S    
C45   C50   1.409182 A    
C46   C47   1.406083 A    
O11   C58   1.291623 A    
C36   C40   1.421750 A    
O12   V3    1.998009 S    
O16   V4    1.988154 S    
C27   C28   1.391738 A    
C9    H4    1.082246 S    
O19   V4    2.008128 S    
C52   H28   1.081878 S    
C45   C46   1.399007 A    
C49   H26   1.082098 S    
C18   H9    1.083332 S    
C31   C32   1.393236 A    
C30   H14   1.081261 S    
C33   C34   1.393013 A    
C14   C15   1.400848 A    
O2    C1    1.303399 A    
C23   C24   1.415336 A    
O5    V1    1.992098 S    
C12   H6    1.083086 S    
C52   C53   1.407699 A    
C39   C44   1.415781 A    
C38   C41   1.416180 A    
C55   H30   1.081930 S    
O12   C57   1.303227 A    
C5    H1    1.082261 S    
O14   C58   1.303432 A    
C48   H25   1.083118 S    
C54   C55   1.399486 A    
O14   V3    1.986416 S    
O3    C4    1.296719 A    
C27   H12   1.082405 S    
C10   C16   1.498685 S    
C20   C21   1.415278 A    
C20   H11   1.081795 S    
O6    V2    2.003969 S    
O9    V2    1.990772 S    
C8    C9    1.401249 A    
O2    V1    1.986462 S    
O15   V3    1.996309 S    
C24   C25   1.422051 A    
O4    C2    1.301474 A    
V4    O20   2.152560 S    
C31   C36   1.416052 A    
C28   C29   1.398917 A    
O19   C60   1.296048 A    
O1    C2    1.297206 A    
C13   C14   1.406015 A    
C9    C10   1.409869 A    
C53   C57   1.493499 S    
O11   V4    2.009575 S    
C1    C40   1.494473 S    
O8    C3    1.294540 A    
C17   N1    1.422634 S    
C11   C16   1.408938 A    
C41   H20   1.081643 S    
C51   C56   1.409103 A    
C14   H7    1.083155 S    
O7    V2    1.704415 S    
O4    V1    1.997982 S    
C12   C13   1.406641 A    
O3    V1    1.996347 S    
V1    O10   1.713024 S    
O18   C59   1.300101 A    
C37   C38   1.421763 A    
O15   C59   1.296815 A    
C31   H16   1.081665 S    
C25   C30   1.416817 A    
C33   H18   1.082809 S    
C5    C6    1.400027 A    
C13   C59   1.487731 S    
C19   H10   1.082711 S    
C15   C16   1.409694 A    
C38   C39   1.427507 A    
C34   C35   1.415864 A    
N2    O24   1.301234 A    
C45   H23   1.082000 S    
C19   C20   1.387902 A    
C29   N2    1.440776 S    
C29   C30   1.404390 A    
C11   H5    1.082260 S    
C8    H3    1.083130 S    
C51   H27   1.082135 S    
C7    C8    1.405784 A    
C44   H22   1.080965 S    
C50   C56   1.500276 S    
N1    O21   1.297518 A    
