data_mof_unit_24972.cif
_audit_creation_date              2012-12-11T15:54:47-0500
_audit_creation_method            fapswitch 2.2
_symmetry_space_group_name_H-M    P1
_symmetry_Int_Tables_number       1
_space_group_crystal_system       triclinic
_cell_length_a                    17.512061
_cell_length_b                    24.402888
_cell_length_c                    14.941503
_cell_angle_alpha                 89.999794
_cell_angle_beta                  125.740518
_cell_angle_gamma                 90.000133
_cell_volume                      5182.6588433

loop_
_atom_site_label
_atom_site_type_symbol
_atom_type_description
_atom_site_fract_x
_atom_site_fract_y
_atom_site_fract_z
_atom_type_partial_charge
C1    C     C_R   0.903842 0.875863 0.093839 -0.141356
C2    C     C_R   0.903842 0.124137 0.093839 -0.141357
C3    C     C_R   0.403841 0.375864 0.093839 -0.141355
C4    C     C_R   0.403842 0.624137 0.093839 -0.141359
C5    C     C_R   0.057323 0.848043 0.908127 -0.136639
C6    C     C_R   0.057323 0.151957 0.908127 -0.136640
C7    C     C_R   0.557326 0.348045 0.908126 -0.136630
C8    C     C_R   0.557320 0.651958 0.908128 -0.136649
C9    C     C_R   0.147046 0.152391 0.091464 -0.141127
C10   C     C_R   0.147046 0.847609 0.091464 -0.141129
C11   C     C_R   0.647045 0.652391 0.091465 -0.141127
C12   C     C_R   0.647047 0.347610 0.091464 -0.141129
C13   C     C_R   0.324014 0.999998 0.273226 -0.011176
C14   C     C_R   0.824014 0.500000 0.273226 -0.011177
C15   C     C_R   0.051352 1.000000 0.727183 -0.008536
C16   C     C_R   0.551349 0.500007 0.727179 -0.008533
C17   C     C_R   0.118406 0.816555 0.999696 -0.005498
C18   C     C_R   0.118406 0.183445 0.999696 -0.005499
C19   C     C_R   0.618409 0.316556 0.999695 -0.005504
C20   C     C_R   0.618403 0.683446 0.999697 -0.005494
C21   C     C_3   0.123172 0.051500 0.542601 -0.398483
C22   C     C_3   0.968756 0.999999 0.430784 -0.394698
C23   C     C_3   0.623025 0.551560 0.542494 -0.398523
C24   C     C_3   0.468758 0.499910 0.430782 -0.394679
C25   C     C_3   0.118933 0.051402 0.642608 -0.393667
C26   C     C_3   0.964113 0.999998 0.529151 -0.391887
C27   C     C_3   0.618781 0.551465 0.642494 -0.393703
C28   C     C_3   0.464111 0.499912 0.529147 -0.391903
C29   C     C_3   0.123173 0.948500 0.542602 -0.398484
C30   C     C_3   0.623323 0.448561 0.542713 -0.398447
C31   C     C_3   0.072329 1.000000 0.470195 0.390516
C32   C     C_3   0.572331 0.500009 0.470195 0.390520
C33   C     C_3   0.064540 1.000000 0.638564 0.384842
C34   C     C_3   0.564537 0.500012 0.638560 0.384843
C35   C     C_R   0.810122 0.124179 0.908620 -0.124714
C36   C     C_R   0.810122 0.875821 0.908620 -0.124714
C37   C     C_R   0.310123 0.624179 0.908620 -0.124713
C38   C     C_R   0.310122 0.375822 0.908620 -0.124715
C39   C     C_3   0.118938 0.948599 0.642613 -0.393663
C40   C     C_3   0.619079 0.448661 0.642721 -0.393630
C41   C     C_3   0.653479 0.168153 0.933156 -0.478288
C42   C     C_3   0.653479 0.831850 0.933164 -0.478288
C43   C     C_3   0.153479 0.668152 0.933160 -0.478289
C44   C     C_3   0.153478 0.331849 0.933158 -0.478288
C45   C     C_3   0.096119 0.717376 0.931409 -0.177332
C46   C     C_3   0.096118 0.282624 0.931408 -0.177334
C47   C     C_3   0.596119 0.217379 0.931402 -0.177330
C48   C     C_3   0.596118 0.782625 0.931412 -0.177332
C49   C     C_3   0.274259 0.734277 0.952992 -0.357137
C50   C     C_3   0.274260 0.265724 0.952995 -0.357140
C51   C     C_3   0.774263 0.234277 0.952997 -0.357135
C52   C     C_3   0.774254 0.765724 0.952990 -0.357140
C53   C     C_3   0.791682 0.196775 0.121771 -0.406509
C54   C     C_3   0.791685 0.803223 0.121773 -0.406505
C55   C     C_3   0.291685 0.696777 0.121772 -0.406506
C56   C     C_3   0.291682 0.303225 0.121772 -0.406508
C57   C     C_3   0.759290 0.183085 0.002880 0.373800
C58   C     C_3   0.759288 0.816915 0.002881 0.373801
C59   C     C_3   0.259290 0.683086 0.002880 0.373800
C60   C     C_3   0.259288 0.316916 0.002881 0.373804
C61   C     C_3   0.164937 0.766277 0.999652 0.281853
C62   C     C_3   0.164936 0.233723 0.999652 0.281853
C63   C     C_3   0.664938 0.266278 0.999651 0.281852
C64   C     C_3   0.664935 0.733724 0.999653 0.281854
C65   C     C_3   0.221635 0.783215 0.954394 -0.377396
C66   C     C_3   0.221636 0.216786 0.954396 -0.377398
C67   C     C_3   0.721642 0.283216 0.954400 -0.377394
C68   C     C_3   0.721631 0.716786 0.954393 -0.377396
C69   C     C_3   0.236101 0.745322 0.119891 -0.414942
C70   C     C_3   0.236099 0.254679 0.119890 -0.414940
C71   C     C_3   0.736098 0.245321 0.119889 -0.414942
C72   C     C_3   0.736101 0.754678 0.119892 -0.414944
C73   C     C_3   0.475979 0.948596 0.358704 -0.401364
C74   C     C_3   0.475988 0.051387 0.358675 -0.401365
C75   C     C_3   0.975984 0.448604 0.358690 -0.401365
C76   C     C_3   0.975984 0.551396 0.358690 -0.401363
C77   C     C_R   0.744331 0.954327 0.695396 -0.149759
C78   C     C_R   0.744329 0.045673 0.695397 -0.149747
C79   C     C_R   0.244330 0.454327 0.695396 -0.149752
C80   C     C_R   0.244330 0.545673 0.695397 -0.149753
C81   C     C_3   0.579735 0.948481 0.459099 -0.402494
C82   C     C_3   0.579756 0.051491 0.459045 -0.402472
C83   C     C_3   0.079746 0.448495 0.459072 -0.402484
C84   C     C_3   0.079746 0.551505 0.459072 -0.402483
C85   C     C_3   0.433640 0.000010 0.471551 -0.389718
C86   C     C_3   0.933640 0.500000 0.471551 -0.389718
C87   C     C_3   0.425450 0.999998 0.362370 0.395558
C88   C     C_3   0.925450 0.500000 0.362370 0.395558
C89   C     C_3   0.600868 0.999999 0.531405 0.397164
C90   C     C_3   0.100868 0.500000 0.531405 0.397165
C91   C     C_3   0.536268 0.000024 0.570340 -0.392709
C92   C     C_3   0.036269 0.500000 0.570340 -0.392709
C93   C     C_R   0.050955 0.045587 0.305666 -0.150648
C94   C     C_R   0.050955 0.954412 0.305666 -0.150651
C95   C     C_R   0.550961 0.545590 0.305664 -0.150652
C96   C     C_R   0.550954 0.454415 0.305670 -0.150645
C97   C     C_R   0.815962 0.861054 0.002278 -0.002297
C98   C     C_R   0.815962 0.138946 0.002278 -0.002295
C99   C     C_R   0.315961 0.361055 0.002278 -0.002297
C100  C     C_R   0.315962 0.638946 0.002278 -0.002295
C101  C     C_R   0.697463 1.000000 0.632291 -0.008873
C102  C     C_R   0.197464 0.500000 0.632291 -0.008872
C103  C     C_R   0.068494 1.000000 0.369423 -0.003279
C104  C     C_R   0.568499 0.500005 0.369425 -0.003281
C105  C     C_R   0.267790 0.953982 0.247068 -0.136709
C106  C     C_R   0.267791 0.046016 0.247067 -0.136720
C107  C     C_R   0.767791 0.453983 0.247068 -0.136711
C108  C     C_R   0.767791 0.546017 0.247068 -0.136715
C109  C     C_R   0.020913 0.045972 0.752957 -0.139872
C110  C     C_R   0.020912 0.954027 0.752957 -0.139870
C111  C     C_R   0.520909 0.545976 0.752958 -0.139867
C112  C     C_R   0.520913 0.454031 0.752952 -0.139881
H1    H     H_    0.933510 0.869760 0.179776 0.093114
H2    H     H_    0.933510 0.130240 0.179775 0.093114
H3    H     H_    0.433510 0.369761 0.179776 0.093112
H4    H     H_    0.433510 0.630240 0.179776 0.093115
H5    H     H_    0.089061 0.089724 0.495225 0.150672
H6    H     H_    0.931264 0.036783 0.379015 0.155121
H7    H     H_    0.588803 0.589750 0.495040 0.150670
H8    H     H_    0.431158 0.536654 0.378929 0.155130
H9    H     H_    0.083849 0.089836 0.640122 0.155562
H10   H     H_    0.924181 0.036754 0.524448 0.156473
H11   H     H_    0.583579 0.589867 0.639904 0.155570
H12   H     H_    0.424078 0.536632 0.524371 0.156481
H13   H     H_    0.197718 0.947828 0.570916 0.158135
H14   H     H_    0.089062 0.910276 0.495228 0.150673
H15   H     H_    0.697874 0.447964 0.571038 0.158125
H16   H     H_    0.589333 0.410302 0.495418 0.150674
H17   H     H_    0.191386 0.948344 0.720422 0.158874
H18   H     H_    0.083860 0.910163 0.640134 0.155561
H19   H     H_    0.691527 0.448481 0.720532 0.158859
H20   H     H_    0.584113 0.410194 0.640334 0.155555
H21   H     H_    0.629269 0.156254 0.848464 0.171441
H22   H     H_    0.629266 0.843749 0.848471 0.171444
H23   H     H_    0.129268 0.656254 0.848468 0.171444
H24   H     H_    0.129267 0.343747 0.848466 0.171444
H25   H     H_    0.642751 0.131681 0.969369 0.151919
H26   H     H_    0.642756 0.868322 0.969382 0.151918
H27   H     H_    0.142755 0.631679 0.969375 0.151917
H28   H     H_    0.142752 0.368321 0.969371 0.151918
H29   H     H_    0.564233 0.204332 0.974258 0.112905
H30   H     H_    0.564238 0.795672 0.974275 0.112904
H31   H     H_    0.064239 0.704329 0.974271 0.112905
H32   H     H_    0.064236 0.295671 0.974268 0.112906
H33   H     H_    0.752876 0.132021 0.823660 0.097320
H34   H     H_    0.752875 0.867979 0.823660 0.097321
H35   H     H_    0.252876 0.632022 0.823659 0.097320
H36   H     H_    0.252875 0.367979 0.823660 0.097321
H37   H     H_    0.175203 0.800499 0.869777 0.185253
H38   H     H_    0.175204 0.199502 0.869779 0.185253
H39   H     H_    0.675214 0.300502 0.869785 0.185252
H40   H     H_    0.675198 0.699502 0.869776 0.185253
H41   H     H_    0.867342 0.208476 0.174492 0.153043
H42   H     H_    0.867345 0.791521 0.174489 0.153043
H43   H     H_    0.367345 0.708478 0.174490 0.153042
H44   H     H_    0.367342 0.291524 0.174492 0.153042
H45   H     H_    0.782220 0.160600 0.159794 0.155162
H46   H     H_    0.782229 0.839397 0.159802 0.155161
H47   H     H_    0.282226 0.660602 0.159798 0.155162
H48   H     H_    0.282221 0.339399 0.159797 0.155162
H49   H     H_    0.698481 0.233079 0.156365 0.154284
H50   H     H_    0.698490 0.766919 0.156375 0.154282
H51   H     H_    0.198489 0.733081 0.156372 0.154282
H52   H     H_    0.198486 0.266919 0.156371 0.154282
H53   H     H_    0.287498 0.777990 0.172966 0.160084
H54   H     H_    0.287496 0.222011 0.172967 0.160083
H55   H     H_    0.787495 0.277988 0.172969 0.160083
H56   H     H_    0.787497 0.722009 0.172966 0.160084
H57   H     H_    0.350579 0.744300 0.000414 0.159222
H58   H     H_    0.350580 0.255701 0.000418 0.159219
H59   H     H_    0.850584 0.244299 0.000420 0.159220
H60   H     H_    0.850574 0.755700 0.000408 0.159222
H61   H     H_    0.273118 0.815954 0.007165 0.156267
H62   H     H_    0.273118 0.184047 0.007168 0.156266
H63   H     H_    0.773127 0.315953 0.007176 0.156267
H64   H     H_    0.773114 0.684047 0.007163 0.156266
H65   H     H_    0.443193 0.910180 0.360936 0.148602
H66   H     H_    0.443221 0.089809 0.360920 0.148616
H67   H     H_    0.943207 0.410186 0.360928 0.148610
H68   H     H_    0.943207 0.589814 0.360928 0.148609
H69   H     H_    0.471266 0.948332 0.281142 0.154277
H70   H     H_    0.471248 0.051643 0.281096 0.154263
H71   H     H_    0.971257 0.448344 0.281119 0.154271
H72   H     H_    0.971256 0.551656 0.281118 0.154270
H73   H     H_    0.626366 0.947749 0.431213 0.152904
H74   H     H_    0.626365 0.052175 0.431127 0.152917
H75   H     H_    0.126365 0.447787 0.431170 0.152913
H76   H     H_    0.126365 0.552213 0.431169 0.152910
H77   H     H_    0.731353 0.911991 0.669541 0.092288
H78   H     H_    0.731344 0.088009 0.669543 0.092280
H79   H     H_    0.231349 0.411991 0.669542 0.092284
H80   H     H_    0.231348 0.588009 0.669542 0.092283
H81   H     H_    0.592591 0.910279 0.506443 0.152085
H82   H     H_    0.592659 0.089712 0.506354 0.152057
H83   H     H_    0.092625 0.410284 0.506399 0.152071
H84   H     H_    0.092626 0.589717 0.506398 0.152070
H85   H     H_    0.398266 0.963254 0.476015 0.158013
H86   H     H_    0.398245 0.036765 0.475982 0.158000
H87   H     H_    0.898256 0.463244 0.475999 0.158008
H88   H     H_    0.898256 0.536755 0.475999 0.158006
H89   H     H_    0.550241 0.963253 0.622085 0.158862
H90   H     H_    0.550233 0.036824 0.622012 0.158869
H91   H     H_    0.050238 0.463214 0.622049 0.158866
H92   H     H_    0.050237 0.536786 0.622048 0.158865
H93   H     H_    0.064677 0.087866 0.331859 0.086705
H94   H     H_    0.064678 0.912133 0.331860 0.086706
H95   H     H_    0.564697 0.587870 0.331852 0.086713
H96   H     H_    0.564663 0.412137 0.331867 0.086697
H97   H     H_    0.288741 0.911526 0.262277 0.090988
H98   H     H_    0.288748 0.088471 0.262280 0.090991
H99   H     H_    0.788744 0.411528 0.262279 0.090989
H100  H     H_    0.788744 0.588472 0.262279 0.090989
H101  H     H_    0.026378 0.088328 0.737096 0.097800
H102  H     H_    0.026373 0.911672 0.737092 0.097798
H103  H     H_    0.526379 0.588334 0.737117 0.097804
H104  H     H_    0.526371 0.411678 0.737070 0.097797
H105  H     H_    0.186860 0.165530 0.176484 0.088769
H106  H     H_    0.186860 0.834469 0.176484 0.088769
H107  H     H_    0.686859 0.665530 0.176485 0.088768
H108  H     H_    0.686861 0.334469 0.176483 0.088770
H109  H     H_    0.197717 0.052172 0.570917 0.158137
H110  H     H_    0.931264 0.963216 0.379013 0.155119
H111  H     H_    0.697570 0.552306 0.570813 0.158146
H112  H     H_    0.431371 0.463089 0.379092 0.155104
N1    N     N_R   0.950530 0.896220 0.057200 -0.036379
N2    N     N_R   0.950530 0.103780 0.057200 -0.036380
N3    N     N_R   0.450530 0.396220 0.057200 -0.036380
N4    N     N_R   0.450530 0.603780 0.057200 -0.036379
N5    N     N_R   0.893330 0.103780 0.942800 -0.034083
N6    N     N_R   0.893330 0.896220 0.942800 -0.034083
N7    N     N_R   0.393330 0.603780 0.942800 -0.034083
N8    N     N_R   0.393330 0.396220 0.942800 -0.034084
N9    N     N_R   0.818150 0.971400 0.792440 -0.034386
N10   N     N_R   0.818150 0.028600 0.792440 -0.034386
N11   N     N_R   0.318150 0.471400 0.792440 -0.034386
N12   N     N_R   0.318150 0.528600 0.792440 -0.034386
N13   N     N_R   0.025710 0.028600 0.207560 -0.033249
N14   N     N_R   0.025710 0.971400 0.207560 -0.033249
N15   N     N_R   0.525710 0.528600 0.207560 -0.033251
N16   N     N_R   0.525710 0.471400 0.207560 -0.033248
N17   N     N_R   0.181850 0.971400 0.207560 -0.036194
N18   N     N_R   0.181850 0.028600 0.207560 -0.036194
N19   N     N_R   0.681850 0.471400 0.207560 -0.036193
N20   N     N_R   0.681850 0.528600 0.207560 -0.036194
N21   N     N_R   0.974290 0.028600 0.792440 -0.037131
N22   N     N_R   0.974290 0.971400 0.792440 -0.037131
N23   N     N_R   0.474290 0.528600 0.792440 -0.037132
N24   N     N_R   0.474290 0.471400 0.792440 -0.037128
N25   N     N_R   0.049470 0.896220 0.942800 -0.037382
N26   N     N_R   0.049470 0.103780 0.942800 -0.037383
N27   N     N_R   0.549470 0.396220 0.942800 -0.037381
N28   N     N_R   0.549470 0.603780 0.942800 -0.037384
N29   N     N_R   0.106670 0.103780 0.057200 -0.034967
N30   N     N_R   0.106670 0.896220 0.057200 -0.034967
N31   N     N_R   0.606670 0.603780 0.057200 -0.034966
N32   N     N_R   0.606670 0.396220 0.057200 -0.034968
Ni1   Ni    Ni4+2 0.065600 0.934400 0.131190 0.207435
Ni2   Ni    Ni4+2 0.065600 0.065600 0.131190 0.207435
Ni3   Ni    Ni4+2 0.565600 0.434400 0.131190 0.207438
Ni4   Ni    Ni4+2 0.565600 0.565600 0.131190 0.207432
Ni5   Ni    Ni4+2 0.934400 0.065600 0.868810 0.219283
Ni6   Ni    Ni4+2 0.934400 0.934400 0.868810 0.219281
Ni7   Ni    Ni4+2 0.434400 0.565600 0.868810 0.219280
Ni8   Ni    Ni4+2 0.434400 0.434400 0.868810 0.219285
H113  H     H_    0.191379 0.051660 0.720420 0.158872
H114  H     H_    0.924186 0.963239 0.524450 0.156473
H115  H     H_    0.691225 0.551800 0.720308 0.158889
H116  H     H_    0.424289 0.463116 0.524521 0.156472
C113  C     C_2   0.015016 0.730948 0.814153 0.968945
O1    O     O_2   0.029102 0.741675 0.744934 -0.674175
O2    O     O_R   0.923264 0.730584 0.785030 -0.820606
H117  H     H_    0.874755 0.740391 0.704727 0.316343
C114  C     C_2   0.015016 0.269052 0.814151 0.968947
O3    O     O_2   0.029103 0.258325 0.744933 -0.674174
O4    O     O_R   0.923263 0.269415 0.785027 -0.820602
H118  H     H_    0.874755 0.259608 0.704725 0.316344
C115  C     C_2   0.515022 0.230952 0.814144 0.968945
O5    O     O_2   0.529115 0.241680 0.744931 -0.674174
O6    O     O_R   0.423267 0.230588 0.785013 -0.820604
H119  H     H_    0.374762 0.240397 0.704710 0.316343
C116  C     C_2   0.515014 0.769055 0.814156 0.968947
O7    O     O_2   0.529099 0.758328 0.744936 -0.674175
O8    O     O_R   0.423262 0.769419 0.785035 -0.820605
H120  H     H_    0.374753 0.759612 0.704732 0.316343
H121  H     H_    0.248460 0.726626 0.866121 0.178272
H122  H     H_    0.248462 0.273375 0.866124 0.178271
H123  H     H_    0.748466 0.226627 0.866125 0.178276
H124  H     H_    0.748453 0.773376 0.866117 0.178272
H125  H     H_    0.016901 0.836114 0.822653 0.119107
H126  H     H_    0.016902 0.163886 0.822653 0.119108
H127  H     H_    0.516907 0.336117 0.822651 0.119108
H128  H     H_    0.516896 0.663889 0.822655 0.119106

loop_
_geom_bond_atom_site_label_1
_geom_bond_atom_site_label_2
_ccdc_geom_bond_type
C44   H24   S    
C8    C20   A    
N6    Ni6   S    
C53   H41   S    
N11   Ni8   S    
C12   N32   A    
C55   C59   S    
C50   C60   S    
C42   H26   S    
N18   Ni2   S    
C15   C109  A    
C77   C101  A    
N15   N16   A    
C94   H94   S    
C56   H44   S    
C60   C99   S    
N21   Ni5   S    
N2    Ni2   S    
C41   H21   S    
C85   C91   S    
C61   C69   S    
C2    C98   A    
C45   C113  S    
C21   C31   S    
C10   H106  S    
C33   C39   S    
C82   C89   S    
N17   Ni1   S    
C82   H74   S    
C34   C40   S    
C64   C68   S    
C51   H123  S    
C110  H102  S    
C111  H103  S    
C66   H38   S    
C109  H101  S    
C70   H54   S    
C23   H7    S    
C26   H114  S    
C86   C88   S    
C96   H96   S    
C107  H99   S    
C10   C17   A    
C1    N1    A    
N19   N20   A    
C106  H98   S    
N32   Ni3   S    
N13   N14   A    
C105  H97   S    
C62   C70   S    
N14   Ni1   S    
C37   N7    A    
N17   N18   A    
C35   H33   S    
C105  N17   A    
C83   C90   S    
C75   C88   S    
C80   N12   A    
C73   C87   S    
C21   H5    S    
N28   Ni7   S    
C17   C61   S    
C49   C65   S    
C7    H127  S    
N29   Ni2   S    
C94   N14   A    
N10   Ni5   S    
C27   H115  S    
C28   H12   S    
O4    H118  S    
C93   N13   A    
C78   H78   S    
C76   H72   S    
C11   N31   A    
N11   N12   A    
C32   C104  S    
C79   C102  A    
C43   H27   S    
C36   C97   A    
C51   C57   S    
C23   C27   S    
C74   C87   S    
C89   C91   S    
C35   C98   A    
C75   H67   S    
C47   H29   S    
C76   C88   S    
C41   H25   S    
C52   C68   S    
C43   C59   S    
N27   Ni8   S    
C73   H65   S    
C110  N22   A    
N26   N29   A    
C14   C108  A    
N3    N8    A    
C40   H20   S    
C109  N21   A    
N25   N30   A    
C44   H28   S    
C71   H55   S    
N21   N22   A    
C50   H122  S    
C78   C101  A    
C95   H95   S    
C59   C100  S    
C72   H56   S    
C15   C110  A    
C42   C58   S    
C93   C103  A    
C58   C97   S    
C1    H1    S    
C106  N18   A    
N1    Ni1   S    
C81   H73   S    
C108  H100  S    
C44   C46   S    
C49   H57   S    
C63   C67   S    
N16   Ni3   S    
C24   H112  S    
C27   C34   S    
C68   H64   S    
C6    C18   A    
C30   H16   S    
C76   C84   S    
C24   H8    S    
C46   C114  S    
C82   H82   S    
C22   C31   S    
C6    N26   A    
C85   C87   S    
C67   H39   S    
C28   C34   S    
C5    N25   A    
N15   Ni4   S    
C75   H71   S    
C30   H15   S    
C13   C105  A    
N22   Ni6   S    
C3    N3    A    
C67   H63   S    
C51   H59   S    
C3    H3    S    
C62   C66   S    
C79   H79   S    
C18   C62   S    
C42   C48   S    
C39   H17   S    
N30   Ni1   S    
C116  O7    D    
C81   H81   S    
C11   C20   A    
C37   H35   S    
C56   C60   S    
C47   C63   S    
C7    N27   A    
C35   N5    A    
C44   C60   S    
C31   C103  S    
C20   C64   S    
C55   H43   S    
C24   C32   S    
N26   Ni5   S    
C52   H124  S    
C68   H40   S    
C4    N4    A    
C3    C99   A    
C54   H46   S    
C73   H69   S    
C9    C18   A    
C26   C33   S    
C90   C92   S    
C74   H66   S    
C16   C112  A    
C25   C33   S    
C78   N10   A    
C16   C34   S    
C46   H32   S    
C13   C87   S    
C50   C66   S    
C77   N9    A    
C114  O3    D    
C41   C47   S    
C30   C40   S    
C50   H58   S    
C95   N15   A    
C52   C58   S    
C5    C17   A    
C43   H23   S    
C43   C45   S    
C38   H36   S    
C22   H6    S    
C91   H89   S    
C92   H91   S    
C21   H109  S    
C73   C81   S    
N28   N31   A    
C49   H121  S    
C85   H85   S    
C14   C107  A    
C83   H75   S    
C40   H19   S    
C46   C62   S    
C94   C103  A    
N13   Ni2   S    
C7    C19   A    
C115  O6    S    
N9    N10   A    
N25   Ni6   S    
C115  O5    D    
C84   H76   S    
C1    C97   A    
N2    N5    A    
N19   Ni3   S    
C11   H107  S    
C111  N23   A    
C13   C106  A    
C95   C104  A    
C2    N2    A    
C24   C28   S    
C93   H93   S    
C74   C82   S    
C84   C90   S    
C9    H105  S    
C29   C39   S    
C112  N24   A    
C96   C104  A    
C21   C25   S    
N31   Ni4   S    
C8    N28   A    
C27   H11   S    
C96   N16   A    
C108  N20   A    
C89   C101  S    
C10   N30   A    
C5    H125  S    
C4    H4    S    
C9    N29   A    
C69   H51   S    
C23   H111  S    
C38   C99   A    
C76   H68   S    
C92   H92   S    
C54   H42   S    
C12   C19   A    
C25   H113  S    
N23   N24   A    
N4    Ni4   S    
C29   C31   S    
C80   C102  A    
C74   H70   S    
C39   H18   S    
N3    Ni3   S    
C116  O8    S    
C22   H110  S    
C25   H9    S    
C86   H87   S    
C56   C70   S    
N1    N6    A    
C28   H116  S    
C4    C100  A    
C71   H49   S    
C42   H22   S    
C48   C116  S    
C77   H77   S    
C23   C32   S    
C55   C69   S    
C90   C102  S    
C113  O2    S    
C36   H34   S    
O6    H119  S    
C79   N11   A    
C56   H48   S    
C19   C63   S    
C86   C92   S    
C49   C59   S    
C30   C32   S    
C2    H2    S    
C29   H13   S    
C75   C83   S    
N27   N32   A    
C51   C67   S    
C12   H108  S    
N7    Ni7   S    
C84   H84   S    
C45   C61   S    
C57   C98   S    
C107  N19   A    
C55   H47   S    
C52   H60   S    
C114  O4    S    
N24   Ni8   S    
C53   C57   S    
C47   C115  S    
C112  H104  S    
C81   C89   S    
C83   H83   S    
C65   H61   S    
C69   H53   S    
N20   Ni4   S    
C53   H45   S    
C91   H90   S    
C48   C64   S    
C80   H80   S    
C41   C57   S    
N8    Ni8   S    
C6    H126  S    
C85   H86   S    
C48   H30   S    
C54   C72   S    
C16   C111  A    
N12   Ni7   S    
C36   N6    A    
C22   C26   S    
C54   C58   S    
O8    H120  S    
C45   H31   S    
C65   H37   S    
C72   H50   S    
C8    H128  S    
C66   H62   S    
C29   H14   S    
N5    Ni5   S    
C26   H10   S    
C38   N8    A    
C14   C88   S    
C113  O1    D    
C70   H52   S    
C63   C71   S    
C15   C33   S    
N4    N7    A    
N23   Ni7   S    
C37   C100  A    
O2    H117  S    
C64   C72   S    
C86   H88   S    
N9    Ni6   S    
C61   C65   S    
C53   C71   S    
