data_mof_unit_54073.cif
_audit_creation_date              2012-12-10T17:56:18-0500
_audit_creation_method            fapswitch 2.2
_symmetry_space_group_name_H-M    P1
_symmetry_Int_Tables_number       1
_space_group_crystal_system       triclinic
_cell_length_a                    13.023321
_cell_length_b                    10.86905
_cell_length_c                    9.5542
_cell_angle_alpha                 88.518835
_cell_angle_beta                  96.462304
_cell_angle_gamma                 91.875204
_cell_volume                      1342.76052125

loop_
_atom_site_label
_atom_site_type_symbol
_atom_type_description
_atom_site_fract_x
_atom_site_fract_y
_atom_site_fract_z
_atom_type_partial_charge
C1    C     C_R   0.500711 0.262212 0.501693 0.827533
C2    C     C_R   0.499289 0.737788 0.498307 0.827532
C3    C     C_R   0.498603 0.871685 0.496313 -0.189636
C4    C     C_R   0.501397 0.128315 0.503687 -0.189636
C5    C     C_R   0.443167 0.414452 0.070300 -0.015059
C6    C     C_R   0.556833 0.585548 0.929700 -0.015060
C7    C     C_R   0.441833 0.413501 0.921643 0.054387
C8    C     C_R   0.558167 0.586499 0.078357 0.054387
C9    C     C_R   0.300319 0.500204 0.472803 0.815601
C10   C     C_R   0.699681 0.499796 0.527197 0.815602
C11   C     C_R   0.813024 0.499494 0.544865 -0.141375
C12   C     C_R   0.186976 0.500506 0.455134 -0.141374
C13   C     C_R   0.020628 0.487137 0.312335 -0.293470
C14   C     C_R   0.979372 0.512864 0.687665 -0.293469
C15   C     C_R   0.128787 0.493869 0.320829 0.441147
C16   C     C_R   0.871213 0.506131 0.679171 0.441147
C17   C     C_R   0.136201 0.508072 0.576146 -0.314420
C18   C     C_R   0.863799 0.491928 0.423854 -0.314420
C19   C     C_R   0.029039 0.505533 0.566276 0.118321
C20   C     C_R   0.970961 0.494468 0.433724 0.118322
C21   C     C_R   0.491818 0.068544 0.374351 -0.324764
C22   C     C_R   0.508182 0.931456 0.625649 -0.324765
C23   C     C_R   0.488109 0.941005 0.369177 0.452106
C24   C     C_R   0.511891 0.058995 0.630823 0.452105
Cu1   Cu    Cu3+1 0.500000 0.500020 0.640660 0.947788
Cu2   Cu    Cu3+1 0.500000 0.499980 0.359340 0.947788
H1    H     H_    0.819940 0.484755 0.320965 0.172318
H2    H     H_    0.180060 0.515245 0.679034 0.172318
H3    H     H_    0.975328 0.475352 0.211148 0.141801
H4    H     H_    0.024672 0.524648 0.788852 0.141801
H5    H     H_    0.485940 0.120306 0.275415 0.197036
H6    H     H_    0.514060 0.879694 0.724585 0.197036
H7    H     H_    0.397084 0.347939 0.124317 0.193611
H8    H     H_    0.602916 0.652061 0.875683 0.193611
N1    N     N_R   0.500030 0.500030 0.852080 -0.226149
N2    N     N_R   0.499970 0.499970 0.147920 -0.226149
O1    O     O_R   0.499990 0.319660 0.618740 -0.573223
O2    O     O_R   0.500010 0.680340 0.381260 -0.573224
O3    O     O_R   0.499990 0.319630 0.381170 -0.595071
O4    O     O_R   0.500010 0.680370 0.618830 -0.595071
O5    O     O_R   0.349000 0.499990 0.599490 -0.629275
O6    O     O_R   0.651000 0.500010 0.400510 -0.629275
O7    O     O_R   0.348990 0.499960 0.361920 -0.530222
O8    O     O_R   0.651010 0.500040 0.638080 -0.530222
O9    O     O_3   0.822200 0.516054 0.799752 -0.561910
C25   C     C_3   0.847656 0.415809 0.893170 0.080048
H9    H     H_    0.928652 0.425739 0.943208 0.137423
H10   H     H_    0.836934 0.326205 0.838266 0.128303
C26   C     C_3   0.777470 0.413641 0.009846 -0.796575
H11   H     H_    0.801204 0.340701 0.089312 0.196729
H12   H     H_    0.782511 0.503993 0.062155 0.243527
H13   H     H_    0.696515 0.394216 0.965022 0.256852
O10   O     O_3   0.177800 0.483946 0.200248 -0.561910
C27   C     C_3   0.152344 0.584191 0.106830 0.080048
H14   H     H_    0.163066 0.673795 0.161734 0.128303
H15   H     H_    0.071348 0.574261 0.056791 0.137423
C28   C     C_3   0.222530 0.586359 0.990154 -0.796575
H16   H     H_    0.217489 0.496007 0.937845 0.243527
H17   H     H_    0.198796 0.659300 0.910688 0.196729
H18   H     H_    0.303485 0.605784 0.034978 0.256852
O11   O     O_3   0.481419 0.886074 0.239350 -0.554682
C29   C     C_3   0.377724 0.885935 0.176736 0.060503
H19   H     H_    0.337705 0.972642 0.193807 0.143957
H20   H     H_    0.333956 0.807006 0.220302 0.149086
C30   C     C_3   0.375560 0.871699 0.018383 -0.714488
H21   H     H_    0.415745 0.787380 0.995322 0.241094
H22   H     H_    0.294277 0.865135 0.969084 0.198108
H23   H     H_    0.414363 0.952753 0.971727 0.281931
O12   O     O_3   0.518581 0.113926 0.760650 -0.554682
C31   C     C_3   0.622276 0.114063 0.823265 0.060506
H24   H     H_    0.666045 0.192990 0.779698 0.149083
H25   H     H_    0.662292 0.027354 0.806197 0.143959
C32   C     C_3   0.624439 0.128302 0.981618 -0.714488
H26   H     H_    0.705722 0.134865 0.030918 0.198108
H27   H     H_    0.584255 0.212622 0.004676 0.241094
H28   H     H_    0.585635 0.047250 0.028275 0.281930
C33   C     C_2   0.374674 0.317488 0.846562 0.417408
H29   H     H_    0.351186 0.322987 0.735503 0.137258
O13   O     O_2   0.342436 0.228203 0.910619 -0.573557
C34   C     C_2   0.625326 0.682512 0.153437 0.417408
H30   H     H_    0.648814 0.677013 0.264496 0.137257
O14   O     O_2   0.657563 0.771797 0.089381 -0.573557

loop_
_geom_bond_atom_site_label_1
_geom_bond_atom_site_label_2
_ccdc_geom_bond_type
C11   C18   A    
C10   O6    A    
C32   H26   S    
C3    C23   A    
C19   C20   A    
O10   C27   S    
C21   H5    S    
C25   C26   S    
C22   H6    S    
C15   O10   S    
C22   C24   A    
C13   H3    S    
Cu1   O4    S    
C4    C24   A    
Cu2   O3    S    
C28   H17   S    
C5    N2    A    
C6    N1    A    
C8    N2    A    
C29   H20   S    
Cu1   O1    S    
C27   H14   S    
C30   H22   S    
C5    H7    S    
C12   C17   A    
C24   O12   S    
C31   H24   S    
C13   C20   A    
C1    O1    A    
C7    C33   S    
C30   H23   S    
C32   H27   S    
O11   C29   S    
C14   H4    S    
Cu1   O8    S    
Cu2   O7    S    
C27   H15   S    
C33   O13   D    
C25   H10   S    
C9    O7    A    
C10   O8    A    
C34   O14   D    
Cu1   O5    S    
C5    C7    A    
Cu2   O2    S    
C28   H18   S    
C6    C8    A    
C26   H12   S    
Cu1   Cu2   S    
C33   H29   S    
C6    H8    S    
C29   H19   S    
C11   C16   A    
C2    O2    A    
C12   C15   A    
C26   H13   S    
C31   C32   S    
Cu1   N1    S    
Cu2   N2    S    
C30   H21   S    
C13   C15   A    
C32   H28   S    
C14   C16   A    
O9    C25   S    
Cu2   O6    S    
C25   H9    S    
C29   C30   S    
C17   H2    S    
C7    N1    A    
C14   C19   A    
C18   H1    S    
C34   H30   S    
C16   O9    S    
C9    O5    A    
C1    C4    S    
C21   C23   A    
C2    C3    S    
C4    C21   A    
C28   H16   S    
C17   C19   A    
C18   C20   A    
O12   C31   S    
C9    C12   S    
C10   C11   S    
C1    O3    A    
C2    O4    A    
C23   O11   S    
C26   H11   S    
C8    C34   S    
C3    C22   A    
C31   H25   S    
C27   C28   S    
