data_mof_unit_33380.cif
_audit_creation_date              2012-10-26T19:50:06-0400
_audit_creation_method            fapswitch 2.2
_symmetry_space_group_name_H-M    P1
_symmetry_Int_Tables_number       1
_space_group_crystal_system       triclinic
_cell_length_a                    15.120698
_cell_length_b                    13.952002
_cell_length_c                    10.835662
_cell_angle_alpha                 90.103557
_cell_angle_beta                  92.471561
_cell_angle_gamma                 90.189215
_cell_volume                      2283.7913972

loop_
_atom_site_label
_atom_site_type_symbol
_atom_type_description
_atom_site_fract_x
_atom_site_fract_y
_atom_site_fract_z
_atom_type_partial_charge
C1    C     C_R   0.329980 0.499882 0.499937 0.541374
C2    C     C_R   0.951278 0.499843 0.498684 0.033468
C3    C     C_R   0.527000 0.110020 0.608872 -0.021276
C4    C     C_R   0.457848 0.109312 0.399885 -0.010614
C5    C     C_R   0.534689 0.210503 0.599207 0.055424
C6    C     C_R   0.460192 0.210660 0.404002 0.056334
C7    C     C_R   0.491439 0.056097 0.505295 0.014304
C8    C     C_R   0.420965 0.891386 0.464935 -0.141862
C9    C     C_R   0.569909 0.896327 0.542018 -0.138226
C10   C     C_R   0.429406 0.791746 0.445057 0.149279
C11   C     C_R   0.568864 0.795145 0.554908 0.156206
C12   C     C_R   0.669940 0.500094 0.499815 0.543844
C13   C     C_R   0.493636 0.946748 0.504899 -0.032761
C14   C     C_R   0.506164 0.500023 0.262842 0.545426
C15   C     C_R   0.493033 0.500658 0.737315 0.549725
C16   C     C_R   0.567185 0.667896 0.114736 -0.119662
C17   C     C_R   0.474763 0.681446 0.888557 -0.130677
C18   C     C_R   0.564758 0.755489 0.051557 0.271695
C19   C     C_R   0.507733 0.764749 0.946886 0.276179
C20   C     C_R   0.493522 0.590413 0.939316 -0.032098
C21   C     C_R   0.523148 0.586590 0.063476 -0.031985
C22   C     C_R   0.511299 0.500276 0.128681 0.005352
C23   C     C_R   0.233374 0.499736 0.500079 0.015370
C24   C     C_R   0.485600 0.503220 0.871847 0.004093
C25   C     C_R   0.491857 0.415305 0.063500 -0.154646
C26   C     C_R   0.483669 0.416184 0.935793 -0.156601
C27   C     C_R   0.096158 0.582793 0.533051 -0.123101
C28   C     C_R   0.903510 0.578731 0.451591 -0.120201
C29   C     C_R   0.188085 0.582802 0.533357 -0.138658
C30   C     C_R   0.811579 0.578880 0.451914 -0.137204
C31   C     C_3   0.360048 0.747071 0.356830 -0.236956
C32   C     C_3   0.350991 0.800260 0.233349 -0.484092
C33   C     C_3   0.646160 0.749280 0.626843 -0.241980
C34   C     C_R   0.766390 0.500086 0.499094 0.016047
C35   C     C_3   0.688518 0.810685 0.731207 -0.468293
C36   C     C_3   0.604759 0.892255 0.157411 0.007807
C37   C     C_3   0.684857 0.957102 0.186437 -0.257249
C38   C     C_3   0.663758 0.039645 0.272258 -0.485310
C39   C     C_3   0.399243 0.875147 0.898374 -0.019121
C40   C     C_3   0.360116 0.887053 0.766670 -0.261132
C41   C     C_3   0.260477 0.903782 0.765591 -0.491010
C42   C     C_3   0.556516 0.065259 0.731911 -0.296621
C43   C     C_3   0.508800 0.108031 0.840813 -0.441414
C44   C     C_3   0.418400 0.059861 0.284322 -0.297864
C45   C     C_R   0.185680 0.416613 0.466767 -0.131163
C46   C     C_3   0.417038 0.119278 0.165284 -0.472506
C47   C     C_R   0.813946 0.420840 0.545097 -0.129137
C48   C     C_R   0.093727 0.416777 0.465826 -0.122392
C49   C     C_R   0.905866 0.420889 0.545401 -0.121979
C50   C     C_R   0.048354 0.499841 0.499042 0.034186
Cu1   Cu    Cu3+1 0.500000 0.596430 0.500000 0.891431
Cu2   Cu    Cu3+1 0.500000 0.403570 0.500000 0.920110
H1    H     H_    0.483899 0.347730 0.110903 0.125330
H2    H     H_    0.775885 0.639748 0.413294 0.113984
H3    H     H_    0.219326 0.351875 0.440011 0.122382
H4    H     H_    0.780149 0.359479 0.582411 0.120220
H5    H     H_    0.058056 0.352376 0.437668 0.102731
H6    H     H_    0.941479 0.359811 0.583647 0.102983
H7    H     H_    0.566015 0.251209 0.674038 0.131337
H8    H     H_    0.430604 0.252681 0.329881 0.135232
H9    H     H_    0.317320 0.870054 0.244039 0.133423
H10   H     H_    0.417006 0.812262 0.195146 0.144622
H11   H     H_    0.310363 0.756861 0.165990 0.133810
H12   H     H_    0.474728 0.348720 0.887257 0.126249
H13   H     H_    0.376211 0.673843 0.330872 0.221437
H14   H     H_    0.294954 0.746642 0.400545 0.120773
H15   H     H_    0.731942 0.866894 0.693700 0.125841
H16   H     H_    0.637337 0.844581 0.786642 0.220438
H17   H     H_    0.730498 0.764778 0.793357 0.158774
H18   H     H_    0.623638 0.683761 0.672610 0.213560
H19   H     H_    0.698625 0.731883 0.562158 0.144503
H20   H     H_    0.582994 0.859406 0.244871 0.128953
H21   H     H_    0.550310 0.935816 0.114111 0.155935
H22   H     H_    0.739066 0.913683 0.230386 0.166836
H23   H     H_    0.358908 0.926030 0.440949 0.100795
H24   H     H_    0.708723 0.987139 0.098844 0.176700
H25   H     H_    0.612680 0.086544 0.228302 0.158288
H26   H     H_    0.724396 0.083100 0.291865 0.144126
H27   H     H_    0.640469 0.011887 0.360723 0.160507
H28   H     H_    0.391941 0.943878 0.948194 0.136136
H29   H     H_    0.359326 0.821407 0.948684 0.113896
H30   H     H_    0.391541 0.949255 0.722481 0.178590
H31   H     H_    0.373225 0.822190 0.711105 0.172324
H32   H     H_    0.226541 0.841219 0.805924 0.145360
H33   H     H_    0.234695 0.913426 0.668902 0.141902
H34   H     H_    0.628678 0.936999 0.568364 0.101711
H35   H     H_    0.245604 0.969267 0.819250 0.145213
H36   H     H_    0.530154 0.183021 0.858897 0.129317
H37   H     H_    0.435964 0.105909 0.822673 0.151031
H38   H     H_    0.525398 0.065829 0.925437 0.162562
H39   H     H_    0.543396 0.987626 0.734676 0.198522
H40   H     H_    0.629006 0.075896 0.747385 0.132058
H41   H     H_    0.365286 0.175477 0.167027 0.139469
H42   H     H_    0.482352 0.152922 0.151060 0.141769
H43   H     H_    0.400263 0.072114 0.085289 0.128354
H44   H     H_    0.456767 0.994252 0.266095 0.149366
H45   H     H_    0.608767 0.662031 0.198243 0.148940
H46   H     H_    0.348939 0.039537 0.300605 0.136737
H47   H     H_    0.434106 0.689069 0.805022 0.152260
H48   H     H_    0.062490 0.647177 0.560990 0.101945
H49   H     H_    0.937206 0.639625 0.413006 0.104007
H50   H     H_    0.223644 0.647353 0.561195 0.116097
N1    N     N_R   0.500000 0.258690 0.500000 -0.250248
N2    N     N_R   0.500000 0.741330 0.500000 -0.223148
O1    O     O_R   0.371460 0.581430 0.500010 -0.530991
O2    O     O_3   0.491028 0.854178 0.896151 -0.588936
O3    O     O_R   0.628540 0.581430 0.499990 -0.530280
O4    O     O_R   0.371470 0.418560 0.500010 -0.498952
O5    O     O_R   0.628530 0.418560 0.499990 -0.495929
O6    O     O_R   0.500000 0.581450 0.319650 -0.524755
O7    O     O_R   0.500000 0.581450 0.680350 -0.523868
O8    O     O_R   0.500010 0.418580 0.319650 -0.512827
O9    O     O_R   0.499990 0.418580 0.680350 -0.510783
O10   O     O_3   0.631483 0.821692 0.074247 -0.566478

loop_
_geom_bond_atom_site_label_1
_geom_bond_atom_site_label_2
_ccdc_geom_bond_type
C39   O2    S    
C37   H22   S    
C5    N1    A    
Cu2   N1    S    
C8    C13   A    
C23   C45   A    
C27   C29   A    
C36   O10   S    
C18   O10   S    
C48   H5    S    
C3    C42   S    
Cu2   O9    S    
C14   O8    A    
C30   H2    S    
C43   H37   S    
C43   H36   S    
C23   C29   A    
C36   C37   S    
C25   H1    S    
C32   H9    S    
C18   C19   A    
C3    C7    A    
C16   H45   S    
C38   H27   S    
Cu2   O8    S    
C17   C20   A    
C35   H16   S    
C14   O6    A    
C42   H39   S    
C9    C13   A    
C26   H12   S    
C2    C50   S    
C17   C19   A    
C44   H46   S    
C28   H49   S    
C46   H43   S    
C20   C24   A    
C22   C25   A    
C15   O9    A    
C11   N2    A    
C27   C50   A    
C48   C50   A    
C21   C22   A    
C40   H31   S    
C4    C7    A    
C10   C31   S    
C12   O5    A    
C44   C46   S    
C41   H35   S    
C27   H48   S    
C43   H38   S    
C30   C34   A    
Cu1   Cu2   S    
C40   H30   S    
C11   C33   S    
C39   H29   S    
C4    C6    A    
C6    H8    S    
C39   C40   S    
C5    H7    S    
C38   H26   S    
C25   C26   A    
C41   H32   S    
C8    H23   S    
C49   H6    S    
C37   C38   S    
C44   H44   S    
C2    C49   A    
C15   O7    A    
C9    H34   S    
C17   H47   S    
C31   C32   S    
C46   H42   S    
C35   H15   S    
Cu1   O1    S    
C16   C18   A    
C6    N1    A    
C9    C11   A    
C45   H3    S    
C33   H18   S    
Cu1   O3    S    
C40   C41   S    
C37   H24   S    
C1    C23   S    
Cu1   O6    S    
C42   C43   S    
C12   C34   S    
C41   H33   S    
C45   C48   A    
C31   H13   S    
C15   C24   S    
Cu1   O7    S    
C31   H14   S    
C32   H11   S    
C24   C26   A    
C3    C5    A    
C12   O3    A    
C16   C21   A    
C38   H25   S    
C47   C49   A    
C4    C44   S    
C39   H28   S    
C14   C22   S    
C10   N2    A    
Cu1   N2    S    
C32   H10   S    
C46   H41   S    
Cu2   O5    S    
C28   C30   A    
C33   C35   S    
C29   H50   S    
C42   H40   S    
C36   H21   S    
C33   H19   S    
C1    O4    A    
C19   O2    S    
C7    C13   S    
C20   C21   A    
C35   H17   S    
C8    C10   A    
Cu2   O4    S    
C2    C28   A    
C34   C47   A    
C36   H20   S    
C1    O1    A    
C47   H4    S    
