data_mof_unit_29130.cif
_audit_creation_date              2012-10-26T19:24:20-0400
_audit_creation_method            fapswitch 2.2
_symmetry_space_group_name_H-M    P1
_symmetry_Int_Tables_number       1
_space_group_crystal_system       triclinic
_cell_length_a                    27.806754
_cell_length_b                    10.793866
_cell_length_c                    9.59861
_cell_angle_alpha                 90.149071
_cell_angle_beta                  89.901601
_cell_angle_gamma                 92.320127
_cell_volume                      2878.57442858

loop_
_atom_site_label
_atom_site_type_symbol
_atom_type_description
_atom_site_fract_x
_atom_site_fract_y
_atom_site_fract_z
_atom_type_partial_charge
C1    C     C_R   0.498225 0.262601 0.499899 0.572504
C2    C     C_R   0.974500 0.495257 0.371615 0.019409
C3    C     C_R   0.974784 0.522852 0.627031 0.019424
C4    C     C_R   0.407696 0.496308 0.500050 0.585515
C5    C     C_R   0.949383 0.509047 0.499331 0.034110
C6    C     C_R   0.947418 0.472282 0.248918 -0.141898
C7    C     C_R   0.897406 0.467444 0.251175 -0.111954
C8    C     C_R   0.872418 0.486854 0.375288 0.026827
C9    C     C_R   0.898280 0.508790 0.499391 -0.026973
C10   C     C_R   0.872947 0.530261 0.623594 0.027037
C11   C     C_R   0.822485 0.532143 0.620845 0.397568
C12   C     C_R   0.276900 0.404600 0.427736 -0.081109
C13   C     C_R   0.821886 0.483358 0.378369 0.397910
C14   C     C_R   0.719532 0.430364 0.594353 -0.056596
C15   C     C_R   0.669374 0.430231 0.595843 -0.142637
C16   C     C_R   0.498225 0.737168 0.500327 0.516271
C17   C     C_R   0.671071 0.576164 0.404137 -0.145734
C18   C     C_R   0.721246 0.579533 0.405788 -0.053110
C19   C     C_R   0.745931 0.505765 0.500024 0.227721
C20   C     C_R   0.025612 0.503328 0.370899 0.019877
C21   C     C_R   0.050860 0.508054 0.499426 0.033939
C22   C     C_R   0.025603 0.513801 0.627879 0.019922
C23   C     C_R   0.253952 0.498900 0.499562 0.217836
C24   C     C_R   0.052573 0.507641 0.245728 -0.139731
C25   C     C_R   0.102041 0.503246 0.751914 -0.109803
C26   C     C_R   0.948294 0.546157 0.749670 -0.141933
C27   C     C_R   0.898418 0.550462 0.747537 -0.111905
C28   C     C_R   0.592286 0.500561 0.499931 0.530487
C29   C     C_R   0.052201 0.508815 0.753139 -0.139654
C30   C     C_R   0.424672 0.122423 0.659959 -0.111967
C31   C     C_R   0.391304 0.055079 0.740895 -0.116266
C32   C     C_R   0.391938 0.925456 0.745169 0.249333
C33   C     C_R   0.426123 0.864573 0.666629 -0.047254
C34   C     C_R   0.101935 0.506721 0.499498 -0.027562
C35   C     C_R   0.460714 0.931137 0.584881 -0.021022
C36   C     C_R   0.460270 0.062059 0.582793 0.027955
C37   C     C_R   0.494501 0.128521 0.499539 0.031072
C38   C     C_R   0.526271 0.066497 0.413943 -0.144964
C39   C     C_R   0.526316 0.938730 0.414444 -0.142567
C40   C     C_R   0.178160 0.508397 0.375474 0.400368
C41   C     C_R   0.494787 0.870770 0.501153 0.007701
C42   C     C_R   0.563744 0.664798 0.144050 -0.085096
C43   C     C_R   0.594793 0.745642 0.072021 -0.167906
C44   C     C_R   0.594760 0.745810 0.928506 -0.153255
C45   C     C_R   0.127662 0.508258 0.373052 0.026000
C46   C     C_R   0.563682 0.665123 0.856173 -0.075789
C47   C     C_R   0.531286 0.581162 0.925258 0.159820
C48   C     C_R   0.531299 0.581049 0.074818 0.162636
C49   C     C_R   0.470194 0.422922 0.073813 0.008874
C50   C     C_R   0.470207 0.422959 0.925933 0.008124
C51   C     C_R   0.177765 0.499147 0.623714 0.398803
C52   C     C_R   0.281639 0.588573 0.572512 -0.046309
C53   C     C_R   0.331547 0.583963 0.574147 -0.158465
C54   C     C_R   0.327215 0.399276 0.426883 -0.012344
C55   C     C_2   0.348247 0.293563 0.352050 0.212202
C56   C     C_R   0.102580 0.510551 0.247092 -0.110154
C57   C     C_R   0.127367 0.503552 0.626011 0.026517
C58   C     C_R   0.354896 0.491517 0.500383 0.015819
C59   C     C_R   0.644921 0.502184 0.499816 0.007644
Cu1   Cu    Cu3+1 0.500000 0.499990 0.640660 0.929693
Cu2   Cu    Cu3+1 0.500000 0.500010 0.359340 0.975670
H1    H     H_    0.264441 0.662347 0.627850 0.162891
H2    H     H_    0.364599 0.104191 0.799042 0.108209
H3    H     H_    0.255144 0.333969 0.373980 0.129525
H4    H     H_    0.424487 0.764685 0.669320 0.159835
H5    H     H_    0.552052 0.892684 0.349403 0.113004
H6    H     H_    0.445760 0.359698 0.128889 0.154707
H7    H     H_    0.566912 0.672235 0.253753 0.171758
H8    H     H_    0.619121 0.808558 0.128333 0.117467
H9    H     H_    0.619067 0.808872 0.872454 0.130517
H10   H     H_    0.566805 0.672899 0.746422 0.184320
H11   H     H_    0.445762 0.359797 0.870711 0.114585
H12   H     H_    0.120678 0.499087 0.850738 0.164534
H13   H     H_    0.121518 0.513801 0.148331 0.164858
H14   H     H_    0.649631 0.372099 0.669916 0.131583
H15   H     H_    0.737888 0.371704 0.666623 0.149408
H16   H     H_    0.878380 0.448983 0.154427 0.166412
H17   H     H_    0.963815 0.453922 0.149582 0.105248
H18   H     H_    0.036088 0.512100 0.144449 0.100562
H19   H     H_    0.352038 0.654464 0.631150 0.156315
H20   H     H_    0.326012 0.238151 0.280677 0.113153
H21   H     H_    0.337527 0.911984 0.872069 0.332906
H22   H     H_    0.965168 0.564854 0.848911 0.105370
H23   H     H_    0.652729 0.633255 0.330238 0.108922
H24   H     H_    0.879854 0.568829 0.844303 0.166415
H25   H     H_    0.740954 0.639540 0.333592 0.148349
H26   H     H_    0.035425 0.505445 0.854404 0.100427
H27   H     H_    0.552035 0.117504 0.348822 0.129157
H28   H     H_    0.421342 0.221727 0.656456 0.157599
N1    N     N_R   0.202233 0.502514 0.499606 -0.395674
N2    N     N_R   0.797813 0.507207 0.499728 -0.396498
N3    N     N_R   0.500460 0.501210 0.147910 -0.247803
N4    N     N_R   0.500480 0.501290 0.852040 -0.244671
O1    O     O_R   0.500000 0.319640 0.618810 -0.515345
O2    O     O_R   0.569730 0.499970 0.618800 -0.519288
O3    O     O_R   0.569740 0.499990 0.381230 -0.520427
O4    O     O_2   0.203008 0.515263 0.254629 -0.485848
O5    O     O_2   0.389556 0.263983 0.371592 -0.519084
O6    O     O_3   0.359260 0.855499 0.823268 -0.700137
O7    O     O_2   0.797049 0.454898 0.261111 -0.495015
O8    O     O_2   0.202061 0.490153 0.744649 -0.485879
O9    O     O_2   0.798338 0.559880 0.738225 -0.496300
O10   O     O_R   0.500000 0.319660 0.381240 -0.472580
O11   O     O_R   0.430260 0.500010 0.618770 -0.515450
O12   O     O_R   0.430270 0.500030 0.381200 -0.455614
O13   O     O_R   0.500000 0.680340 0.618760 -0.536037
O14   O     O_R   0.500000 0.680360 0.381190 -0.517018

loop_
_geom_bond_atom_site_label_1
_geom_bond_atom_site_label_2
_ccdc_geom_bond_type
C10   C27   A    
C15   H14   S    
C26   H22   S    
C22   C29   A    
H21   O6    S    
C35   C36   A    
Cu2   O3    S    
C33   H4    S    
C7    C8    A    
C39   C41   A    
C31   C32   A    
C12   C23   A    
C26   C27   A    
C8    C13   A    
C28   O2    A    
C36   C37   A    
Cu2   O10   S    
C51   N1    A    
C30   C31   A    
C12   H3    S    
C6    H17   S    
C18   C19   A    
C27   H24   S    
C50   H11   S    
C16   O14   A    
C46   C47   A    
C20   C24   A    
C45   C56   A    
C8    C9    A    
C34   C57   A    
C44   H9    S    
C51   C57   A    
C55   H20   S    
Cu2   O12   S    
C9    C10   A    
C1    O10   A    
Cu2   N3    S    
C1    C37   S    
C7    H16   S    
Cu1   N4    S    
C43   H8    S    
C21   C22   A    
C13   N2    A    
C42   H7    S    
C2    C6    A    
C25   C57   A    
C30   H28   S    
C35   C41   A    
C44   C46   A    
C25   C29   A    
C40   C45   A    
C56   H13   S    
C2    C20   A    
C31   H2    S    
C53   H19   S    
C40   O4    S    
C1    O1    A    
C42   C48   A    
C21   C34   A    
C38   H27   S    
Cu1   Cu2   S    
C14   H15   S    
C43   C44   A    
C5    C9    A    
C37   C38   A    
C24   H18   S    
C47   C48   A    
C17   C18   A    
C47   N4    A    
C23   N1    S    
C34   C45   A    
C18   H25   S    
C46   H10   S    
C17   C59   A    
C39   H5    S    
C2    C5    A    
C24   C56   A    
C42   C43   A    
C49   N3    A    
Cu1   O13   S    
C52   C53   A    
C54   C58   A    
C28   C59   S    
C54   C55   S    
C49   H6    S    
C15   C59   A    
C14   C19   A    
C3    C26   A    
C3    C5    A    
C53   C58   A    
C50   N4    A    
C6    C7    A    
C16   O13   A    
C51   O8    S    
C4    O12   A    
C32   O6    S    
C30   C36   A    
C28   O3    A    
C17   H23   S    
C32   C33   A    
C13   O7    S    
C52   H1    S    
C23   C52   A    
C38   C39   A    
C4    O11   A    
C55   O5    D    
C33   C35   A    
C11   O9    S    
C25   H12   S    
Cu2   O14   S    
C29   H26   S    
C19   N2    S    
C10   C11   A    
Cu1   O2    S    
C11   N2    A    
C20   C21   A    
C49   C50   A    
C48   N3    A    
C4    C58   S    
C14   C15   A    
C3    C22   A    
C40   N1    A    
Cu1   O11   S    
C16   C41   S    
C12   C54   A    
Cu1   O1    S    
