data_mof_unit_23336.cif
_audit_creation_date              2012-10-26T19:55:46-0400
_audit_creation_method            fapswitch 2.2
_symmetry_space_group_name_H-M    P1
_symmetry_Int_Tables_number       1
_space_group_crystal_system       triclinic
_cell_length_a                    10.916445
_cell_length_b                    10.753272
_cell_length_c                    9.671492
_cell_angle_alpha                 89.423563
_cell_angle_beta                  91.022865
_cell_angle_gamma                 92.73396
_cell_volume                      1133.79114359

loop_
_atom_site_label
_atom_site_type_symbol
_atom_type_description
_atom_site_fract_x
_atom_site_fract_y
_atom_site_fract_z
_atom_type_partial_charge
C1    C     C_R   0.497693 0.263103 0.500300 0.535639
C2    C     C_R   0.854952 0.509320 0.000589 -0.105584
C3    C     C_R   0.801720 0.391701 0.030151 -0.110600
C4    C     C_R   0.262439 0.495953 0.498534 0.523535
C5    C     C_R   0.795849 0.300319 0.929131 -0.087057
C6    C     C_R   0.840863 0.326236 0.796510 0.063504
C7    C     C_R   0.888009 0.448266 0.764510 0.079006
C8    C     C_R   0.268998 0.116811 0.530156 -0.108258
C9    C     C_R   0.159696 0.045245 0.542221 -0.131507
C10   C     C_R   0.160782 0.915853 0.539956 -0.127886
C11   C     C_R   0.271202 0.857359 0.525707 -0.099824
C12   C     C_R   0.153491 0.367192 0.971765 -0.115434
C13   C     C_R   0.383189 0.928017 0.513257 0.016448
C14   C     C_R   0.381706 0.059231 0.515378 0.017074
C15   C     C_R   0.493023 0.129255 0.500087 -0.007233
C16   C     C_R   0.500684 0.737043 0.499558 0.532218
C17   C     C_R   0.602957 0.071938 0.481233 -0.136904
C18   C     C_R   0.607240 0.943310 0.486509 -0.027608
C19   C     C_R   0.496711 0.871168 0.499013 0.027262
C20   C     C_R   0.644085 0.681741 0.143114 -0.094203
C21   C     C_R   0.708030 0.776380 0.071971 -0.179636
C22   C     C_R   0.708804 0.775855 0.929297 -0.173870
C23   C     C_R   0.931195 0.489517 0.379329 -0.166477
C24   C     C_R   0.645307 0.680979 0.857819 -0.071109
C25   C     C_R   0.568553 0.591059 0.925677 0.166170
C26   C     C_R   0.568258 0.591194 0.074572 0.153720
C27   C     C_R   0.440512 0.409161 0.073458 0.003995
C28   C     C_R   0.737311 0.496530 0.501791 0.531598
C29   C     C_R   0.441085 0.408909 0.926041 -0.005234
C30   C     C_R   0.166755 0.493415 0.006546 -0.111183
C31   C     C_R   0.141360 0.531396 0.140235 -0.065612
C32   C     C_R   0.105121 0.442626 0.240161 0.061601
C33   C     C_R   0.095561 0.315928 0.205905 -0.093563
C34   C     C_R   0.871257 0.490388 0.505158 -0.013196
C35   C     C_R   0.119452 0.278490 0.071809 -0.122963
C36   C     C_3   0.840907 0.220173 0.696508 -0.405749
C37   C     C_3   0.730495 0.885484 0.483421 -0.399812
C38   C     C_R   0.941130 0.480496 0.628776 -0.032306
C39   C     C_R   0.068205 0.490981 0.622722 -0.165322
C40   C     C_R   0.128114 0.490802 0.496347 -0.015348
C41   C     C_R   0.057306 0.481182 0.373302 -0.032698
C42   C     C_R   0.896635 0.537969 0.868424 -0.103874
Cu1   Cu    Cu3+1 0.499990 0.499990 0.640660 0.917434
Cu2   Cu    Cu3+1 0.500010 0.500010 0.359340 0.915849
H1    H     H_    0.171378 0.337210 0.868024 0.106806
H2    H     H_    0.195526 0.562186 0.929955 0.113407
H3    H     H_    0.663573 0.677604 0.250604 0.179687
H4    H     H_    0.764251 0.845331 0.127933 0.115079
H5    H     H_    0.765598 0.844325 0.873991 0.111290
H6    H     H_    0.666430 0.676408 0.751181 0.177555
H7    H     H_    0.392931 0.333777 0.871275 0.116708
H8    H     H_    0.146920 0.629535 0.164945 0.105501
H9    H     H_    0.065330 0.246871 0.281854 0.099999
H10   H     H_    0.110043 0.181002 0.044952 0.107711
H11   H     H_    0.878794 0.487343 0.284560 0.129168
H12   H     H_    0.765754 0.370222 0.131483 0.126310
H13   H     H_    0.120462 0.492722 0.718050 0.132181
H14   H     H_    0.936817 0.630135 0.847290 0.094905
H15   H     H_    0.863605 0.579719 0.079194 0.112194
H16   H     H_    0.871139 0.248708 0.591733 0.124412
H17   H     H_    0.903103 0.148865 0.736500 0.110619
H18   H     H_    0.746848 0.177230 0.688649 0.140182
H19   H     H_    0.737162 0.828213 0.390034 0.119792
H20   H     H_    0.807286 0.957127 0.482029 0.115050
H21   H     H_    0.743061 0.826215 0.576668 0.117562
H22   H     H_    0.757635 0.208333 0.954905 0.103942
H23   H     H_    0.686317 0.128546 0.464652 0.105996
H24   H     H_    0.264395 0.217102 0.531623 0.114255
H25   H     H_    0.073859 0.090359 0.552907 0.101779
H26   H     H_    0.075743 0.860530 0.549141 0.107388
H27   H     H_    0.267898 0.756819 0.524266 0.127684
H28   H     H_    0.390709 0.334866 0.127676 0.135059
N1    N     N_R   0.501190 0.501210 0.147910 -0.250045
N2    N     N_R   0.501230 0.501290 0.852040 -0.246153
O1    O     O_R   0.499990 0.319640 0.618810 -0.502648
O2    O     O_R   0.500000 0.319660 0.381240 -0.503802
O3    O     O_R   0.319640 0.500000 0.618780 -0.517543
O4    O     O_R   0.319650 0.500020 0.381210 -0.487591
O5    O     O_R   0.500000 0.680340 0.618760 -0.520685
O6    O     O_R   0.500010 0.680360 0.381190 -0.514540
O7    O     O_R   0.680350 0.499980 0.618790 -0.506213
O8    O     O_R   0.680360 0.500000 0.381220 -0.538005

loop_
_geom_bond_atom_site_label_1
_geom_bond_atom_site_label_2
_ccdc_geom_bond_type
C27   C29   A    
C31   H8    S    
C42   H14   S    
C5    C6    A    
C21   C22   A    
C18   C37   S    
C9    H25   S    
C18   C19   A    
Cu2   O8    S    
C30   C31   A    
C11   H27   S    
Cu1   O5    S    
C39   H13   S    
C26   N1    A    
C25   N2    A    
C7    C42   A    
Cu2   O2    S    
C4    C40   S    
C8    C9    A    
C37   H21   S    
C32   C41   S    
C1    C15   S    
C9    C10   A    
C21   H4    S    
Cu1   N2    S    
C28   C34   S    
C13   C14   A    
C35   H10   S    
C24   H6    S    
C36   H18   S    
C37   H19   S    
C33   H9    S    
C17   H23   S    
C13   C19   A    
C28   O8    A    
C1    O1    A    
Cu2   O6    S    
C24   C25   A    
C39   C40   A    
C2    H15   S    
C12   H1    S    
C29   N2    A    
C3    C5    A    
C25   C26   A    
C16   O6    A    
Cu1   Cu2   S    
C4    O4    A    
C3    H12   S    
C31   C32   A    
C23   C34   A    
C17   C18   A    
C12   C35   A    
C22   H5    S    
C10   H26   S    
C40   C41   A    
C8    H24   S    
Cu1   O7    S    
C22   C24   A    
C36   H17   S    
C37   H20   S    
Cu1   O1    S    
C29   H7    S    
C15   C17   A    
C8    C14   A    
C12   C30   A    
C28   O7    A    
C34   C38   A    
C1    O2    A    
C30   H2    S    
C5    H22   S    
C36   H16   S    
C23   H11   S    
C6    C7    A    
Cu1   O3    S    
C23   C41   A    
C16   O5    A    
C32   C33   A    
Cu2   O4    S    
C2    C3    A    
C4    O3    A    
C11   C13   A    
C38   C39   A    
C20   C26   A    
C2    C42   A    
C16   C19   S    
C33   C35   A    
C7    C38   S    
C6    C36   S    
Cu2   N1    S    
C20   H3    S    
C10   C11   A    
C20   C21   A    
C14   C15   A    
C27   N1    A    
C27   H28   S    
