data_mof_unit_47379.cif
_audit_creation_date              2012-12-10T18:23:06-0500
_audit_creation_method            fapswitch 2.2
_symmetry_space_group_name_H-M    P1
_symmetry_Int_Tables_number       1
_space_group_crystal_system       triclinic
_cell_length_a                    14.935324
_cell_length_b                    14.025706
_cell_length_c                    10.519531
_cell_angle_alpha                 89.65331
_cell_angle_beta                  88.021329
_cell_angle_gamma                 89.960565
_cell_volume                      2202.2607135

loop_
_atom_site_label
_atom_site_type_symbol
_atom_type_description
_atom_site_fract_x
_atom_site_fract_y
_atom_site_fract_z
_atom_type_partial_charge
C1    C     C_R   0.327041 0.499976 0.500350 0.883825
C2    C     C_R   0.673056 0.499892 0.497092 0.880767
C3    C     C_R   0.953472 0.505891 0.493889 0.035361
C4    C     C_R   0.047004 0.506157 0.498247 0.034805
C5    C     C_R   0.911442 0.485972 0.378039 0.099703
C6    C     C_R   0.088853 0.513753 0.616827 0.101441
C7    C     C_R   0.943423 0.536757 0.721794 -0.215722
C8    C     C_R   0.057268 0.482425 0.268854 -0.214794
C9    C     C_R   0.035736 0.530416 0.727687 -0.234502
C10   C     C_R   0.964794 0.475824 0.265767 -0.235997
C11   C     C_R   0.555139 0.798554 0.415858 -0.059083
C12   C     C_R   0.444813 0.201526 0.584163 -0.060321
C13   C     C_R   0.444852 0.797855 0.584162 -0.052986
C14   C     C_R   0.555185 0.202151 0.416024 -0.061379
C15   C     C_R   0.443545 0.898501 0.586249 0.013961
C16   C     C_R   0.556519 0.101553 0.413965 0.016666
C17   C     C_R   0.556478 0.899214 0.413871 0.015474
C18   C     C_R   0.443523 0.100872 0.586269 0.015246
C19   C     C_R   0.500017 0.949433 0.500082 0.084326
C20   C     C_R   0.500021 0.050632 0.500110 0.085853
C21   C     C_R   0.387398 0.949219 0.671999 -0.204327
C22   C     C_R   0.612687 0.050883 0.328249 -0.207566
C23   C     C_R   0.612653 0.950638 0.328179 -0.205735
C24   C     C_R   0.387378 0.049476 0.672002 -0.206736
C25   C     C_R   0.501569 0.500482 0.257026 0.844329
C26   C     C_R   0.499074 0.499744 0.742966 0.847395
C27   C     C_3   0.493075 0.591511 0.039828 -0.132302
C28   C     C_3   0.508012 0.410110 0.960311 -0.134491
C29   C     C_3   0.569372 0.552700 0.951978 -0.171794
C30   C     C_3   0.431704 0.449045 0.048096 -0.178047
C31   C     C_3   0.422676 0.538421 0.963010 -0.191235
C32   C     C_3   0.578297 0.463399 0.036806 -0.212678
C33   C     C_3   0.499081 0.499510 0.877933 0.038359
C34   C     C_3   0.502035 0.501904 0.122031 0.039624
C35   C     C_R   0.817498 0.475515 0.378930 0.025921
C36   C     C_R   0.182421 0.502452 0.620758 0.024915
C37   C     C_R   0.768552 0.499825 0.491369 -0.079069
C38   C     C_R   0.231700 0.500136 0.504174 -0.074608
C39   C     C_R   0.810071 0.523970 0.602660 -0.289500
C40   C     C_R   0.190691 0.496961 0.387899 -0.293557
C41   C     C_R   0.902195 0.522645 0.606449 0.127832
C42   C     C_R   0.098462 0.495422 0.384445 0.129622
H1    H     H_    0.359317 0.569168 0.928960 0.128665
H2    H     H_    0.642837 0.434731 0.067644 0.144500
H3    H     H_    0.487270 0.665482 0.076214 0.142109
H4    H     H_    0.513847 0.336032 0.924314 0.143893
H5    H     H_    0.625548 0.594723 0.908312 0.131114
H6    H     H_    0.376908 0.407042 0.095111 0.140492
H7    H     H_    0.769963 0.539814 0.688087 0.137069
H8    H     H_    0.231129 0.492276 0.300291 0.134348
H9    H     H_    0.904011 0.549894 0.808425 0.141350
H10   H     H_    0.096772 0.474510 0.181104 0.143091
H11   H     H_    0.598040 0.758648 0.350347 0.131230
H12   H     H_    0.401855 0.241485 0.649586 0.133235
H13   H     H_    0.401917 0.757405 0.649618 0.131504
H14   H     H_    0.598026 0.242629 0.350779 0.138910
H15   H     H_    0.343484 0.911368 0.739054 0.140762
H16   H     H_    0.656612 0.088746 0.261255 0.146322
H17   H     H_    0.656570 0.913353 0.261106 0.140972
H18   H     H_    0.343451 0.086800 0.739043 0.142244
N1    N     N_R   0.500000 0.750030 0.500000 -0.102482
N2    N     N_R   0.500000 0.249970 0.500000 -0.101402
O1    O     O_R   0.367850 0.580280 0.500030 -0.617957
O2    O     O_R   0.632150 0.419720 0.499970 -0.617869
O3    O     O_R   0.632150 0.580280 0.499970 -0.617289
O4    O     O_R   0.367850 0.419720 0.500030 -0.616602
O5    O     O_R   0.499970 0.580260 0.313950 -0.629543
O6    O     O_R   0.500030 0.419740 0.686050 -0.628501
O7    O     O_R   0.500030 0.580260 0.686050 -0.624422
O8    O     O_R   0.499970 0.419740 0.313950 -0.624642
Zn1   Zn    Zn3+2 0.500000 0.607200 0.500000 0.941671
Zn2   Zn    Zn3+2 0.500000 0.392800 0.500000 0.940689
C43   C     C_3   0.770828 0.432727 0.265723 -0.433422
C44   C     C_3   0.791225 0.325374 0.256341 -0.310813
C45   C     C_3   0.748981 0.280117 0.141363 -0.932130
H19   H     H_    0.674829 0.283681 0.150675 0.258339
H20   H     H_    0.772305 0.316823 0.052411 0.266008
H21   H     H_    0.768912 0.203961 0.135348 0.251088
H22   H     H_    0.864635 0.313009 0.248716 0.227810
H23   H     H_    0.765181 0.288761 0.344061 0.227010
H24   H     H_    0.697251 0.441743 0.273997 0.196208
H25   H     H_    0.791024 0.470781 0.176538 0.182920
C46   C     C_3   0.227702 0.480137 0.745252 -0.428825
C47   C     C_3   0.202153 0.378823 0.789831 -0.316244
C48   C     C_3   0.251276 0.349551 0.908118 -0.922843
H26   H     H_    0.324330 0.345840 0.885666 0.268319
H27   H     H_    0.237258 0.401302 0.985796 0.258842
H28   H     H_    0.228170 0.277898 0.940404 0.252041
H29   H     H_    0.128987 0.374143 0.811456 0.225558
H30   H     H_    0.219258 0.327204 0.712854 0.226354
H31   H     H_    0.301679 0.483905 0.734583 0.194335
H32   H     H_    0.209638 0.533677 0.818931 0.181873
H33   H     H_    0.064229 0.539421 0.819773 0.150993
H34   H     H_    0.936475 0.463115 0.174370 0.154122

loop_
_geom_bond_atom_site_label_1
_geom_bond_atom_site_label_2
_ccdc_geom_bond_type
C14   H14   S    
C27   C29   S    
C43   C44   S    
C19   C20   A    
C25   O5    A    
C2    O3    A    
C6    C9    A    
C39   C41   A    
C48   H26   S    
C23   H17   S    
C46   H32   S    
C28   H4    S    
C17   C23   A    
C31   H1    S    
C29   H5    S    
C18   C24   A    
C30   H6    S    
C35   C37   A    
C8    C42   A    
C29   C32   S    
C30   C31   S    
C10   H34   S    
C36   C46   S    
C14   N2    A    
C29   C33   S    
O7    Zn1   S    
O4    Zn2   S    
C31   C33   S    
C35   C43   S    
C8    H10   S    
C18   C20   A    
C11   H11   S    
C16   C20   A    
C25   C34   S    
N1    Zn1   S    
C40   C42   A    
C44   H23   S    
C47   H30   S    
C1    O1    A    
C43   H24   S    
C2    O2    A    
C48   H27   S    
C27   C34   S    
C44   C45   S    
C30   C34   S    
C27   C31   S    
C28   C32   S    
C47   C48   S    
C4    C6    A    
C11   N1    A    
O3    Zn1   S    
O6    Zn2   S    
C32   C34   S    
C15   C19   A    
C45   H19   S    
C21   H15   S    
C12   N2    A    
C26   C33   S    
C46   C47   S    
C24   H18   S    
C1    O4    A    
C32   H2    S    
N2    Zn2   S    
C45   H20   S    
C1    C38   S    
C39   H7    S    
O1    Zn1   S    
C28   C33   S    
C44   H22   S    
C13   C15   A    
C14   C16   A    
C47   H29   S    
C3    C4    A    
C9    H33   S    
C43   H25   S    
C48   H28   S    
C7    C9    A    
C3    C41   A    
C16   C22   A    
C3    C5    A    
C11   C17   A    
C22   H16   S    
C46   H31   S    
C26   O6    A    
C28   C30   S    
C7    H9    S    
C5    C10   A    
C37   C39   A    
C38   C40   A    
C2    C37   S    
C27   H3    S    
C4    C42   A    
C40   H8    S    
C5    C35   A    
C36   C38   A    
C17   C19   A    
C6    C36   A    
O5    Zn1   S    
C7    C41   A    
C45   H21   S    
C15   C21   A    
C13   N1    A    
C8    C10   A    
C21   C24   A    
C12   C18   A    
C26   O7    A    
C22   C23   A    
O8    Zn2   S    
C25   O8    A    
C12   H12   S    
O2    Zn2   S    
C13   H13   S    
