data_mof_unit_25854.cif
_audit_creation_date              2012-12-11T17:44:03-0500
_audit_creation_method            fapswitch 2.2
_symmetry_space_group_name_H-M    P1
_symmetry_Int_Tables_number       1
_space_group_crystal_system       triclinic
_cell_length_a                    20.254205
_cell_length_b                    22.699977
_cell_length_c                    7.038066
_cell_angle_alpha                 89.999983
_cell_angle_beta                  88.333176
_cell_angle_gamma                 90.0
_cell_volume                      3234.52231583

loop_
_atom_site_label
_atom_site_type_symbol
_atom_type_description
_atom_site_fract_x
_atom_site_fract_y
_atom_site_fract_z
_atom_type_partial_charge
O1    O     O_R   0.751270 0.447300 0.600030 -0.542680
O2    O     O_R   0.248730 0.947300 0.399970 -0.542680
O3    O     O_R   0.613530 0.440160 0.952150 -0.544234
O4    O     O_R   0.386470 0.940160 0.047850 -0.544234
O5    O     O_R   0.613050 0.552700 0.122560 -0.534597
O6    O     O_R   0.386950 0.052700 0.877440 -0.534597
C1    C     C_R   0.591786 0.425659 0.785264 0.770388
C2    C     C_R   0.408214 0.925659 0.214736 0.770389
O7    O     O_R   0.750780 0.440350 0.929820 -0.545003
O8    O     O_R   0.249220 0.940350 0.070180 -0.545003
O9    O     O_R   0.751280 0.552900 0.100070 -0.540181
O10   O     O_R   0.248720 0.052900 0.899930 -0.540181
C3    C     C_R   0.775277 0.427571 0.760680 0.695947
C4    C     C_R   0.224723 0.927571 0.239320 0.695946
O11   O     O_R   0.613040 0.447100 0.622520 -0.528736
O12   O     O_R   0.386960 0.947100 0.377480 -0.528736
O13   O     O_3   0.682160 0.536920 0.777780 -0.369001
O14   O     O_3   0.317840 0.036920 0.222220 -0.369001
V1    V     V_3+5 0.682160 0.493150 0.052630 1.402928
V2    V     V_3+5 0.317840 0.993150 0.947370 1.402928
O15   O     O_R   0.750790 0.559840 0.429870 -0.546354
O16   O     O_R   0.249210 0.059840 0.570130 -0.546354
C5    C     C_R   0.773800 0.573725 0.259950 0.685966
C6    C     C_R   0.226200 0.073725 0.740050 0.685966
O17   O     O_R   0.613540 0.559650 0.452200 -0.528601
O18   O     O_R   0.386460 0.059650 0.547800 -0.528601
C7    C     C_R   0.591696 0.574077 0.285674 0.712772
C8    C     C_R   0.408304 0.074077 0.714325 0.712773
V3    V     V_3+5 0.682160 0.506850 0.552630 1.431316
V4    V     V_3+5 0.317840 0.006850 0.447370 1.431316
O19   O     O_3   0.682150 0.463080 0.277610 -0.376574
O20   O     O_3   0.317850 0.963080 0.722390 -0.376575
C9    C     C_R   0.579949 0.861894 0.224706 -0.245894
C10   C     C_R   0.420051 0.361894 0.775295 -0.245893
H1    H     H_    0.670476 0.778013 0.220483 0.123812
H2    H     H_    0.329524 0.278013 0.779518 0.123812
H3    H     H_    0.630409 0.877885 0.221780 0.131161
H4    H     H_    0.369591 0.377885 0.778221 0.131161
C11   C     C_R   0.462884 0.882786 0.220148 -0.166355
C12   C     C_R   0.537116 0.382786 0.779852 -0.166356
C13   C     C_R   0.472945 0.594163 0.317404 -0.251261
C14   C     C_R   0.527055 0.094163 0.682595 -0.251261
C15   C     C_R   0.419250 0.631703 0.338732 -0.180643
C16   C     C_R   0.580750 0.131703 0.661267 -0.180643
C17   C     C_R   0.427056 0.692858 0.328009 0.449821
C18   C     C_R   0.572944 0.192858 0.671990 0.449821
C19   C     C_R   0.490058 0.717772 0.277940 -0.016646
C20   C     C_R   0.509942 0.217772 0.722059 -0.016646
C21   C     C_R   0.545619 0.678442 0.266085 0.011931
C22   C     C_R   0.454380 0.178442 0.733915 0.011931
C23   C     C_R   0.501034 0.779976 0.249453 0.090596
C24   C     C_R   0.498966 0.279976 0.750546 0.090596
C25   C     C_R   0.567045 0.801212 0.236232 0.072866
C26   C     C_R   0.432955 0.301212 0.763768 0.072865
C27   C     C_R   0.620138 0.761942 0.233332 -0.171965
C28   C     C_R   0.379862 0.261942 0.766668 -0.171965
C29   C     C_R   0.609638 0.701620 0.242628 -0.161233
C30   C     C_R   0.390362 0.201620 0.757372 -0.161233
C31   C     C_R   0.449570 0.822068 0.229832 -0.284952
C32   C     C_R   0.550430 0.322068 0.770168 -0.284952
C33   C     C_R   0.528354 0.902719 0.218087 0.455251
C34   C     C_R   0.471646 0.402719 0.781913 0.455251
C35   C     C_R   0.536319 0.616567 0.284548 -0.080284
C36   C     C_R   0.463680 0.116567 0.715451 -0.080284
H5    H     H_    0.398797 0.809388 0.215715 0.187170
H6    H     H_    0.601203 0.309388 0.784285 0.187169
H7    H     H_    0.465306 0.547193 0.334424 0.140695
H8    H     H_    0.534694 0.047193 0.665576 0.140695
H9    H     H_    0.371034 0.613234 0.372696 0.147947
H10   H     H_    0.628966 0.113234 0.627303 0.147947
H11   H     H_    0.652577 0.673195 0.235763 0.102890
H12   H     H_    0.347423 0.173195 0.764237 0.102889
C37   C     C_R   0.166979 0.885764 0.248584 -0.069921
C38   C     C_R   0.833021 0.385764 0.751416 -0.069921
C39   C     C_R   0.130236 0.868352 0.087553 0.071158
C40   C     C_R   0.869764 0.368352 0.912447 0.071158
C41   C     C_R   0.085441 0.819597 0.105228 0.096860
C42   C     C_R   0.914559 0.319597 0.894772 0.096860
C43   C     C_R   0.061434 0.802846 0.288137 0.397986
C44   C     C_R   0.938566 0.302846 0.711863 0.397986
C45   C     C_R   0.088831 0.829890 0.442856 -0.246325
C46   C     C_R   0.911169 0.329891 0.557144 -0.246325
C47   C     C_R   0.145062 0.864931 0.425575 -0.247245
C48   C     C_R   0.854938 0.364931 0.574425 -0.247245
C49   C     C_R   0.907074 0.681241 0.409772 -0.148214
C50   C     C_R   0.092926 0.181241 0.590229 -0.148214
C51   C     C_R   0.850416 0.645712 0.414380 -0.216887
C52   C     C_R   0.149584 0.145712 0.585620 -0.216887
C53   C     C_R   0.946023 0.685927 0.241860 0.420256
C54   C     C_R   0.053977 0.185927 0.758141 0.420256
N1    N     N_2   0.004305 0.766517 0.321434 -0.306324
N2    N     N_2   0.995695 0.266517 0.678566 -0.306325
N3    N     N_2   0.005430 0.719401 0.229963 -0.311278
N4    N     N_2   0.994570 0.219402 0.770038 -0.311278
C55   C     C_R   0.830934 0.615010 0.250766 -0.046165
C56   C     C_R   0.169066 0.115010 0.749234 -0.046164
H13   H     H_    0.822246 0.641875 0.546954 0.137078
H14   H     H_    0.177754 0.141875 0.453046 0.137078
H15   H     H_    0.921272 0.703721 0.537883 0.126046
H16   H     H_    0.078728 0.203721 0.462117 0.126046
H17   H     H_    0.065706 0.823121 0.576605 0.153902
H18   H     H_    0.934294 0.323121 0.423394 0.153902
H19   H     H_    0.169524 0.878462 0.551402 0.142277
H20   H     H_    0.830476 0.378462 0.448598 0.142277
C57   C     C_R   0.869096 0.621495 0.082133 -0.207261
C58   C     C_R   0.130904 0.121495 0.917867 -0.207261
C59   C     C_R   0.926582 0.655643 0.079227 -0.188085
C60   C     C_R   0.073418 0.155643 0.920773 -0.188085
H21   H     H_    0.855598 0.598994 0.953352 0.133384
H22   H     H_    0.144402 0.098994 0.046648 0.133384
H23   H     H_    0.955979 0.658997 0.948610 0.126409
H24   H     H_    0.044021 0.158997 0.051390 0.126409
O21   O     O_3   0.541785 0.962430 0.219689 -0.558303
C61   C     C_3   0.560462 0.980092 0.033837 -0.254755
H25   H     H_    0.520868 0.970507 0.931742 0.134317
H26   H     H_    0.607627 0.958983 0.985773 0.135137
H27   H     H_    0.568506 0.028426 0.033901 0.174152
O22   O     O_3   0.458215 0.462430 0.780312 -0.558303
C62   C     C_3   0.439540 0.480092 0.966165 -0.254756
H28   H     H_    0.479136 0.470509 0.068255 0.134319
H29   H     H_    0.392375 0.458982 0.014235 0.135137
H30   H     H_    0.431494 0.528426 0.966100 0.174152
C63   C     C_3   0.065995 0.785041 0.932834 -0.332294
C64   C     C_3   0.995795 0.800282 0.871685 -0.726307
H31   H     H_    0.958563 0.792220 0.986998 0.251258
H32   H     H_    0.992149 0.847339 0.830818 0.215377
H33   H     H_    0.982642 0.772437 0.748907 0.214681
H34   H     H_    0.104257 0.791396 0.820366 0.147679
H35   H     H_    0.070725 0.737053 0.956432 0.202326
C65   C     C_3   0.934005 0.285041 0.067166 -0.332294
C66   C     C_3   0.004205 0.300282 0.128315 -0.726306
H36   H     H_    0.041437 0.292220 0.013002 0.251258
H37   H     H_    0.007851 0.347339 0.169182 0.215377
H38   H     H_    0.017358 0.272437 0.251094 0.214681
H39   H     H_    0.895743 0.291397 0.179634 0.147679
H40   H     H_    0.929275 0.237053 0.043568 0.202326
C67   C     C_3   0.128605 0.907259 0.911965 -0.357838
C68   C     C_3   0.100587 0.968253 0.958584 -0.712441
H41   H     H_    0.049784 0.964169 0.021046 0.223205
H42   H     H_    0.131685 0.992061 0.060187 0.214211
H43   H     H_    0.098372 0.994661 0.826113 0.209360
H44   H     H_    0.177891 0.910727 0.841916 0.194101
H45   H     H_    0.095691 0.889236 0.804931 0.182893
C69   C     C_3   0.871395 0.407259 0.088034 -0.357837
C70   C     C_3   0.899413 0.468253 0.041415 -0.712443
H46   H     H_    0.950216 0.464169 0.978952 0.223205
H47   H     H_    0.868315 0.492061 0.939812 0.214211
H48   H     H_    0.901629 0.494661 0.173886 0.209360
H49   H     H_    0.822109 0.410727 0.158083 0.194101
H50   H     H_    0.904309 0.389236 0.195069 0.182893
O23   O     O_3   0.372643 0.726812 0.376728 -0.568526
C71   C     C_3   0.373653 0.738816 0.573335 -0.263654
H51   H     H_    0.419042 0.763314 0.611282 0.145381
H52   H     H_    0.369114 0.697615 0.658506 0.148185
H53   H     H_    0.330654 0.767108 0.611875 0.165944
O24   O     O_3   0.627357 0.226812 0.623271 -0.568526
C72   C     C_3   0.626347 0.238816 0.426663 -0.263654
H54   H     H_    0.580957 0.263314 0.388717 0.145381
H55   H     H_    0.630885 0.197615 0.341493 0.148185
H56   H     H_    0.669345 0.267108 0.388123 0.165944

loop_
_geom_bond_atom_site_label_1
_geom_bond_atom_site_label_2
_ccdc_geom_bond_type
V4    O20   S    
C67   H44   S    
C52   C56   A    
C72   H54   S    
C12   C32   A    
C54   N4    S    
C14   C36   A    
C22   C36   A    
C65   H39   S    
O4    C2    A    
C66   H38   S    
V1    O19   S    
C70   H46   S    
C21   C29   A    
C63   C64   S    
C13   H7    S    
C45   H17   S    
C57   C59   A    
O9    V1    S    
C38   C40   A    
C21   C35   A    
O24   C72   S    
C40   C42   A    
O3    C1    A    
C6    C56   S    
C58   H22   S    
O13   V3    S    
C42   C44   A    
O12   V4    S    
C10   C34   A    
C12   C34   A    
O17   V3    S    
C17   C19   A    
O7    C3    A    
O22   C62   S    
C69   H50   S    
C24   C32   A    
C70   H47   S    
O5    C7    A    
O7    V1    S    
O6    C8    A    
O8    V2    S    
C51   C55   A    
C1    C12   S    
O3    V1    S    
O14   V4    S    
C2    C11   S    
C28   C30   A    
C50   H16   S    
C43   N1    S    
C49   C51   A    
C67   H45   S    
C32   H6    S    
C72   H55   S    
C63   H35   S    
C14   H8    S    
C13   C15   A    
C53   C59   A    
C14   C16   A    
O1    V3    S    
C45   C47   A    
C24   C26   A    
O11   V3    S    
C18   C20   A    
C25   C27   A    
C9    C25   A    
C11   C33   A    
C26   C28   A    
C50   C52   A    
H1    C27   S    
C22   C30   A    
C4    C37   S    
C44   C46   A    
C50   C54   A    
C43   C45   A    
C49   C53   A    
C19   C23   A    
C1    O11   A    
C16   C18   A    
O15   V3    S    
C9    H3    S    
C60   H24   S    
C23   C25   A    
C44   N2    S    
C69   H49   S    
C41   C63   S    
N1    N3    D    
C39   C41   A    
C71   H53   S    
O23   C71   S    
C11   C31   A    
O10   V2    S    
N2    N4    D    
C46   H18   S    
C41   C43   A    
C29   H11   S    
C16   H10   S    
C20   C22   A    
C15   C17   A    
C62   H29   S    
C47   H19   S    
C64   H33   S    
O5    V1    S    
C40   C69   S    
C9    C33   A    
C71   H52   S    
C10   C26   A    
C72   H56   S    
C46   C48   A    
O15   C5    A    
C39   C67   S    
C48   H20   S    
O16   C6    A    
O1    C3    A    
C37   C39   A    
C66   H36   S    
C8    C36   S    
C70   H48   S    
O6    V2    S    
C64   H32   S    
O21   C61   S    
V2    O20   S    
C62   H30   S    
C57   H21   S    
O16   V4    S    
C10   H4    S    
C59   H23   S    
C65   H40   S    
C38   C48   A    
C69   C70   S    
C66   H37   S    
C68   H43   S    
C61   H26   S    
C62   H28   S    
C61   H25   S    
C68   H42   S    
C55   C57   A    
O17   C7    A    
C18   O24   S    
C67   C68   S    
O10   C6    A    
O18   C8    A    
O2    V4    S    
C27   C29   A    
C65   C66   S    
C42   C65   S    
C54   C60   A    
V3    O19   S    
C19   C21   A    
C31   H5    S    
C33   O21   S    
C49   H15   S    
C30   H12   S    
C63   H34   S    
C58   C60   A    
O9    C5    A    
H2    C28   S    
O13   V1    S    
C5    C55   S    
O14   V2    S    
C53   N3    S    
O2    C4    A    
C34   O22   S    
C61   H27   S    
C68   H41   S    
O4    V2    S    
C20   C24   A    
C23   C31   A    
C3    C38   S    
C2    O12   A    
C56   C58   A    
C13   C35   A    
C7    C35   S    
C71   H51   S    
C17   O23   S    
C15   H9    S    
C37   C47   A    
C52   H14   S    
O8    C4    A    
C64   H31   S    
C51   H13   S    
O18   V4    S    
