data_mof_unit_14386.cif
_audit_creation_date              2012-12-10T18:33:36-0500
_audit_creation_method            fapswitch 2.2
_symmetry_space_group_name_H-M    P1
_symmetry_Int_Tables_number       1
_space_group_crystal_system       triclinic
_cell_length_a                    10.522147
_cell_length_b                    14.986641
_cell_length_c                    15.505827
_cell_angle_alpha                 82.413828
_cell_angle_beta                  89.451671
_cell_angle_gamma                 104.027481
_cell_volume                      2349.26335222

loop_
_atom_site_label
_atom_site_type_symbol
_atom_type_description
_atom_site_fract_x
_atom_site_fract_y
_atom_site_fract_z
_atom_type_partial_charge
C1    C     C_R   0.478792 0.441904 0.662047 0.895960
C2    C     C_R   0.516762 0.558051 0.337964 0.903262
C3    C     C_R   0.449068 0.471694 0.811194 -0.250032
C4    C     C_R   0.484561 0.526338 0.188494 -0.236317
C5    C     C_R   0.415436 0.443811 0.899402 0.094138
C6    C     C_R   0.450706 0.549076 0.103341 0.085415
C7    C     C_R   0.389501 0.347892 0.931755 0.154142
C8    C     C_R   0.457045 0.643361 0.072453 0.172005
C9    C     C_R   0.417078 0.509855 0.956959 0.071731
C10   C     C_R   0.417697 0.480709 0.047188 0.052394
C11   C     C_R   0.385579 0.384377 0.078218 -0.192093
C12   C     C_R   0.419933 0.604007 0.927515 -0.189469
C13   C     C_R   0.369058 0.318979 0.020955 -0.186911
C14   C     C_R   0.437016 0.669283 0.985036 -0.199592
C15   C     C_R   0.694045 0.840557 0.639655 -0.129233
C16   C     C_R   0.304223 0.158954 0.361391 -0.125363
C17   C     C_R   0.660849 0.751784 0.615423 -0.030875
C18   C     C_R   0.338065 0.247908 0.385230 -0.042260
C19   C     C_R   0.517557 0.794958 0.509809 -0.057652
C20   C     C_R   0.482917 0.205153 0.489906 -0.058988
C21   C     C_R   0.545771 0.886438 0.529940 -0.003979
C22   C     C_R   0.454169 0.113546 0.470092 -0.006418
C23   C     C_R   0.742159 0.500326 0.500161 0.911621
C24   C     C_R   0.257844 0.499957 0.499038 0.927165
C25   C     C_R   0.632337 0.908133 0.598452 0.086683
C26   C     C_R   0.366812 0.091639 0.402052 0.092502
C27   C     C_R   0.488295 0.955559 0.485840 0.100699
C28   C     C_R   0.511686 0.044440 0.514155 0.097984
C29   C     C_R   0.590084 0.060974 0.586510 -0.239120
C30   C     C_R   0.409635 0.938985 0.413598 -0.239666
C31   C     C_R   0.649856 0.994861 0.626869 -0.150251
C32   C     C_R   0.349335 0.004951 0.373558 -0.149704
C33   C     C_3   0.929254 0.417171 0.481753 -0.168822
C34   C     C_3   0.070466 0.583561 0.516149 -0.184787
C35   C     C_3   0.018451 0.432212 0.560119 -0.243863
C36   C     C_3   0.981096 0.568431 0.437830 -0.248758
C37   C     C_3   0.122786 0.500181 0.497889 -0.073395
C38   C     C_3   0.877184 0.500439 0.499925 -0.054445
C39   C     C_3   0.035367 0.485510 0.420557 0.012891
C40   C     C_3   0.964165 0.515125 0.577187 0.016608
C41   C     C_R   0.450032 0.407095 0.754399 -0.049912
C42   C     C_R   0.508019 0.591817 0.246031 -0.034831
C43   C     C_R   0.387758 0.282510 0.874492 -0.188323
C44   C     C_R   0.484797 0.710349 0.129479 -0.184356
C45   C     C_R   0.417265 0.312002 0.785881 -0.173364
C46   C     C_R   0.508092 0.684351 0.216537 -0.187124
H1    H     H_    0.552366 0.229759 0.537076 0.135012
H2    H     H_    0.448916 0.770503 0.462147 0.130669
H3    H     H_    0.293177 0.301459 0.355309 0.187095
H4    H     H_    0.705216 0.698059 0.645681 0.178921
H5    H     H_    0.605847 0.124148 0.615208 0.142341
H6    H     H_    0.393731 0.875820 0.384883 0.136537
H7    H     H_    0.868852 0.349445 0.467372 0.170809
H8    H     H_    0.130875 0.651303 0.530475 0.184099
H9    H     H_    0.345855 0.245809 0.046821 0.170033
H10   H     H_    0.438915 0.740761 0.960440 0.153757
H11   H     H_    0.524925 0.736043 0.260563 0.156218
H12   H     H_    0.415968 0.260825 0.742469 0.160651
H13   H     H_    0.365926 0.208924 0.898465 0.143111
H14   H     H_    0.487522 0.782400 0.106903 0.141719
H15   H     H_    0.369707 0.357809 0.146651 0.181257
H16   H     H_    0.405398 0.628487 0.860572 0.156570
H17   H     H_    0.706316 0.011869 0.682898 0.182980
H18   H     H_    0.292551 0.987903 0.317667 0.181086
N1    N     N_R   0.574200 0.731700 0.552740 -0.114378
N2    N     N_R   0.425800 0.268300 0.447260 -0.112359
O1    O     O_R   0.462600 0.383110 0.605620 -0.624081
O2    O     O_R   0.537400 0.616890 0.394380 -0.628628
O3    O     O_R   0.510210 0.531900 0.639510 -0.621960
O4    O     O_R   0.489790 0.468100 0.360490 -0.601950
O5    O     O_R   0.662240 0.425610 0.483080 -0.618872
O6    O     O_R   0.337760 0.574390 0.516920 -0.632073
O7    O     O_R   0.709860 0.574400 0.516970 -0.620075
O8    O     O_R   0.290140 0.425600 0.483030 -0.594247
Zn1   Zn    Zn3+2 0.468210 0.400660 0.477370 0.972697
Zn2   Zn    Zn3+2 0.531790 0.599340 0.522630 0.957776
H19   H     H_    0.037564 0.377260 0.610047 0.164253
H20   H     H_    0.961751 0.623419 0.388036 0.164984
C47   C     C_2   0.795041 0.859795 0.705545 0.901907
O9    O     O_2   0.796571 0.800833 0.767862 -0.609659
O10   O     O_R   0.892130 0.943172 0.694438 -0.799690
H21   H     H_    0.956070 0.947257 0.743110 0.350550
C48   C     C_2   0.201085 0.139046 0.296940 0.887207
O11   O     O_2   0.196456 0.198018 0.235284 -0.649113
O12   O     O_R   0.105347 0.054990 0.308828 -0.797751
H22   H     H_    0.039693 0.050491 0.261181 0.350525
C49   C     C_2   0.071043 0.468582 0.331359 0.901059
O13   O     O_2   0.986803 0.456808 0.277434 -0.608189
O14   O     O_R   0.199266 0.466332 0.309994 -0.818859
H23   H     H_    0.209873 0.453253 0.248182 0.348680
C50   C     C_2   0.918040 0.530482 0.664457 0.903119
O15   O     O_2   0.968792 0.601646 0.694168 -0.605568
O16   O     O_R   0.816220 0.463345 0.710988 -0.819715
H24   H     H_    0.792083 0.481839 0.768371 0.351772
H25   H     H_    0.494280 0.457199 0.211053 0.164766
H26   H     H_    0.480149 0.544479 0.786152 0.169704

loop_
_geom_bond_atom_site_label_1
_geom_bond_atom_site_label_2
_ccdc_geom_bond_type
C25   C31   A    
C14   H10   S    
C49   O13   D    
C26   C32   A    
O16   H24   S    
C34   C37   S    
C39   C49   S    
O6    Zn2   S    
O10   H21   S    
O12   H22   S    
C33   C39   S    
N1    Zn2   S    
C34   C40   S    
C20   N2    A    
C28   C29   A    
C19   C21   A    
C44   H14   S    
C2    O2    A    
C15   C25   A    
O3    Zn2   S    
C42   C46   A    
C30   H6    S    
C33   C35   S    
C15   C47   S    
C3    H26   S    
C7    C43   A    
C9    C10   A    
C43   H13   S    
C21   C27   A    
C38   C40   S    
C22   C28   A    
C27   C30   A    
C33   H7    S    
C23   O7    A    
C44   C46   A    
C16   C26   A    
C45   H12   S    
O5    Zn1   S    
O8    Zn1   S    
C23   O5    A    
C32   H18   S    
C4    C6    A    
C50   O15   D    
C47   O10   S    
C19   H2    S    
C6    C8    A    
C3    C5    A    
C35   H19   S    
C16   C48   S    
C1    O3    A    
C5    C9    A    
C31   H17   S    
C50   O16   S    
C4    H25   S    
C12   H16   S    
C48   O11   D    
C24   C37   S    
C16   C18   A    
C43   C45   A    
C1    C41   S    
C48   O12   S    
C20   C22   A    
C34   H8    S    
C49   O14   S    
C46   H11   S    
O7    Zn2   S    
O2    Zn2   S    
O4    Zn1   S    
C24   O6    A    
C5    C7    A    
C29   H5    S    
C15   C17   A    
C21   C25   A    
C3    C41   A    
C8    C14   A    
C35   C37   S    
C36   C39   S    
C8    C44   A    
C12   C14   A    
C11   H15   S    
C17   H4    S    
C6    C10   A    
C18   N2    A    
C23   C38   S    
C17   N1    A    
C33   C38   S    
C36   C38   S    
C35   C40   S    
C37   C39   S    
C36   H20   S    
C30   C32   A    
C11   C13   A    
C24   O8    A    
C4    C42   A    
C2    C42   S    
N2    Zn1   S    
C1    O1    A    
C19   N1    A    
C34   C36   S    
C40   C50   S    
C9    C12   A    
C20   H1    S    
C10   C11   A    
C47   O9    D    
C7    C13   A    
O1    Zn1   S    
C29   C31   A    
C22   C26   A    
C27   C28   A    
C41   C45   A    
O14   H23   S    
C2    O4    A    
C18   H3    S    
C13   H9    S    
