data_mof_unit_40629.cif
_audit_creation_date              2013-03-05T16:41:45-0500
_audit_creation_method            fapswitch 2.2
_symmetry_space_group_name_H-M    P1
_symmetry_Int_Tables_number       1
_space_group_crystal_system       triclinic
_cell_length_a                    10.634856
_cell_length_b                    10.718768
_cell_length_c                    9.900959
_cell_angle_alpha                 89.06332
_cell_angle_beta                  92.023305
_cell_angle_gamma                 92.205963
_cell_volume                      1126.96910768

loop_
_atom_site_label
_atom_site_type_symbol
_atom_site_description
_atom_site_fract_x
_atom_site_fract_y
_atom_site_fract_z
_atom_type_partial_charge
O1    O     O_R   0.500020 0.316790 0.614690 -0.591442
O2    O     O_R   0.500000 0.316760 0.385350 -0.582200
C1    C     C_R   0.506811 0.260813 0.500911 0.923640
O3    O     O_R   0.316770 0.500020 0.614690 -0.614906
O4    O     O_R   0.316760 0.499980 0.385350 -0.631993
C2    C     C_R   0.260488 0.495399 0.497290 0.854768
Zn1   Zn    Zn3+2 0.500010 0.500020 0.653130 1.016788
Zn2   Zn    Zn3+2 0.499990 0.499980 0.346870 0.994984
O5    O     O_R   0.500000 0.683240 0.614650 -0.597883
O6    O     O_R   0.499980 0.683210 0.385310 -0.647518
O7    O     O_R   0.683240 0.500020 0.614650 -0.566981
O8    O     O_R   0.683230 0.499980 0.385310 -0.611324
C3    C     C_R   0.501269 0.740202 0.498648 0.920086
C4    C     C_R   0.740126 0.508624 0.502842 0.890365
H1    H     H_    0.101353 0.302344 0.487050 0.168817
C5    C     C_R   0.145284 0.732430 0.474443 -0.250439
H2    H     H_    0.241884 0.732761 0.444084 0.152607
C6    C     C_R   0.091462 0.846518 0.492901 -0.266739
H3    H     H_    0.146920 0.931805 0.475512 0.178705
C7    C     C_R   0.970976 0.851065 0.543869 0.346779
C8    C     C_R   0.900615 0.737998 0.567689 0.167334
C9    C     C_R   0.946943 0.623977 0.521514 -0.052437
C10   C     C_R   0.074454 0.620182 0.493066 0.090519
C11   C     C_R   0.128656 0.503115 0.489453 -0.067007
C12   C     C_R   0.057424 0.391798 0.491107 -0.191782
H4    H     H_    0.872334 0.309780 0.491578 0.207420
C13   C     C_R   0.928939 0.396004 0.496322 -0.091961
C14   C     C_R   0.873930 0.510647 0.511294 -0.057751
C15   C     C_R   0.505201 0.061934 0.619883 0.130461
C16   C     C_R   0.528713 0.130738 0.502837 -0.322356
C17   C     C_R   0.569192 0.070256 0.387021 0.295750
C18   C     C_R   0.556746 0.940653 0.382365 0.341861
C19   C     C_R   0.513730 0.873149 0.496774 -0.261482
C20   C     C_R   0.498901 0.935124 0.617040 0.210176
C21   C     C_3   0.395564 0.925129 0.715340 -0.489677
C22   C     C_3   0.401276 0.066754 0.717248 -0.359807
H5    H     H_    0.306157 0.884831 0.670609 0.204864
H6    H     H_    0.426963 0.881723 0.812943 0.240024
H7    H     H_    0.315388 0.108980 0.671832 0.227901
H8    H     H_    0.434724 0.104971 0.816432 0.266619
C23   C     C_R   0.429639 0.412303 0.070401 0.148823
N1    N     N_R   0.499160 0.499140 0.142800 -0.178530
C24   C     C_R   0.576743 0.581119 0.070794 0.448139
C25   C     C_R   0.573717 0.581908 0.928165 -0.081562
H9    H     H_    0.628893 0.651474 0.874412 0.248905
N2    N     N_R   0.499160 0.499180 0.857150 -0.194632
C26   C     C_R   0.429578 0.412304 0.927819 0.234557
C27   C     C_3   0.289473 0.395412 0.918996 0.196268
C28   C     C_3   0.290250 0.393332 0.072532 -0.521596
H10   H     H_    0.241418 0.475974 0.870400 0.136800
H11   H     H_    0.243458 0.474281 0.114878 0.193546
H12   H     H_    0.262148 0.301179 0.117627 0.242436
O9    O     O_3   0.658742 0.666543 0.131915 -0.690503
H13   H     H_    0.654433 0.655670 0.229809 0.402093
O10   O     O_3   0.252596 0.279651 0.864059 -0.732872
H14   H     H_    0.159207 0.277405 0.859184 0.371119
N3    N     N_R   0.926140 0.969949 0.580439 0.244581
O11   O     O_R   0.002633 0.051652 0.639091 -0.399573
O12   O     O_R   0.818372 0.005933 0.531214 -0.356746
N4    N     N_R   0.813978 0.732138 0.675726 0.197827
O13   O     O_R   0.738161 0.821897 0.694138 -0.357492
O14   O     O_R   0.835663 0.654524 0.775547 -0.377716
N5    N     N_R   0.619579 0.138507 0.273615 0.263950
O15   O     O_R   0.714024 0.217949 0.291738 -0.355366
O16   O     O_R   0.577077 0.115598 0.151305 -0.349535
O17   O     O_3   0.587835 0.882473 0.266475 -0.658372
H15   H     H_    0.506400 0.857519 0.220779 0.350670

loop_
_geom_bond_atom_site_label_1
_geom_bond_atom_site_label_2
_geom_bond_distance
_ccdc_geom_bond_type
O4    Zn2   1.998678 S    
C10   C11   1.402397 A    
N5    O16   1.301389 A    
C3    C19   1.425961 S    
C15   C16   1.388417 A    
C1    C16   1.422099 S    
C23   N1    1.363170 A    
C17   C18   1.391756 A    
C21   C22   1.517330 S    
O8    C4    1.295511 A    
Zn2   O8    1.972316 S    
C28   H12   1.112035 S    
C2    C11   1.406959 S    
C18   C19   1.414311 A    
O10   H14   0.992034 S    
C27   H10   1.114181 S    
C19   C20   1.389689 A    
C23   C26   1.411676 A    
C27   O10   1.399578 S    
O6    C3    1.285798 A    
C5    C6    1.387470 A    
C9    C14   1.419378 A    
C8    C9    1.423370 A    
C11   C12   1.388695 A    
N4    O14   1.301487 A    
Zn1   O7    1.998677 S    
C15   C22   1.494925 S    
N3    O11   1.301673 A    
C16   C17   1.414618 A    
O3    Zn1   1.972316 S    
Zn2   O6    2.006640 S    
C27   C28   1.519692 S    
C21   H5    1.109817 S    
Zn2   N1    2.020362 S    
O17   H15   0.992348 S    
C5    C10   1.407757 A    
C6    C7    1.396481 A    
O1    Zn1   2.006640 S    
C24   C25   1.411286 A    
H4    C13   1.084145 S    
O4    C2    1.277386 A    
O7    C4    1.280478 A    
N3    O12   1.299342 A    
O3    C2    1.289300 A    
H1    C12   1.084572 S    
N1    C24   1.387952 A    
N5    O15   1.300980 A    
Zn1   N2    2.020204 S    
C17   N5    1.438241 S    
C22   H8    1.111736 S    
C21   H6    1.111891 S    
C5    H2    1.080395 S    
C7    C8    1.420437 A    
C8    N4    1.435275 S    
C18   O17   1.371444 S    
C20   C21   1.493150 S    
C28   H11   1.111814 S    
C23   C28   1.489332 S    
C13   C14   1.393440 A    
Zn1   O5    1.994385 S    
O5    C3    1.292143 A    
N2    C26   1.366201 A    
C6    H3    1.083381 S    
O2    C1    1.284148 A    
C4    C14   1.421840 S    
C7    N3    1.433986 S    
C9    C10   1.396959 A    
C15   C20   1.359024 A    
C24   O9    1.372752 S    
C22   H7    1.112446 S    
O2    Zn2   1.994385 S    
C25   H9    1.076548 S    
C26   C27   1.493671 S    
O9    H13   0.976806 S    
C25   N2    1.355096 A    
N4    O13   1.298016 A    
O1    C1    1.290521 A    
C12   C13   1.371713 A    
