data_mof_unit_27927.cif
_audit_creation_date              2012-12-11T15:41:26-0500
_audit_creation_method            fapswitch 2.2
_symmetry_space_group_name_H-M    P1
_symmetry_Int_Tables_number       1
_space_group_crystal_system       monoclinic
_cell_length_a                    19.064565
_cell_length_b                    11.012176
_cell_length_c                    18.825584
_cell_angle_alpha                 90.0
_cell_angle_beta                  90.086427
_cell_angle_gamma                 90.0
_cell_volume                      3952.28275718

loop_
_atom_site_label
_atom_site_type_symbol
_atom_type_description
_atom_site_fract_x
_atom_site_fract_y
_atom_site_fract_z
_atom_type_partial_charge
C1    C     C_R   0.725823 0.958199 0.854577 0.547779
C2    C     C_R   0.311715 0.431495 0.033539 0.030727
C3    C     C_R   0.759609 0.864534 0.352700 0.548164
C4    C     C_2   0.497916 0.169105 0.921131 -0.106605
C5    C     C_2   0.502067 0.169105 0.078859 -0.106490
C6    C     C_2   0.997933 0.669105 0.921141 -0.106490
C7    C     C_2   0.002084 0.669105 0.078869 -0.106604
C8    C     C_2   0.492301 0.070177 0.038225 -0.163993
C9    C     C_2   0.507671 0.070175 0.961765 -0.162886
C10   C     C_2   0.992329 0.570175 0.038235 -0.162886
C11   C     C_2   0.007699 0.570177 0.961775 -0.163993
C12   C     C_R   0.759067 0.420544 0.073126 0.022551
C13   C     C_R   0.188285 0.931495 0.966461 0.030727
C14   C     C_R   0.240938 0.420525 0.926868 0.022840
C15   C     C_R   0.259061 0.920525 0.073131 0.022840
C16   C     C_R   0.740933 0.920544 0.926874 0.022551
C17   C     C_R   0.811711 0.931512 0.033544 0.030722
C18   C     C_R   0.811506 0.384164 0.957960 -0.163593
C19   C     C_R   0.188499 0.384142 0.042035 -0.163879
C20   C     C_R   0.311501 0.884143 0.957965 -0.163879
C21   C     C_R   0.688494 0.884164 0.042040 -0.163593
C22   C     C_R   0.816413 0.384458 0.031145 -0.161228
C23   C     C_R   0.183593 0.384430 0.968849 -0.160576
C24   C     C_R   0.316407 0.884430 0.031151 -0.160576
C25   C     C_R   0.274175 0.958193 0.145425 0.543316
C26   C     C_R   0.683586 0.884458 0.968855 -0.161228
C27   C     C_3   0.645668 0.546140 0.043622 -0.271512
C28   C     C_3   0.354340 0.546116 0.956371 -0.270988
C29   C     C_3   0.145660 0.046116 0.043629 -0.270987
C30   C     C_3   0.854332 0.046140 0.956378 -0.271512
C31   C     C_3   0.638996 0.536968 0.963503 -0.277389
C32   C     C_3   0.361011 0.536948 0.036489 -0.277691
C33   C     C_3   0.138989 0.036948 0.963511 -0.277691
C34   C     C_3   0.861004 0.036968 0.036497 -0.277389
C35   C     C_R   0.747405 0.409106 0.924305 0.020100
C36   C     C_R   0.225825 0.458193 0.854575 0.543315
C37   C     C_R   0.252598 0.409093 0.075691 0.019140
C38   C     C_R   0.247401 0.909093 0.924309 0.019140
C39   C     C_R   0.752595 0.909106 0.075695 0.020100
C40   C     C_R   0.472209 0.169888 0.435065 -0.016176
C41   C     C_R   0.486455 0.172454 0.581956 -0.063664
C42   C     C_R   0.013544 0.672454 0.418044 -0.063664
C43   C     C_R   0.027791 0.669888 0.564935 -0.016176
C44   C     C_R   0.467723 0.278578 0.472192 -0.096957
C45   C     C_R   0.475420 0.280807 0.544392 -0.066145
C46   C     C_R   0.024580 0.780807 0.455608 -0.066145
C47   C     C_R   0.774177 0.458199 0.145422 0.547779
C48   C     C_R   0.032277 0.778578 0.527808 -0.096957
C49   C     C_R   0.472529 0.062199 0.547679 0.401062
C50   C     C_R   0.468409 0.060106 0.473437 0.372916
C51   C     C_R   0.031591 0.560106 0.526563 0.372916
C52   C     C_R   0.027471 0.562199 0.452321 0.401062
C53   C     C_R   0.530132 0.177734 0.850854 0.547160
C54   C     C_R   0.469863 0.177734 0.149144 0.553590
C55   C     C_R   0.030137 0.677734 0.850856 0.553590
C56   C     C_R   0.969868 0.677734 0.149146 0.547161
C57   C     C_3   0.509233 0.391218 0.460433 0.279315
C58   C     C_R   0.694519 0.440686 0.039719 0.008750
C59   C     C_3   0.519672 0.393413 0.539552 0.302831
C60   C     C_3   0.980328 0.893413 0.460448 0.302832
C61   C     C_3   0.990766 0.891218 0.539567 0.279315
C62   C     C_R   0.764116 0.441742 0.430988 -0.012084
C63   C     C_R   0.244981 0.412989 0.576869 -0.050315
C64   C     C_R   0.255019 0.912989 0.423131 -0.050315
C65   C     C_R   0.735884 0.941742 0.569012 -0.012084
C66   C     C_R   0.822480 0.408740 0.471426 0.064918
C67   C     C_R   0.188479 0.370076 0.537154 0.129382
C68   C     C_R   0.311521 0.870076 0.462846 0.129381
C69   C     C_R   0.305486 0.440667 0.960276 0.007531
C70   C     C_R   0.677520 0.908740 0.528574 0.064918
C71   C     C_R   0.819497 0.401981 0.544563 -0.031827
C72   C     C_R   0.190787 0.366042 0.463954 0.010524
C73   C     C_R   0.309213 0.866042 0.536046 0.010524
C74   C     C_R   0.680503 0.901981 0.455437 -0.031827
C75   C     C_R   0.702274 0.481718 0.541479 -0.170156
C76   C     C_R   0.309397 0.442648 0.467457 -0.179836
C77   C     C_R   0.190603 0.942648 0.532543 -0.179836
C78   C     C_R   0.797726 0.981719 0.458521 -0.170156
C79   C     C_R   0.705278 0.486469 0.467066 -0.132721
C80   C     C_R   0.194514 0.940667 0.039724 0.007531
C81   C     C_R   0.306354 0.447676 0.541694 -0.192242
C82   C     C_R   0.193646 0.947676 0.458306 -0.192242
C83   C     C_R   0.794722 0.986469 0.532934 -0.132721
C84   C     C_3   0.866005 0.297024 0.465620 0.296903
C85   C     C_3   0.157519 0.246112 0.542554 0.279110
C86   C     C_3   0.342481 0.746112 0.457446 0.279110
C87   C     C_3   0.633995 0.797024 0.534380 0.296903
C88   C     C_3   0.866351 0.293019 0.545692 -0.175999
C89   C     C_3   0.156576 0.243885 0.462770 -0.151780
C90   C     C_3   0.343424 0.743885 0.537230 -0.151780
C91   C     C_R   0.805481 0.940686 0.960281 0.008750
C92   C     C_3   0.633649 0.793019 0.454308 -0.175999
C93   C     C_R   0.756252 0.425096 0.580035 0.003066
C94   C     C_R   0.251634 0.400448 0.427714 -0.019900
C95   C     C_R   0.248366 0.900448 0.572286 -0.019900
C96   C     C_R   0.743748 0.925096 0.419965 0.003067
C97   C     C_R   0.738163 0.364209 0.852524 0.544071
C98   C     C_R   0.261837 0.364208 0.147476 0.546211
C99   C     C_R   0.238163 0.864208 0.852524 0.546211
C100  C     C_R   0.761837 0.864209 0.147476 0.544071
C101  C     C_R   0.725699 0.960761 0.645001 0.556854
C102  C     C_R   0.688289 0.431512 0.966456 0.030722
C103  C     C_R   0.271674 0.953600 0.351753 0.540811
C104  C     C_R   0.228326 0.453600 0.648247 0.540812
C105  C     C_R   0.774301 0.460761 0.354999 0.556854
C106  C     C_R   0.527494 0.176880 0.646624 0.566771
C107  C     C_R   0.463249 0.176624 0.359065 0.612325
C108  C     C_R   0.036751 0.676624 0.640935 0.612325
C109  C     C_R   0.972506 0.676880 0.353376 0.566771
C110  C     C_R   0.740390 0.364534 0.647300 0.548163
C111  C     C_R   0.261456 0.358837 0.355004 0.552197
C112  C     C_R   0.238544 0.858837 0.644996 0.552197
Cr1   Cr    Cr6+3 0.769260 0.163750 0.750730 1.036369
Cr2   Cr    Cr6+3 0.385810 0.322400 0.252290 1.046149
Cr3   Cr    Cr6+3 0.114190 0.822400 0.747710 1.046149
Cr4   Cr    Cr6+3 0.885810 0.822400 0.252290 1.056805
Cr5   Cr    Cr6+3 0.230740 0.163750 0.249270 1.042930
Cr6   Cr    Cr6+3 0.269260 0.663750 0.750730 1.042930
Cr7   Cr    Cr6+3 0.730740 0.663750 0.249270 1.036369
Cr8   Cr    Cr6+3 0.612640 0.009910 0.748780 1.105058
Cr9   Cr    Cr6+3 0.387360 0.009910 0.251220 1.092749
Cr10  Cr    Cr6+3 0.112640 0.509910 0.748780 1.092749
Cr11  Cr    Cr6+3 0.887360 0.509910 0.251220 1.105058
Cr12  Cr    Cr6+3 0.614190 0.322400 0.747710 1.056805
F1    F     F_    0.570451 0.366994 0.423700 -0.669790
F2    F     F_    0.465891 0.952053 0.439524 -0.532211
F3    F     F_    0.034108 0.452053 0.560475 -0.532211
F4    F     F_    0.031664 0.457598 0.414783 -0.534693
F5    F     F_    0.487997 0.492395 0.571467 -0.631514
F6    F     F_    0.012003 0.992395 0.428533 -0.631514
F7    F     F_    0.929549 0.866993 0.576300 -0.669790
F8    F     F_    0.931425 0.319063 0.437682 -0.503109
F9    F     F_    0.090999 0.245333 0.571560 -0.539146
F10   F     F_    0.409001 0.745333 0.428440 -0.539146
F11   F     F_    0.568574 0.819063 0.562317 -0.503109
F12   F     F_    0.468336 0.957598 0.585216 -0.534693
H1    H     H_    0.471883 0.986899 0.061001 0.143205
H2    H     H_    0.357760 0.467128 0.441377 0.163859
H3    H     H_    0.142240 0.967128 0.558623 0.163859
H4    H     H_    0.844593 0.012053 0.431835 0.155673
H5    H     H_    0.660614 0.519129 0.437670 0.200699
H6    H     H_    0.350989 0.481067 0.571372 0.207041
H7    H     H_    0.149011 0.981067 0.428628 0.207042
H8    H     H_    0.839386 0.019129 0.562330 0.200698
H9    H     H_    0.837762 0.221337 0.439415 0.103395
H10   H     H_    0.193861 0.179954 0.567647 0.088576
H11   H     H_    0.306138 0.679955 0.432353 0.088576
H12   H     H_    0.528085 0.986893 0.938989 0.143841
H13   H     H_    0.662237 0.721337 0.560585 0.103395
H14   H     H_    0.840148 0.211931 0.566684 0.106044
H15   H     H_    0.192264 0.175074 0.440364 0.099660
H16   H     H_    0.307736 0.675074 0.559636 0.099660
H17   H     H_    0.659852 0.711931 0.433316 0.106044
H18   H     H_    0.918303 0.313161 0.569810 0.251151
H19   H     H_    0.103095 0.246377 0.439202 0.275042
H20   H     H_    0.396905 0.746377 0.560798 0.275042
H21   H     H_    0.581697 0.813161 0.430190 0.251151
H22   H     H_    0.525084 0.250843 0.056444 0.108197
H23   H     H_    0.971915 0.486893 0.061010 0.143841
H24   H     H_    0.474900 0.250847 0.943544 0.107938
H25   H     H_    0.025100 0.750847 0.056456 0.107938
H26   H     H_    0.974916 0.750843 0.943556 0.108197
H27   H     H_    0.857791 0.359807 0.927775 0.137694
H28   H     H_    0.142214 0.359785 0.072219 0.138801
H29   H     H_    0.357786 0.859786 0.927781 0.138801
H30   H     H_    0.642209 0.859807 0.072225 0.137694
H31   H     H_    0.867272 0.365003 0.054083 0.134308
H32   H     H_    0.132736 0.364969 0.945911 0.134272
H33   H     H_    0.367264 0.864969 0.054089 0.134272
H34   H     H_    0.028117 0.486899 0.938998 0.143205
H35   H     H_    0.632728 0.865004 0.945917 0.134308
H36   H     H_    0.171973 0.130762 0.061321 0.173518
H37   H     H_    0.828016 0.130785 0.938689 0.173193
H38   H     H_    0.671984 0.630785 0.061311 0.173193
H39   H     H_    0.328027 0.630762 0.938679 0.173518
H40   H     H_    0.596332 0.523373 0.072060 0.136114
H41   H     H_    0.403675 0.523342 0.927933 0.136314
H42   H     H_    0.096325 0.023342 0.072067 0.136314
H43   H     H_    0.903668 0.023373 0.927940 0.136114
H44   H     H_    0.585660 0.509462 0.945758 0.144025
H45   H     H_    0.925457 0.877335 0.444324 0.161454
H46   H     H_    0.414346 0.509440 0.054235 0.143451
H47   H     H_    0.085654 0.009440 0.945765 0.143451
H48   H     H_    0.914340 0.009462 0.054241 0.144025
H49   H     H_    0.661460 0.616218 0.934833 0.143844
H50   H     H_    0.338549 0.616201 0.065158 0.143245
H51   H     H_    0.161451 0.116201 0.934842 0.143245
H52   H     H_    0.838540 0.116218 0.065167 0.143844
H53   H     H_    0.021442 0.968523 0.561187 0.185258
H54   H     H_    0.478558 0.468523 0.438813 0.185258
H55   H     H_    0.574543 0.377335 0.555676 0.161454
H56   H     H_    0.655407 0.512053 0.568165 0.155673
O1    O     O_R   0.784290 0.290360 0.830540 -0.531140
O2    O     O_R   0.456020 0.282110 0.333230 -0.492114
O3    O     O_R   0.043980 0.782110 0.666770 -0.492113
O4    O     O_R   0.956020 0.782110 0.333230 -0.508895
O5    O     O_R   0.679070 0.374030 0.674430 -0.503281
O6    O     O_R   0.320930 0.374030 0.325570 -0.512113
O7    O     O_R   0.179070 0.874030 0.674430 -0.512113
O8    O     O_R   0.820930 0.874030 0.325570 -0.503281
O9    O     O_3   0.665360 0.165350 0.749070 -0.277084
O10   O     O_3   0.334640 0.165350 0.250930 -0.281006
O11   O     O_3   0.165360 0.665350 0.749070 -0.281006
O12   O     O_R   0.215710 0.290360 0.169460 -0.526462
O13   O     O_3   0.834640 0.665350 0.250930 -0.277084
O14   O     O_R   0.762610 0.041070 0.825230 -0.500648
O15   O     O_R   0.237390 0.041070 0.174770 -0.502386
O16   O     O_R   0.262610 0.541070 0.825230 -0.502386
O17   O     O_R   0.737390 0.541070 0.174770 -0.500648
O18   O     O_R   0.667390 0.924160 0.829970 -0.529790
O19   O     O_R   0.332610 0.924160 0.170030 -0.531911
O20   O     O_R   0.167390 0.424160 0.829970 -0.531911
O21   O     O_R   0.832610 0.424160 0.170030 -0.529790
O22   O     O_R   0.553980 0.081420 0.821780 -0.501520
O23   O     O_R   0.284290 0.790360 0.830540 -0.526462
O24   O     O_R   0.446020 0.081420 0.178220 -0.502082
O25   O     O_R   0.053980 0.581420 0.821780 -0.502081
O26   O     O_R   0.946020 0.581420 0.178220 -0.501521
O27   O     O_R   0.543210 0.283170 0.826740 -0.515094
O28   O     O_R   0.456790 0.283170 0.173260 -0.512708
O29   O     O_R   0.043210 0.783170 0.826740 -0.512708
O30   O     O_R   0.956790 0.783170 0.173260 -0.515094
O31   O     O_R   0.678350 0.375000 0.822720 -0.495326
O32   O     O_R   0.321650 0.375000 0.177280 -0.496001
O33   O     O_R   0.178350 0.875000 0.822720 -0.496001
O34   O     O_R   0.715710 0.790360 0.169460 -0.531140
O35   O     O_R   0.821650 0.875000 0.177280 -0.495326
O36   O     O_R   0.785060 0.289300 0.670580 -0.519261
O37   O     O_R   0.214940 0.289300 0.329420 -0.500241
O38   O     O_R   0.285060 0.789300 0.670580 -0.500241
O39   O     O_R   0.714940 0.789300 0.329420 -0.519262
O40   O     O_R   0.763330 0.040090 0.676940 -0.499863
O41   O     O_R   0.236670 0.040090 0.323060 -0.509774
O42   O     O_R   0.263330 0.540090 0.676940 -0.509774
O43   O     O_R   0.736670 0.540090 0.323060 -0.499863
O44   O     O_R   0.668160 0.923110 0.670000 -0.465147
O45   O     O_R   0.554690 0.080440 0.673480 -0.423431
O46   O     O_R   0.331840 0.923110 0.330000 -0.442966
O47   O     O_R   0.168160 0.423110 0.670000 -0.442967
O48   O     O_R   0.831840 0.423110 0.330000 -0.465147
O49   O     O_R   0.445310 0.080440 0.326520 -0.444170
O50   O     O_R   0.054690 0.580440 0.673480 -0.444169
O51   O     O_R   0.945310 0.580440 0.326520 -0.423431
O52   O     O_R   0.543980 0.282110 0.666770 -0.508895

loop_
_geom_bond_atom_site_label_1
_geom_bond_atom_site_label_2
_ccdc_geom_bond_type
C53   O27   A    
C7    C10   D    
C56   O30   A    
C21   C26   A    
C53   O22   A    
Cr10  O25   S    
C12   C22   A    
C4    C53   S    
C64   C103  S    
C89   H19   S    
C68   C86   S    
C59   H55   S    
Cr6   O11   S    
C17   C91   A    
C65   C101  S    
C6    C55   S    
C35   C102  A    
C86   H11   S    
Cr11  O51   S    
C52   F4    S    
Cr10  O50   S    
C62   C105  S    
C4    H24   S    
C84   H9    S    
C54   O24   A    
C20   H29   S    
C7    H25   S    
C63   C81   A    
C87   F11   S    
C64   C68   A    
C18   C35   A    
C32   H46   S    
C42   C109  S    
C73   C90   S    
Cr3   O33   S    
C82   H7    S    
C95   C112  S    
C111  O6    A    
C17   C39   A    
C83   H8    S    
Cr4   O8    S    
C65   C83   A    
C109  O51   A    
C74   C92   S    
C65   C70   A    
C29   C33   S    
C94   C111  S    
C112  O38   A    
Cr11  O13   S    
C109  O4    A    
C2    C32   S    
C67   C72   A    
C36   O16   A    
C97   O1    A    
C33   H47   S    
C25   O19   A    
Cr6   O42   S    
C19   C37   A    
C76   C94   A    
C104  O47   A    
C78   C83   A    
C86   F10   S    
C59   F5    S    
C20   C24   A    
C78   C96   A    
C8    C9    S    
C106  O45   A    
C98   O32   A    
C70   C74   A    
C30   H43   S    
Cr2   O10   S    
C34   H48   S    
C3    C96   S    
C50   F2    S    
Cr1   O9    S    
C43   C108  S    
Cr12  O52   S    
Cr5   O12   S    
C28   H41   S    
C112  O7    A    
Cr4   O13   S    
Cr7   O39   S    
Cr8   O45   S    
C55   O29   A    
C12   C58   A    
C104  O42   A    
Cr12  O27   S    
C60   C61   S    
C103  O41   A    
C87   C92   S    
C100  O34   A    
C110  O5    A    
C61   H53   S    
Cr8   O9    S    
C105  O43   A    
C35   C97   S    
Cr1   O1    S    
C7    C56   S    
C101  O44   A    
C12   C47   S    
C70   C87   S    
C27   H38   S    
C56   O26   A    
C37   C98   S    
C63   C67   A    
C16   C26   A    
C46   C48   A    
Cr7   O17   S    
C67   C85   S    
C41   C106  S    
C62   C66   A    
Cr4   O35   S    
C27   C31   S    
C51   C52   A    
C31   C102  S    
C6    H26   S    
C5    C54   S    
C28   C32   S    
C85   H10   S    
C90   H16   S    
C86   C90   S    
C60   F6    S    
C6    C11   D    
C30   C34   S    
C19   C23   A    
C38   C99   S    
Cr1   O36   S    
C68   C73   A    
Cr3   O7    S    
Cr12  O5    S    
C77   C95   A    
C21   H30   S    
C97   O31   A    
Cr3   O11   S    
C8    H1    S    
C88   H18   S    
C14   C23   A    
C76   C81   A    
C100  O35   A    
Cr6   O16   S    
Cr9   O24   S    
C66   C71   A    
C13   C33   S    
C1    O14   A    
C74   C96   A    
C23   H32   S    
C20   C38   A    
C18   H27   S    
C62   C79   A    
C15   C80   A    
C21   C39   A    
Cr12  O31   S    
Cr5   O41   S    
C44   C57   S    
C63   C104  S    
C43   C48   A    
C31   H49   S    
C28   C69   S    
C3    O8    A    
C87   H13   S    
C33   H51   S    
C1    C16   S    
C99   O33   A    
C108  O3    A    
C34   H52   S    
C24   H33   S    
C64   C82   A    
C13   C38   A    
C92   H17   S    
C36   O20   A    
C40   C107  S    
C58   C102  A    
C22   H31   S    
Cr7   O43   S    
C15   C24   A    
C55   O25   A    
Cr11  O26   S    
C26   H35   S    
C49   C50   A    
Cr10  O47   S    
C29   H42   S    
Cr11  O21   S    
C42   C46   A    
C111  O37   A    
C14   C69   A    
Cr10  O20   S    
Cr10  O11   S    
C75   C79   A    
C17   C34   S    
C73   C95   A    
C3    O39   A    
Cr5   O10   S    
C2    C69   A    
C44   C45   A    
C75   C93   A    
Cr1   O40   S    
Cr11  O48   S    
Cr9   O49   S    
C98   O12   A    
C60   H45   S    
Cr3   O3    S    
C42   C52   A    
C45   C59   S    
C85   C89   S    
C15   C25   S    
Cr2   O2    S    
C46   C60   S    
C1    O18   A    
C18   C22   A    
Cr8   O22   S    
C88   H14   S    
Cr3   O29   S    
C107  O49   A    
C77   H3    S    
Cr6   O23   S    
Cr2   O28   S    
C30   C91   S    
Cr5   O15   S    
C27   C58   S    
C78   H4    S    
C27   H40   S    
Cr9   O10   S    
C5    C8    D    
C49   F12   S    
C28   H39   S    
C54   O28   A    
C71   C93   A    
C76   H2    S    
C41   C49   A    
Cr12  O9    S    
C9    H12   S    
C30   H37   S    
C32   H50   S    
C31   H44   S    
C51   F3    S    
Cr1   O14   S    
Cr7   O13   S    
Cr8   O18   S    
C47   O17   A    
C75   H56   S    
C72   C94   A    
C57   H54   S    
C81   H6    S    
Cr8   O44   S    
C57   F1    S    
C14   C36   S    
C72   C89   S    
C2    C37   A    
C43   C51   A    
C39   C100  S    
C79   H5    S    
C84   C88   S    
C99   O23   A    
C77   C82   A    
Cr6   O38   S    
C103  O46   A    
C40   C50   A    
C47   O21   A    
Cr5   O37   S    
C105  O48   A    
C84   F8    S    
C101  O40   A    
C19   H28   S    
Cr9   O19   S    
C29   H36   S    
Cr4   O30   S    
C106  O52   A    
C13   C80   A    
C57   C59   S    
C10   C11   S    
C61   F7    S    
C66   C84   S    
C71   C88   S    
Cr4   O4    S    
C16   C91   A    
C40   C44   A    
C11   H34   S    
C5    H22   S    
Cr2   O6    S    
C89   H15   S    
C108  O50   A    
C48   C61   S    
C41   C45   A    
C92   H21   S    
C110  O36   A    
Cr2   O32   S    
C4    C9    D    
C25   O15   A    
C29   C80   S    
C90   H20   S    
C10   H23   S    
C107  O2    A    
Cr9   O46   S    
Cr7   O34   S    
C85   F9    S    
C93   C110  S    
