data_mof_unit_16964.cif
_audit_creation_date              2012-12-10T18:21:23-0500
_audit_creation_method            fapswitch 2.2
_symmetry_space_group_name_H-M    P1
_symmetry_Int_Tables_number       1
_space_group_crystal_system       triclinic
_cell_length_a                    15.007116
_cell_length_b                    13.998792
_cell_length_c                    10.640591
_cell_angle_alpha                 90.098039
_cell_angle_beta                  90.015694
_cell_angle_gamma                 90.01016
_cell_volume                      2235.3878776

loop_
_atom_site_label
_atom_site_type_symbol
_atom_type_description
_atom_site_fract_x
_atom_site_fract_y
_atom_site_fract_z
_atom_type_partial_charge
C1    C     C_R   0.326482 0.500010 0.500841 0.956827
C2    C     C_3   0.585329 0.467111 0.929999 -0.391077
C3    C     C_R   0.815191 0.586352 0.484213 -0.263373
C4    C     C_R   0.769424 0.499929 0.497653 -0.078623
C5    C     C_R   0.815191 0.413361 0.509151 -0.263260
C6    C     C_R   0.907343 0.412639 0.508410 0.118322
C7    C     C_R   0.953703 0.499766 0.495700 0.065454
C8    C     C_R   0.907367 0.586922 0.483171 0.119180
C9    C     C_R   0.953730 0.326419 0.520782 -0.217156
C10   C     C_R   0.046304 0.326437 0.521299 -0.208542
C11   C     C_R   0.092726 0.412671 0.509393 0.114763
C12   C     C_R   0.495483 0.500168 0.257844 0.894742
C13   C     C_R   0.046408 0.499781 0.496156 0.060801
C14   C     C_R   0.092785 0.586951 0.483979 0.114435
C15   C     C_R   0.046398 0.673105 0.470735 -0.205132
C16   C     C_R   0.953811 0.673091 0.470361 -0.216092
C17   C     C_R   0.184865 0.413420 0.510971 -0.239818
C18   C     C_R   0.230642 0.499983 0.499508 -0.045905
C19   C     C_R   0.184943 0.586403 0.485667 -0.224853
C20   C     C_R   0.551902 0.797973 0.415620 -0.010250
C21   C     C_R   0.552010 0.201814 0.415754 -0.063559
C22   C     C_R   0.448016 0.798165 0.584221 -0.059772
C23   C     C_R   0.447965 0.202018 0.584158 -0.061308
C24   C     C_R   0.446690 0.898856 0.586188 0.012464
C25   C     C_R   0.446677 0.101325 0.586172 0.014497
C26   C     C_R   0.673556 0.499998 0.499404 0.891358
C27   C     C_R   0.499864 0.949359 0.499814 0.084001
C28   C     C_R   0.499882 0.050616 0.499837 0.087884
C29   C     C_R   0.553054 0.898654 0.413455 0.012930
C30   C     C_R   0.553129 0.101117 0.413549 0.017307
C31   C     C_R   0.393777 0.950001 0.672029 -0.202967
C32   C     C_R   0.393756 0.050379 0.672004 -0.203796
C33   C     C_R   0.605949 0.049968 0.327598 -0.205577
C34   C     C_R   0.605893 0.949594 0.327530 -0.202679
C35   C     C_R   0.497676 0.500273 0.742425 0.848197
C36   C     C_3   0.468169 0.603975 0.070344 -0.180019
C37   C     C_3   0.425031 0.422862 0.068983 -0.170176
C38   C     C_3   0.475858 0.604250 0.926848 -0.457339
C39   C     C_3   0.418538 0.434695 0.925331 -0.427777
C40   C     C_3   0.585627 0.474856 0.073744 -0.465970
C41   C     C_3   0.490685 0.501037 0.121537 0.011072
C42   C     C_3   0.494400 0.501318 0.878570 0.135960
H1    H     H_    0.520392 0.653972 0.105667 0.138849
H2    H     H_    0.456202 0.351857 0.086580 0.131191
H3    H     H_    0.081545 0.259300 0.531337 0.148991
H4    H     H_    0.220757 0.346654 0.521647 0.160476
H5    H     H_    0.220903 0.653225 0.475970 0.162062
H6    H     H_    0.081676 0.740269 0.461161 0.148016
H7    H     H_    0.918575 0.740249 0.460515 0.145844
H8    H     H_    0.592274 0.757557 0.350088 0.122200
H9    H     H_    0.592481 0.242069 0.350335 0.129065
H10   H     H_    0.407609 0.757898 0.649710 0.129252
H11   H     H_    0.407473 0.242430 0.649554 0.130578
H12   H     H_    0.352451 0.912399 0.739179 0.147841
H13   H     H_    0.352405 0.088136 0.739124 0.149496
H14   H     H_    0.647300 0.087562 0.260477 0.140155
H15   H     H_    0.647203 0.911835 0.260364 0.139065
H16   H     H_    0.414600 0.633217 0.881630 0.188172
H17   H     H_    0.353048 0.465666 0.897610 0.195866
H18   H     H_    0.531545 0.652494 0.899003 0.178689
H19   H     H_    0.423056 0.362799 0.880864 0.179674
H20   H     H_    0.634578 0.530279 0.103557 0.175677
H21   H     H_    0.608530 0.405723 0.114188 0.180243
H22   H     H_    0.640485 0.511132 0.890739 0.166477
H23   H     H_    0.597413 0.391593 0.901718 0.183768
H24   H     H_    0.779264 0.653171 0.474545 0.159436
H25   H     H_    0.779287 0.346572 0.519498 0.162864
H26   H     H_    0.918462 0.259268 0.530432 0.146969
N1    N     N_R   0.500070 0.750030 0.500050 -0.095673
N2    N     N_R   0.500070 0.249970 0.500050 -0.103542
O1    O     O_R   0.367860 0.580280 0.500020 -0.617670
O2    O     O_R   0.367860 0.419720 0.500020 -0.621772
O3    O     O_R   0.500000 0.580270 0.314790 -0.602740
O4    O     O_R   0.500000 0.419730 0.314790 -0.631904
O5    O     O_R   0.632160 0.580270 0.499960 -0.631976
O6    O     O_R   0.632160 0.419730 0.499960 -0.627747
O7    O     O_R   0.500030 0.580270 0.685200 -0.635860
O8    O     O_R   0.500030 0.419730 0.685200 -0.634671
Zn1   Zn    Zn3+2 0.500020 0.607200 0.499990 0.966177
Zn2   Zn    Zn3+2 0.500020 0.392800 0.499990 0.948404
C43   C     C_2   0.379680 0.645108 0.113734 0.964404
O9    O     O_2   0.309783 0.620296 0.064288 -0.621488
O10   O     O_R   0.378798 0.714727 0.208116 -0.791815
H27   H     H_    0.316333 0.736967 0.229587 0.339388
C44   C     C_2   0.333174 0.415055 0.127989 0.954826
O11   O     O_2   0.311808 0.464011 0.218186 -0.630020
O12   O     O_R   0.273220 0.347778 0.080071 -0.810020
H28   H     H_    0.214369 0.347605 0.126854 0.347610

loop_
_geom_bond_atom_site_label_1
_geom_bond_atom_site_label_2
_ccdc_geom_bond_type
O12   H28   S    
C12   O4    A    
C27   C29   A    
C24   C27   A    
C5    H25   S    
C2    H23   S    
C6    C9    A    
O1    Zn1   S    
C43   O9    D    
C7    C8    A    
C44   O11   D    
C25   C28   A    
C1    C18   S    
C1    O1    A    
C40   H21   S    
C37   C44   S    
C38   C42   S    
C5    C6    A    
C19   H5    S    
C15   C16   A    
C40   H20   S    
C17   C18   A    
C18   C19   A    
C35   C42   S    
C20   H8    S    
C38   H16   S    
O10   H27   S    
C34   H15   S    
C26   O6    A    
C9    C10   A    
C22   N1    A    
C33   H14   S    
C44   O12   S    
C8    C16   A    
O4    Zn2   S    
C12   O3    A    
C23   N2    A    
C36   C41   S    
C15   H6    S    
C43   O10   S    
C2    H22   S    
C23   H11   S    
C39   C42   S    
C20   C29   A    
O7    Zn1   S    
C39   H19   S    
C1    O2    A    
N2    Zn2   S    
C16   H7    S    
C3    C8    A    
C29   C34   A    
C35   O7    A    
C12   C41   S    
C31   C32   A    
C36   C43   S    
C39   H17   S    
C10   H3    S    
C26   O5    A    
O3    Zn1   S    
C17   H4    S    
C38   H18   S    
C40   C41   S    
C22   C24   A    
C20   N1    A    
N1    Zn1   S    
C3    H24   S    
C3    C4    A    
C21   H9    S    
C22   H10   S    
C11   C17   A    
C32   H13   S    
C30   C33   A    
C14   C19   A    
O6    Zn2   S    
C4    C5    A    
C4    C26   S    
C6    C7    A    
C21   C30   A    
C35   O8    A    
C21   N2    A    
C37   H2    S    
C36   C38   S    
C9    H26   S    
C37   C39   S    
C11   C13   A    
C2    C42   S    
C28   C30   A    
C33   C34   A    
O8    Zn2   S    
C23   C25   A    
C31   H12   S    
C37   C41   S    
C24   C31   A    
C10   C11   A    
C2    C40   S    
C7    C13   A    
O2    Zn2   S    
C27   C28   A    
C14   C15   A    
C36   H1    S    
C13   C14   A    
O5    Zn1   S    
C25   C32   A    
