data_mof_unit_33309.cif
_audit_creation_date              2012-12-10T17:03:23-0500
_audit_creation_method            fapswitch 2.2
_symmetry_space_group_name_H-M    P1
_symmetry_Int_Tables_number       1
_space_group_crystal_system       triclinic
_cell_length_a                    15.035427
_cell_length_b                    10.99946
_cell_length_c                    9.935288
_cell_angle_alpha                 112.879013
_cell_angle_beta                  97.771903
_cell_angle_gamma                 91.888362
_cell_volume                      1493.34277251

loop_
_atom_site_label
_atom_site_type_symbol
_atom_type_description
_atom_site_fract_x
_atom_site_fract_y
_atom_site_fract_z
_atom_type_partial_charge
C1    C     C_R   0.494389 0.252722 0.437595 0.877935
C2    C     C_R   0.505748 0.747304 0.562395 0.868614
C3    C     C_R   0.034700 0.260478 0.428430 0.006469
C4    C     C_R   0.966187 0.742416 0.581194 0.021266
C5    C     C_2   0.488845 0.108764 0.395811 0.013842
C6    C     C_2   0.511475 0.891294 0.604134 0.008404
C7    C     C_2   0.522430 0.061103 0.496927 0.148998
C8    C     C_2   0.477945 0.939016 0.503023 0.157497
C9    C     C_2   0.512989 0.502617 0.078357 0.028349
C10   C     C_2   0.492593 0.486791 0.917624 0.047906
C11   C     C_R   0.329330 0.500906 0.501745 0.888880
C12   C     C_R   0.670743 0.499779 0.498518 0.875593
C13   C     C_R   0.823420 0.618640 0.577885 0.064973
C14   C     C_R   0.176758 0.382661 0.426779 0.127795
C15   C     C_R   0.767320 0.499903 0.496291 -0.063237
C16   C     C_R   0.232915 0.501712 0.504851 -0.069475
C17   C     C_R   0.804813 0.381650 0.418085 -0.083465
C18   C     C_R   0.195762 0.620536 0.582275 -0.091722
C19   C     C_R   0.899106 0.379278 0.446248 0.027241
C20   C     C_R   0.101347 0.622582 0.556451 -0.008521
C21   C     C_R   0.953542 0.501091 0.501564 0.003023
C22   C     C_R   0.047022 0.500992 0.503561 -0.018724
C23   C     C_R   0.914290 0.622827 0.555522 0.006821
C24   C     C_R   0.086365 0.379330 0.451283 0.072926
C25   C     C_R   0.940511 0.260426 0.426549 0.068136
C26   C     C_R   0.059805 0.741195 0.576518 0.082679
Cu1   Cu    Cu3+1 0.515770 0.521810 0.644910 0.989576
Cu2   Cu    Cu3+1 0.484230 0.478190 0.355090 0.969342
H1    H     H_    0.589744 0.625326 0.932435 0.214400
H2    H     H_    0.402000 0.390836 0.073039 0.213461
N1    N     N_2   0.460520 0.445420 0.137370 -0.318622
N2    N     N_2   0.539480 0.554580 0.862630 -0.303401
O1    O     O_R   0.508410 0.332340 0.577400 -0.615788
O2    O     O_R   0.491590 0.667660 0.422600 -0.621288
O3    O     O_R   0.481780 0.295500 0.332650 -0.544487
O4    O     O_R   0.518220 0.704500 0.667350 -0.547453
O5    O     O_R   0.383570 0.518390 0.622380 -0.514176
O6    O     O_R   0.616430 0.481610 0.377620 -0.548013
O7    O     O_R   0.356940 0.481550 0.377630 -0.598590
O8    O     O_R   0.643060 0.518450 0.622370 -0.585694
C27   C     C_3   0.787240 0.734500 0.693368 -0.850678
H3    H     H_    0.755093 0.700724 0.768343 0.257161
H4    H     H_    0.841239 0.810533 0.769179 0.249366
H5    H     H_    0.737219 0.780060 0.639022 0.203987
C28   C     C_3   0.212178 0.265554 0.311859 -0.790489
H6    H     H_    0.241120 0.297536 0.232711 0.236106
H7    H     H_    0.265007 0.223792 0.366143 0.237070
H8    H     H_    0.158281 0.186705 0.241518 0.217577
C29   C     C_2   0.749547 0.264537 0.298820 0.366069
H9    H     H_    0.780806 0.199675 0.208164 0.099259
O9    O     O_2   0.670985 0.236255 0.301774 -0.564366
C30   C     C_2   0.251541 0.738996 0.698570 0.366223
H10   H     H_    0.220667 0.806349 0.788136 0.096750
O10   O     O_2   0.330306 0.765183 0.694881 -0.565669
C31   C     C_3   0.888184 0.140345 0.428317 -0.866782
H11   H     H_    0.823832 0.163909 0.471291 0.249409
H12   H     H_    0.875279 0.060051 0.315637 0.216673
H13   H     H_    0.926555 0.103271 0.505572 0.270053
C32   C     C_3   0.110764 0.858064 0.565740 -0.714723
H14   H     H_    0.127914 0.940350 0.676630 0.262931
H15   H     H_    0.172950 0.831030 0.516643 0.215222
H16   H     H_    0.069384 0.893392 0.489461 0.234955
C33   C     C_2   0.079010 0.140989 0.427195 0.372200
H17   H     H_    0.047635 0.042719 0.355085 0.060912
O11   O     O_2   0.149093 0.151612 0.510642 -0.521408
C34   C     C_2   0.920839 0.863235 0.590997 0.321611
H18   H     H_    0.856166 0.853963 0.522666 0.088524
O12   O     O_2   0.953594 0.973048 0.679270 -0.543976
C35   C     C_3   0.386349 0.876336 0.409899 -0.796828
H19   H     H_    0.393672 0.805981 0.297315 0.236046
H20   H     H_    0.349308 0.820228 0.460208 0.247857
H21   H     H_    0.342642 0.954084 0.404195 0.236987
C36   C     C_3   0.614041 0.123868 0.589908 -0.808225
H22   H     H_    0.606756 0.194375 0.702449 0.241687
H23   H     H_    0.657766 0.046186 0.595755 0.224635
H24   H     H_    0.651013 0.179818 0.539306 0.248057
C37   C     C_3   0.546675 0.980729 0.764089 -0.827202
H25   H     H_    0.517493 0.943065 0.838932 0.263709
H26   H     H_    0.621182 0.983371 0.787230 0.227690
H27   H     H_    0.525154 0.082034 0.792971 0.235221
C38   C     C_3   0.453922 0.019299 0.235764 -0.835632
H28   H     H_    0.483170 0.057113 0.161092 0.264603
H29   H     H_    0.475599 0.918082 0.206978 0.235831
H30   H     H_    0.379410 0.016407 0.212321 0.228463
C39   C     C_2   0.416756 0.390178 0.822185 0.456045
H31   H     H_    0.428661 0.289188 0.756082 0.060531
O13   O     O_2   0.339559 0.421039 0.824381 -0.532835
C40   C     C_2   0.597954 0.581165 0.166753 0.425270
H32   H     H_    0.598220 0.666331 0.268819 0.082887
O14   O     O_2   0.669718 0.550907 0.124254 -0.570238

loop_
_geom_bond_atom_site_label_1
_geom_bond_atom_site_label_2
_ccdc_geom_bond_type
C34   O12   D    
C31   H11   S    
C33   O11   D    
C10   C39   S    
C36   H23   S    
C27   H3    S    
C13   C27   S    
C38   H28   S    
C18   C30   S    
C7    C8    S    
C7    C36   S    
C28   H6    S    
Cu1   O1    S    
C8    C35   S    
C1    C5    S    
C19   C21   A    
H1    N2    S    
C9    C40   S    
H2    N1    S    
C28   H8    S    
C13   C23   A    
C11   O5    A    
C36   H22   S    
C14   C24   A    
C35   H20   S    
Cu2   O3    S    
C29   O9    D    
C26   C32   S    
C18   C20   A    
C37   H25   S    
C2    O2    A    
C28   H7    S    
C34   H18   S    
Cu2   O2    S    
C32   H14   S    
C21   C22   A    
C27   H4    S    
C3    C24   A    
C2    C6    S    
C38   H29   S    
C30   O10   D    
C14   C28   S    
C37   H26   S    
C21   C23   A    
C32   H15   S    
C39   O13   D    
C1    O1    A    
C3    C25   A    
C17   C29   S    
C5    C7    D    
C4    C23   A    
C6    C37   S    
C6    C8    D    
Cu2   O7    S    
C39   H31   S    
C12   O8    A    
C35   H21   S    
C5    C38   S    
C11   C16   S    
C12   C15   S    
Cu2   O6    S    
Cu1   O8    S    
C40   H32   S    
C11   O7    A    
C40   O14   D    
C13   C15   A    
C27   H5    S    
C22   C24   A    
C38   H30   S    
C30   H10   S    
C1    O3    A    
C9    C10   S    
C37   H27   S    
C2    O4    A    
C15   C17   A    
C32   H16   S    
Cu1   N2    S    
Cu2   N1    S    
C25   C31   S    
C20   C22   A    
C4    C26   A    
C3    C33   S    
Cu1   O4    S    
C31   H12   S    
C4    C34   S    
C20   C26   A    
Cu1   O5    S    
C17   C19   A    
C14   C16   A    
C12   O6    A    
C35   H19   S    
C19   C25   A    
C9    N1    D    
C33   H17   S    
C10   N2    D    
C36   H24   S    
C16   C18   A    
C29   H9    S    
C31   H13   S    
Cu1   Cu2   S    
