data_mof_unit_11424.cif
_audit_creation_date              2012-12-10T19:03:04-0500
_audit_creation_method            fapswitch 2.2
_symmetry_space_group_name_H-M    P1
_symmetry_Int_Tables_number       1
_space_group_crystal_system       triclinic
_cell_length_a                    10.75652
_cell_length_b                    10.86456
_cell_length_c                    9.571352
_cell_angle_alpha                 91.12931
_cell_angle_beta                  90.494716
_cell_angle_gamma                 91.415507
_cell_volume                      1117.94958994

loop_
_atom_site_label
_atom_site_type_symbol
_atom_type_description
_atom_site_fract_x
_atom_site_fract_y
_atom_site_fract_z
_atom_type_partial_charge
C1    C     C_R   0.495146 0.262629 0.498643 0.838990
C2    C     C_3   0.878206 0.491714 0.498209 0.002760
C3    C     C_3   0.930941 0.616201 0.444951 -0.339223
C4    C     C_3   0.926006 0.383442 0.403815 0.048823
C5    C     C_R   0.456407 0.067437 0.618911 0.160949
C6    C     C_R   0.477422 0.130044 0.495643 -0.081627
C7    C     C_R   0.476985 0.062148 0.369455 -0.124674
C8    C     C_R   0.477102 0.933647 0.371689 -0.200660
C9    C     C_R   0.479596 0.871507 0.499787 -0.105168
C10   C     C_R   0.457139 0.940628 0.621602 0.126161
C11   C     C_3   0.518539 0.944637 0.762211 -0.474201
C12   C     C_R   0.260024 0.497468 0.499815 0.839179
C13   C     C_3   0.517148 0.083648 0.758293 -0.436623
C14   C     C_R   0.594823 0.556262 0.076212 0.197516
C15   C     C_R   0.417723 0.428119 0.070377 0.435232
C16   C     C_R   0.416603 0.430203 0.922126 -0.130286
C17   C     C_R   0.595742 0.555463 0.928681 0.237434
C18   C     C_3   0.630448 0.688813 0.929808 0.157407
C19   C     C_3   0.632324 0.688144 0.087664 -0.484031
C20   C     C_R   0.495875 0.738034 0.500853 0.802074
C21   C     C_R   0.739993 0.495274 0.499917 0.799620
C22   C     C_3   0.071735 0.480538 0.650877 -0.335709
C23   C     C_3   0.929445 0.472197 0.648406 -0.389811
C24   C     C_3   0.074006 0.614702 0.439714 -0.447346
C25   C     C_3   0.070407 0.383282 0.408107 0.210598
C26   C     C_3   0.122104 0.493157 0.499974 -0.008413
Cu1   Cu    Cu3+1 0.499990 0.499980 0.640670 0.978758
Cu2   Cu    Cu3+1 0.500010 0.500020 0.359330 1.025853
H1    H     H_    0.102676 0.561821 0.716145 0.200681
H2    H     H_    0.104662 0.624489 0.329601 0.203384
H3    H     H_    0.893319 0.635426 0.339205 0.208083
H4    H     H_    0.483900 0.107508 0.269968 0.198541
H5    H     H_    0.481530 0.884462 0.273213 0.161185
H6    H     H_    0.455556 0.908691 0.844124 0.200656
H7    H     H_    0.614330 0.908929 0.759555 0.249625
H8    H     H_    0.454221 0.125262 0.836716 0.222480
H9    H     H_    0.611660 0.127141 0.753038 0.214045
H10   H     H_    0.108727 0.397484 0.701406 0.222608
H11   H     H_    0.348273 0.375075 0.863550 0.183537
H12   H     H_    0.553914 0.741390 0.886661 0.120463
H13   H     H_    0.726005 0.701751 0.136314 0.240737
H14   H     H_    0.558626 0.745195 0.132702 0.169730
H15   H     H_    0.897569 0.380707 0.686750 0.192757
H16   H     H_    0.894442 0.542586 0.722031 0.262298
H17   H     H_    0.113526 0.695146 0.500447 0.190402
H18   H     H_    0.901764 0.692479 0.515826 0.201683
H19   H     H_    0.106317 0.394274 0.300738 0.215357
H20   H     H_    0.887553 0.295407 0.444839 0.164578
N1    N     N_R   0.500800 0.500930 0.147930 -0.222140
N2    N     N_R   0.500800 0.500890 0.852020 -0.244374
O1    O     O_R   0.500000 0.319640 0.618810 -0.592061
O2    O     O_R   0.500010 0.319680 0.381230 -0.530959
O3    O     O_R   0.317690 0.499960 0.618790 -0.595056
O4    O     O_R   0.317700 0.500000 0.381210 -0.546023
O5    O     O_R   0.499990 0.680320 0.618770 -0.573071
O6    O     O_R   0.500000 0.680360 0.381190 -0.596728
O7    O     O_R   0.682300 0.500000 0.618790 -0.562730
O8    O     O_R   0.682310 0.500040 0.381210 -0.544702
Br1   Br    Br    0.870950 0.386724 0.207794 -0.486090
Cl1   Cl    Cl    0.313092 0.325516 0.149270 -0.589696
Cl2   Cl    Cl    0.779464 0.721818 0.858153 -0.641365
Cl3   Cl    Cl    0.125032 0.237738 0.466331 -0.601421

loop_
_geom_bond_atom_site_label_1
_geom_bond_atom_site_label_2
_ccdc_geom_bond_type
C17   N2    A    
C2    C4    S    
Cu1   O3    S    
C18   Cl2   S    
C21   O7    A    
C6    C7    A    
C22   H1    S    
Cu2   O8    S    
C1    O1    A    
C15   Cl1   S    
C25   H19   S    
C9    C20   S    
C13   H9    S    
C12   O3    A    
Cu1   N2    S    
C20   O6    A    
C2    C21   S    
C11   H7    S    
C17   C18   S    
Cu2   O6    S    
C19   H13   S    
C21   O8    A    
C3    H18   S    
C3    H3    S    
Cu2   O2    S    
C14   C17   A    
C3    C24   S    
C20   O5    A    
C24   H17   S    
C9    C10   A    
C5    C10   A    
C16   N2    A    
C2    C3    S    
Cu1   O5    S    
C25   Cl3   S    
C15   N1    A    
C4    H20   S    
C5    C6    A    
C24   C26   S    
C1    O2    A    
C24   H2    S    
C14   N1    A    
C7    C8    A    
C10   C11   S    
C16   H11   S    
C22   C26   S    
C15   C16   A    
C22   H10   S    
C4    C25   S    
C11   C13   S    
C23   H15   S    
C4    Br1   S    
C13   H8    S    
C18   C19   S    
Cu1   O7    S    
C12   C26   S    
C2    C23   S    
C18   H12   S    
C22   C23   S    
C8    C9    A    
Cu2   O4    S    
C7    H4    S    
C1    C6    S    
C25   C26   S    
C5    C13   S    
C14   C19   S    
C11   H6    S    
C12   O4    A    
C23   H16   S    
C19   H14   S    
Cu1   O1    S    
C8    H5    S    
Cu1   Cu2   S    
Cu2   N1    S    
