data_mof_unit_40504.cif
_audit_creation_date              2012-12-10T17:18:57-0500
_audit_creation_method            fapswitch 2.2
_symmetry_space_group_name_H-M    P1
_symmetry_Int_Tables_number       1
_space_group_crystal_system       triclinic
_cell_length_a                    9.601554
_cell_length_b                    10.773671
_cell_length_c                    13.444246
_cell_angle_alpha                 92.827699
_cell_angle_beta                  72.858645
_cell_angle_gamma                 90.229546
_cell_volume                      1327.25207746

loop_
_atom_site_label
_atom_site_type_symbol
_atom_type_description
_atom_site_fract_x
_atom_site_fract_y
_atom_site_fract_z
_atom_type_partial_charge
C1    C     C_R   0.498734 0.737397 0.503573 0.793151
C2    C     C_R   0.462736 0.463553 0.966149 0.007158
C3    C     C_R   0.475723 0.521564 0.871706 0.109059
C4    C     C_R   0.559150 0.500527 0.024459 0.038707
C5    C     C_R   0.685450 0.571039 0.978358 0.053469
C6    C     C_R   0.689748 0.635545 0.888055 -0.037421
C7    C     C_R   0.584238 0.611070 0.837395 -0.236709
C8    C     C_R   0.524546 0.481198 0.131218 -0.240831
C9    C     C_R   0.762982 0.550025 0.133632 -0.180349
C10   C     C_R   0.379070 0.489350 0.813093 -0.073325
C11   C     C_R   0.287149 0.880012 0.671256 -0.201336
C12   C     C_R   0.422080 0.503328 0.700005 0.754732
C13   C     C_R   0.184850 0.949354 0.749218 -0.101648
C14   C     C_R   0.183676 0.078396 0.748480 -0.114079
C15   C     C_R   0.284888 0.138835 0.669819 -0.178373
C16   C     C_R   0.388652 0.070512 0.589223 0.105628
C17   C     C_R   0.389519 0.939292 0.589802 0.098528
C18   C     C_R   0.496287 0.871547 0.510683 -0.101213
C19   C     C_R   0.603586 0.932265 0.436077 -0.171407
C20   C     C_R   0.603021 0.060273 0.435702 -0.179330
C21   C     C_R   0.495166 0.129416 0.509887 -0.080180
C22   C     C_R   0.909223 0.326121 0.369061 -0.207492
C23   C     C_R   0.498490 0.262876 0.503009 0.779173
C24   C     C_R   0.001424 0.229509 0.316995 -0.296886
C25   C     C_R   0.144092 0.224728 0.321587 0.437419
C26   C     C_R   0.195027 0.322027 0.372546 -0.168877
C27   C     C_R   0.100353 0.413523 0.436446 0.133371
C28   C     C_R   0.951241 0.414277 0.435865 0.217154
C29   C     C_R   0.901265 0.581888 0.561004 -0.048744
C30   C     C_R   0.049177 0.581939 0.560986 -0.048538
C31   C     C_R   0.578128 0.500452 0.300125 0.800372
C32   C     C_R   0.796800 0.579359 0.028726 0.022133
C33   C     C_R   0.623596 0.509405 0.186626 -0.086791
C34   C     C_R   0.256648 0.417984 0.857083 -0.229426
C35   C     C_R   0.246586 0.356596 0.947007 -0.072104
C36   C     C_R   0.357750 0.367244 0.995129 -0.020495
Cu1   Cu    Cu3+1 0.359340 0.500010 0.500010 0.939242
Cu2   Cu    Cu3+1 0.640660 0.499990 0.499990 0.940785
H1    H     H_    0.843982 0.562101 0.174823 0.195385
H2    H     H_    0.286717 0.780266 0.676953 0.136971
H3    H     H_    0.107360 0.902782 0.811151 0.182085
H4    H     H_    0.105167 0.132026 0.809811 0.140133
H5    H     H_    0.282301 0.239096 0.674074 0.150560
H6    H     H_    0.685305 0.105633 0.375686 0.139868
H7    H     H_    0.825731 0.649085 0.610700 0.119993
H8    H     H_    0.806010 0.326766 0.354998 0.209919
H9    H     H_    0.961834 0.159270 0.271867 0.161172
H10   H     H_    0.309587 0.320857 0.359359 0.209080
H11   H     H_    0.083913 0.649024 0.611115 0.125398
H12   H     H_    0.417160 0.449198 0.172897 0.154924
H13   H     H_    0.177914 0.396741 0.815417 0.138383
H14   H     H_    0.160247 0.289658 0.971581 0.169730
H15   H     H_    0.584074 0.666458 0.772273 0.137774
H16   H     H_    0.686240 0.880015 0.376302 0.161421
N1    N     N_R   0.852480 0.498790 0.499000 -0.186949
N2    N     N_R   0.148360 0.498710 0.498970 -0.185654
O1    O     O_R   0.381190 0.680360 0.500010 -0.569535
O2    O     O_R   0.618760 0.680340 0.500000 -0.580100
O3    O     O_R   0.323240 0.499990 0.650990 -0.594050
O4    O     O_R   0.560820 0.499960 0.650980 -0.573644
O5    O     O_R   0.381240 0.319660 0.500000 -0.598952
O6    O     O_R   0.618810 0.319640 0.499990 -0.587596
O7    O     O_R   0.439180 0.500040 0.349020 -0.587193
O8    O     O_R   0.676760 0.500010 0.349010 -0.601661
O9    O     O_3   0.237186 0.126833 0.276741 -0.694314
H17   H     H_    0.182018 0.062059 0.249778 0.358319
C37   C     C_2   0.784509 0.743878 0.853286 0.310792
H18   H     H_    0.818553 0.765071 0.771641 0.051392
O10   O     O_2   0.817220 0.815220 0.916012 -0.528030
C38   C     C_2   0.950648 0.606655 0.971564 0.431260
H19   H     H_    0.987335 0.600480 0.887034 0.042020
O11   O     O_2   0.038969 0.634278 0.018124 -0.529263
C39   C     C_2   0.378357 0.261845 0.056900 0.363392
H20   H     H_    0.473631 0.255202 0.083935 0.093468
O12   O     O_2   0.293121 0.175556 0.072262 -0.521026

loop_
_geom_bond_atom_site_label_1
_geom_bond_atom_site_label_2
_ccdc_geom_bond_type
C16   C21   A    
C39   H20   S    
C19   C20   A    
C4    C8    A    
C13   H3    S    
C1    C18   S    
C29   C30   A    
C18   C19   A    
C3    C7    A    
C5    C6    A    
C15   C16   A    
C9    H1    S    
C34   C35   A    
C9    C32   A    
C20   H6    S    
Cu2   O2    S    
C12   O3    A    
C23   O6    A    
Cu2   N1    S    
C35   C36   A    
C16   C17   A    
C31   C33   S    
C38   H19   S    
C26   H10   S    
C14   H4    S    
C5    C32   A    
Cu1   N2    S    
C22   C28   A    
C13   C14   A    
C9    C33   A    
C39   O12   D    
Cu1   O7    S    
C28   N1    A    
Cu2   O8    S    
C37   H18   S    
C31   O7    A    
C25   O9    S    
C24   C25   A    
C27   N2    A    
C32   C38   S    
C29   N1    A    
C25   C26   A    
C30   N2    A    
C29   H7    S    
C37   O10   D    
C2    C4    A    
Cu1   Cu2   S    
C1    O1    A    
C17   C18   A    
C34   H13   S    
C10   C34   A    
Cu1   O3    S    
C10   C12   S    
Cu2   O4    S    
C19   H16   S    
C6    C37   S    
C22   H8    S    
C30   H11   S    
C21   C23   S    
C26   C27   A    
C22   C24   A    
C7    H15   S    
C8    H12   S    
C35   H14   S    
C2    C36   A    
C11   C17   A    
C24   H9    S    
C31   O8    A    
C4    C5    A    
Cu1   O5    S    
C6    C7    A    
C2    C3    A    
C15   H5    S    
C3    C10   A    
C1    O2    A    
C11   C13   A    
C8    C33   A    
C11   H2    S    
C36   C39   S    
C12   O4    A    
C23   O5    A    
C20   C21   A    
O9    H17   S    
C27   C28   A    
C14   C15   A    
C38   O11   D    
Cu1   O1    S    
Cu2   O6    S    
