data_mof_unit_60983.cif
_audit_creation_date              2012-12-10T17:51:53-0500
_audit_creation_method            fapswitch 2.2
_symmetry_space_group_name_H-M    P1
_symmetry_Int_Tables_number       1
_space_group_crystal_system       triclinic
_cell_length_a                    39.079375
_cell_length_b                    39.077856
_cell_length_c                    39.07935
_cell_angle_alpha                 89.997742
_cell_angle_beta                  89.985236
_cell_angle_gamma                 89.992522
_cell_volume                      59679.5652434

loop_
_atom_site_label
_atom_site_type_symbol
_atom_type_description
_atom_site_fract_x
_atom_site_fract_y
_atom_site_fract_z
_atom_type_partial_charge
C1    C     C_R   0.000000 0.566183 0.500004 0.919559
C2    C     C_R   0.999996 0.500002 0.566171 0.918682
C3    C     C_R   0.999998 0.433817 0.499986 0.919055
C4    C     C_R   0.000005 0.500000 0.433829 0.918952
C5    C     C_R   0.566196 0.499978 0.999993 0.921421
C6    C     C_R   0.499995 0.433847 0.000001 0.917664
C7    C     C_R   0.433805 0.500003 0.000011 0.919814
C8    C     C_R   0.500000 0.566144 0.000005 0.918219
C9    C     C_R   0.500001 0.000002 0.433834 0.922165
C10   C     C_R   0.433841 0.000005 0.500012 0.921106
C11   C     C_R   0.499988 0.999995 0.566176 0.920781
C12   C     C_R   0.566154 0.999996 0.500003 0.921640
C13   C     C_R   0.499998 0.066182 0.000001 0.919572
C14   C     C_R   0.499998 0.000001 0.066171 0.918765
C15   C     C_R   0.499996 0.933817 0.999991 0.919192
C16   C     C_R   0.499997 0.000010 0.933829 0.918952
C17   C     C_R   0.066195 0.999990 0.499996 0.923103
C18   C     C_R   0.000007 0.933854 0.500002 0.914311
C19   C     C_R   0.933800 0.000009 0.500006 0.922274
C20   C     C_R   0.000017 0.066147 0.500003 0.916974
C21   C     C_R   0.999993 0.500001 0.933836 0.922655
C22   C     C_R   0.933843 0.500007 0.000003 0.921786
C23   C     C_R   0.000017 0.500004 0.066167 0.917416
C24   C     C_R   0.066160 0.499990 0.999989 0.920390
C25   C     C_R   0.021406 0.522995 0.877487 0.330517
C26   C     C_R   0.022693 0.122420 0.521791 0.318502
C27   C     C_R   0.021338 0.476835 0.122477 0.288867
C28   C     C_R   0.022651 0.877576 0.478189 0.291713
C29   C     C_R   0.978518 0.477035 0.877501 0.324847
C30   C     C_R   0.977542 0.877584 0.521948 0.331746
C31   C     C_R   0.978871 0.523201 0.122553 0.325695
C32   C     C_R   0.977488 0.122427 0.478153 0.338867
C33   C     C_R   0.523638 0.122589 0.979285 0.328409
C34   C     C_R   0.122480 0.477278 0.978192 0.325610
C35   C     C_R   0.476211 0.877425 0.979394 0.324103
C36   C     C_R   0.877510 0.522693 0.978265 0.324542
C37   C     C_R   0.476330 0.122577 0.020712 0.328082
C38   C     C_R   0.877539 0.477339 0.021797 0.339583
C39   C     C_R   0.523754 0.877403 0.020533 0.327267
C40   C     C_R   0.122487 0.522687 0.021671 0.324422
C41   C     C_R   0.122673 0.019661 0.475493 0.330204
C42   C     C_R   0.476522 0.020978 0.877478 0.326250
C43   C     C_R   0.877335 0.019494 0.524763 0.325112
C44   C     C_R   0.523587 0.020795 0.122530 0.325689
C45   C     C_R   0.122620 0.980201 0.524495 0.328020
C46   C     C_R   0.476411 0.979221 0.122542 0.327109
C47   C     C_R   0.877324 0.980634 0.475271 0.330181
C48   C     C_R   0.523407 0.979066 0.877446 0.329719
C49   C     C_R   0.521402 0.023041 0.377483 0.322703
C50   C     C_R   0.522555 0.622409 0.021886 0.339133
C51   C     C_R   0.521099 0.976710 0.622555 0.326411
C52   C     C_R   0.522251 0.377545 0.977826 0.341629
C53   C     C_R   0.478593 0.976994 0.377491 0.324474
C54   C     C_R   0.477706 0.377550 0.022156 0.325645
C55   C     C_R   0.478772 0.023228 0.622548 0.315687
C56   C     C_R   0.477470 0.622421 0.978148 0.339019
C57   C     C_R   0.023814 0.622588 0.479486 0.327317
C58   C     C_R   0.622488 0.977419 0.478161 0.325018
C59   C     C_R   0.976174 0.377425 0.479419 0.321137
C60   C     C_R   0.377508 0.022690 0.478280 0.324410
C61   C     C_R   0.976245 0.622585 0.520615 0.327517
C62   C     C_R   0.377538 0.977356 0.521840 0.323006
C63   C     C_R   0.023833 0.377402 0.520427 0.327997
C64   C     C_R   0.622428 0.022638 0.521828 0.338482
C65   C     C_R   0.622668 0.519685 0.975484 0.331751
C66   C     C_R   0.976604 0.520985 0.377457 0.328359
C67   C     C_R   0.377332 0.519716 0.024563 0.301388
C68   C     C_R   0.023518 0.520859 0.622530 0.326286
C69   C     C_R   0.622635 0.480145 0.024432 0.329587
C70   C     C_R   0.976433 0.479184 0.622539 0.326823
C71   C     C_R   0.377373 0.480382 0.975441 0.329914
C72   C     C_R   0.023436 0.479023 0.377465 0.330620
C73   C     C_R   0.021117 0.522452 0.841723 -0.092537
C74   C     C_R   0.022509 0.158183 0.521172 -0.095596
C75   C     C_R   0.021135 0.477385 0.158236 -0.119369
C76   C     C_R   0.022450 0.841813 0.478788 -0.112935
C77   C     C_R   0.978713 0.477656 0.841739 -0.095408
C78   C     C_R   0.977948 0.841816 0.521573 -0.087722
C79   C     C_R   0.979187 0.522623 0.158305 -0.092299
C80   C     C_R   0.977897 0.158191 0.478524 -0.085220
C81   C     C_R   0.523449 0.158349 0.979978 -0.093184
C82   C     C_R   0.158233 0.477982 0.978307 -0.094123
C83   C     C_R   0.476385 0.841665 0.980094 -0.095022
C84   C     C_R   0.841755 0.522038 0.978463 -0.096265
C85   C     C_R   0.476457 0.158335 0.019979 -0.093288
C86   C     C_R   0.841784 0.477841 0.021516 -0.088324
C87   C     C_R   0.523639 0.841648 0.019762 -0.093709
C88   C     C_R   0.158241 0.522183 0.021350 -0.094024
C89   C     C_R   0.158422 0.018950 0.475746 -0.093956
C90   C     C_R   0.476714 0.020319 0.841718 -0.095101
C91   C     C_R   0.841583 0.018891 0.524469 -0.097360
C92   C     C_R   0.523417 0.020096 0.158280 -0.095247
C93   C     C_R   0.158371 0.980885 0.524297 -0.096471
C94   C     C_R   0.476548 0.979952 0.158292 -0.094056
C95   C     C_R   0.841578 0.981398 0.475482 -0.096567
C96   C     C_R   0.523224 0.979748 0.841689 -0.093255
C97   C     C_R   0.521188 0.022432 0.341725 -0.096509
C98   C     C_R   0.522248 0.658179 0.021395 -0.084925
C99   C     C_R   0.520802 0.977268 0.658313 -0.092789
C100  C     C_R   0.521897 0.341777 0.978263 -0.084967
C101  C     C_R   0.478822 0.977594 0.341734 -0.095073
C102  C     C_R   0.478018 0.341784 0.021671 -0.091775
C103  C     C_R   0.479014 0.022661 0.658306 -0.100884
C104  C     C_R   0.477834 0.658189 0.978558 -0.085325
C105  C     C_R   0.023713 0.658342 0.480279 -0.094371
C106  C     C_R   0.658241 0.978122 0.478317 -0.095902
C107  C     C_R   0.976384 0.341665 0.480070 -0.096528
C108  C     C_R   0.341754 0.022051 0.478494 -0.094986
C109  C     C_R   0.976407 0.658342 0.519906 -0.093410
C110  C     C_R   0.341784 0.977930 0.521623 -0.096012
C111  C     C_R   0.023767 0.341652 0.519586 -0.093915
C112  C     C_R   0.658187 0.022128 0.521558 -0.088758
C113  C     C_R   0.658420 0.519012 0.975753 -0.095249
C114  C     C_R   0.976802 0.520325 0.341696 -0.092944
C115  C     C_R   0.341574 0.519181 0.024172 -0.111742
C116  C     C_R   0.023345 0.520163 0.658281 -0.094830
C117  C     C_R   0.658387 0.480814 0.024197 -0.094168
C118  C     C_R   0.976560 0.479921 0.658287 -0.094518
C119  C     C_R   0.341627 0.481179 0.975564 -0.097390
C120  C     C_R   0.023304 0.479748 0.341707 -0.093764
C121  C     C_R   0.999901 0.500073 0.823730 0.094450
C122  C     C_R   0.000252 0.176180 0.499792 0.095582
C123  C     C_R   0.000185 0.500012 0.176277 0.112221
C124  C     C_R   0.000239 0.823821 0.500226 0.108810
C125  C     C_R   0.499936 0.176268 0.999968 0.103148
C126  C     C_R   0.176246 0.500124 0.999761 0.096878
C127  C     C_R   0.500019 0.823723 0.999909 0.104212
C128  C     C_R   0.823765 0.499909 0.999970 0.092349
C129  C     C_R   0.176283 0.999921 0.500039 0.106313
C130  C     C_R   0.499962 0.000043 0.823801 0.104879
C131  C     C_R   0.823700 0.000177 0.499955 0.106320
C132  C     C_R   0.499975 0.000031 0.176200 0.104555
C133  C     C_R   0.500009 0.000011 0.323725 0.096928
C134  C     C_R   0.500069 0.676179 0.999960 0.089994
C135  C     C_R   0.499909 0.999962 0.676309 0.099916
C136  C     C_R   0.499948 0.323789 0.999961 0.093076
C137  C     C_R   0.000076 0.676278 0.500115 0.102743
C138  C     C_R   0.676225 0.000162 0.499912 0.091628
C139  C     C_R   0.000110 0.323723 0.499788 0.104641
C140  C     C_R   0.323760 0.999971 0.500054 0.096864
C141  C     C_R   0.676290 0.499917 0.999991 0.104878
C142  C     C_R   0.000078 0.500042 0.323793 0.103520
C143  C     C_R   0.323718 0.500240 0.999809 0.116650
C144  C     C_R   0.999942 0.500052 0.676202 0.104499
C145  C     C_R   0.999972 0.500000 0.895988 -0.249497
C146  C     C_R   0.000063 0.103965 0.499994 -0.254448
C147  C     C_R   0.000078 0.500009 0.104012 -0.233516
C148  C     C_R   0.000059 0.896036 0.500031 -0.242026
C149  C     C_R   0.499992 0.104061 0.000000 -0.250280
C150  C     C_R   0.103993 0.499986 0.999961 -0.246885
C151  C     C_R   0.499994 0.895937 0.999974 -0.248779
C152  C     C_R   0.896012 0.500019 0.000023 -0.253176
C153  C     C_R   0.104095 0.999950 0.499993 -0.243754
C154  C     C_R   0.499989 0.000022 0.895965 -0.250428
C155  C     C_R   0.895891 0.000043 0.500020 -0.245409
C156  C     C_R   0.499997 0.000008 0.104027 -0.249604
C157  C     C_R   0.500000 0.000010 0.395987 -0.246694
C158  C     C_R   0.500005 0.603960 0.000004 -0.260166
C159  C     C_R   0.499953 0.999986 0.604039 -0.244375
C160  C     C_R   0.499987 0.396016 0.999999 -0.257451
C161  C     C_R   0.000012 0.604061 0.500025 -0.249783
C162  C     C_R   0.603978 0.000004 0.500005 -0.253206
C163  C     C_R   0.999996 0.395938 0.499946 -0.247826
C164  C     C_R   0.396011 0.000017 0.500041 -0.247602
C165  C     C_R   0.604097 0.499943 0.999967 -0.247680
C166  C     C_R   0.000005 0.500008 0.395965 -0.251567
C167  C     C_R   0.395901 0.500025 0.000012 -0.236144
C168  C     C_R   0.999985 0.500013 0.604026 -0.249907
C169  C     C_R   0.002383 0.469083 0.767703 0.523406
C170  C     C_R   0.001713 0.232174 0.468732 0.524294
C171  C     C_R   0.003144 0.530955 0.232293 0.519522
C172  C     C_R   0.001788 0.767800 0.531239 0.522194
C173  C     C_R   0.997422 0.531053 0.767692 0.522737
C174  C     C_R   0.998576 0.767853 0.469162 0.526419
C175  C     C_R   0.997169 0.469079 0.232305 0.524064
C176  C     C_R   0.998704 0.232170 0.530821 0.526763
C177  C     C_R   0.502000 0.232099 0.030959 0.527935
C178  C     C_R   0.232253 0.531210 0.997859 0.522383
C179  C     C_R   0.498398 0.767886 0.030949 0.527880
C180  C     C_R   0.767740 0.468881 0.997979 0.520802
C181  C     C_R   0.497840 0.232100 0.968970 0.528565
C182  C     C_R   0.767732 0.530929 0.001982 0.523019
C183  C     C_R   0.501652 0.767870 0.968902 0.527623
C184  C     C_R   0.232305 0.469144 0.001590 0.523777
C185  C     C_R   0.232048 0.968910 0.498522 0.529056
C186  C     C_R   0.496968 0.969088 0.768039 0.528819
C187  C     C_R   0.767968 0.969150 0.501309 0.527567
C188  C     C_R   0.502232 0.969042 0.231994 0.528026
C189  C     C_R   0.232016 0.030959 0.501626 0.527230
C190  C     C_R   0.497731 0.031005 0.232002 0.527745
C191  C     C_R   0.767957 0.031215 0.498572 0.528047
C192  C     C_R   0.502900 0.030927 0.767999 0.527662
C193  C     C_R   0.502435 0.969030 0.267688 0.522756
C194  C     C_R   0.501792 0.732169 0.968904 0.525722
C195  C     C_R   0.503081 0.030912 0.732304 0.523465
C196  C     C_R   0.502129 0.267799 0.030963 0.526672
C197  C     C_R   0.497551 0.031007 0.267696 0.523055
C198  C     C_R   0.497720 0.267801 0.968961 0.524155
C199  C     C_R   0.496775 0.969067 0.732344 0.521854
C200  C     C_R   0.498302 0.732186 0.030966 0.527020
C201  C     C_R   0.001623 0.732098 0.531202 0.528582
C202  C     C_R   0.732262 0.031229 0.498313 0.521128
C203  C     C_R   0.998772 0.267868 0.530812 0.527231
C204  C     C_R   0.267742 0.968910 0.498293 0.521829
C205  C     C_R   0.998647 0.732155 0.469141 0.526673
C206  C     C_R   0.267709 0.030987 0.501854 0.522402
C207  C     C_R   0.001546 0.267877 0.468740 0.527598
C208  C     C_R   0.732277 0.969131 0.501533 0.522712
C209  C     C_R   0.732043 0.468897 0.998206 0.528809
C210  C     C_R   0.997307 0.469099 0.268003 0.527277
C211  C     C_R   0.267996 0.469182 0.001383 0.527049
C212  C     C_R   0.002211 0.469085 0.732009 0.527591
C213  C     C_R   0.732037 0.530921 0.001772 0.527602
C214  C     C_R   0.997622 0.531042 0.731997 0.527781
C215  C     C_R   0.267947 0.531221 0.998113 0.525112
C216  C     C_R   0.002916 0.530967 0.267989 0.529301
C217  C     C_R   0.999924 0.500059 0.713914 -0.345375
C218  C     C_R   0.000139 0.285981 0.499776 -0.343985
C219  C     C_R   0.000096 0.500037 0.286079 -0.345751
C220  C     C_R   0.000114 0.714018 0.500155 -0.344104
C221  C     C_R   0.499933 0.285973 0.999960 -0.340982
C222  C     C_R   0.286032 0.500221 0.999764 -0.345268
C223  C     C_R   0.500064 0.714002 0.999944 -0.340556
C224  C     C_R   0.713977 0.499910 0.999995 -0.346376
C225  C     C_R   0.285921 0.999955 0.500068 -0.341274
C226  C     C_R   0.499918 0.999978 0.714135 -0.342756
C227  C     C_R   0.714071 0.000178 0.499917 -0.339161
C228  C     C_R   0.500001 0.000017 0.285886 -0.342371
C229  C     C_R   0.499977 0.000026 0.213913 -0.345536
C230  C     C_R   0.500020 0.785986 0.999916 -0.344249
C231  C     C_R   0.499940 0.000020 0.786097 -0.346022
C232  C     C_R   0.499921 0.213999 0.999965 -0.344607
C233  C     C_R   0.000215 0.786000 0.500212 -0.345083
C234  C     C_R   0.786020 0.000185 0.499949 -0.345826
C235  C     C_R   0.000243 0.213999 0.499779 -0.342041
C236  C     C_R   0.213970 0.999928 0.500070 -0.345117
C237  C     C_R   0.785927 0.499905 0.999978 -0.339585
C238  C     C_R   0.000196 0.500012 0.214107 -0.345149
C239  C     C_R   0.214082 0.500161 0.999720 -0.341409
C240  C     C_R   0.999897 0.500071 0.785889 -0.341687
Cu1   Cu    Cu3+1 0.965740 0.500000 0.500000 1.293645
Cu2   Cu    Cu3+1 0.034260 0.500000 0.500000 1.292736
Cu3   Cu    Cu3+1 0.500000 0.500000 0.034260 1.295169
Cu4   Cu    Cu3+1 0.500000 0.500000 0.965740 1.291206
Cu5   Cu    Cu3+1 0.500000 0.965740 0.500000 1.296171
Cu6   Cu    Cu3+1 0.500000 0.034260 0.500000 1.295637
Cu7   Cu    Cu3+1 0.465740 0.000000 0.000000 1.293632
Cu8   Cu    Cu3+1 0.534260 0.000000 0.000000 1.292911
Cu9   Cu    Cu3+1 0.000000 0.000000 0.534260 1.294962
Cu10  Cu    Cu3+1 0.000000 0.000000 0.465740 1.294276
Cu11  Cu    Cu3+1 0.000000 0.465740 0.000000 1.296334
Cu12  Cu    Cu3+1 0.000000 0.534260 0.000000 1.295565
H1    H     H_    0.037827 0.539423 0.827599 0.236862
H2    H     H_    0.040053 0.172292 0.537290 0.233376
H3    H     H_    0.037661 0.460210 0.172324 0.223905
H4    H     H_    0.039941 0.827708 0.462596 0.224937
H5    H     H_    0.961991 0.460703 0.827629 0.235843
H6    H     H_    0.960470 0.827703 0.537771 0.235152
H7    H     H_    0.962662 0.539754 0.172461 0.234370
H8    H     H_    0.960372 0.172306 0.462385 0.236471
H9    H     H_    0.541812 0.172562 0.964871 0.229981
H10   H     H_    0.172338 0.461266 0.961314 0.235405
H11   H     H_    0.457899 0.827474 0.965121 0.229794
H12   H     H_    0.827633 0.538752 0.961501 0.235786
H13   H     H_    0.458080 0.172536 0.035086 0.229952
H14   H     H_    0.827689 0.461098 0.038480 0.237472
H15   H     H_    0.542117 0.827444 0.034727 0.230253
H16   H     H_    0.172350 0.538908 0.038301 0.235512
H17   H     H_    0.172693 0.033278 0.456809 0.228179
H18   H     H_    0.458534 0.035656 0.827512 0.228116
H19   H     H_    0.827324 0.033022 0.543563 0.227112
H20   H     H_    0.541739 0.035255 0.172482 0.228923
H21   H     H_    0.172597 0.966534 0.543244 0.227649
H22   H     H_    0.458228 0.964789 0.172502 0.229315
H23   H     H_    0.827317 0.967296 0.456377 0.227975
H24   H     H_    0.541373 0.964403 0.827459 0.228813
H25   H     H_    0.537892 0.039411 0.327606 0.235385
H26   H     H_    0.539698 0.672294 0.037613 0.236517
H27   H     H_    0.537254 0.960051 0.672449 0.235179
H28   H     H_    0.539128 0.327648 0.961815 0.236045
H29   H     H_    0.462112 0.960624 0.327621 0.235927
H30   H     H_    0.460767 0.327657 0.038097 0.234917
H31   H     H_    0.462552 0.039872 0.672432 0.233167
H32   H     H_    0.460385 0.672312 0.962359 0.236571
H33   H     H_    0.042237 0.672537 0.465352 0.230153
H34   H     H_    0.672361 0.961504 0.461254 0.236442
H35   H     H_    0.957858 0.327478 0.465151 0.229523
H36   H     H_    0.327638 0.038739 0.461498 0.235816
H37   H     H_    0.957916 0.672538 0.534877 0.230627
H38   H     H_    0.327692 0.961243 0.538644 0.235531
H39   H     H_    0.042316 0.327455 0.534475 0.230401
H40   H     H_    0.672262 0.038788 0.538606 0.238136
H41   H     H_    0.672689 0.533395 0.956859 0.227860
H42   H     H_    0.958643 0.535663 0.327481 0.229090
H43   H     H_    0.327307 0.533508 0.043119 0.220777
H44   H     H_    0.041627 0.535371 0.672483 0.229118
H45   H     H_    0.672627 0.466393 0.043084 0.227821
H46   H     H_    0.958263 0.464726 0.672494 0.229155
H47   H     H_    0.327401 0.466869 0.956594 0.227317
H48   H     H_    0.041485 0.464406 0.327500 0.228878
O1    O     O_R   0.971060 0.549890 0.500000 -0.527012
O2    O     O_R   0.971060 0.500000 0.549890 -0.527274
O3    O     O_R   0.971060 0.450110 0.500000 -0.526721
O4    O     O_R   0.971060 0.500000 0.450110 -0.526985
O5    O     O_R   0.028940 0.450110 0.500000 -0.527205
O6    O     O_R   0.028940 0.500000 0.549890 -0.527223
O7    O     O_R   0.028940 0.549890 0.500000 -0.526955
O8    O     O_R   0.028940 0.500000 0.450110 -0.527472
O9    O     O_R   0.549890 0.500000 0.028940 -0.527086
O10   O     O_R   0.500000 0.450110 0.028940 -0.527889
O11   O     O_R   0.450110 0.500000 0.028940 -0.526067
O12   O     O_R   0.500000 0.549890 0.028940 -0.527440
O13   O     O_R   0.450110 0.500000 0.971060 -0.527135
O14   O     O_R   0.500000 0.450110 0.971060 -0.527551
O15   O     O_R   0.549890 0.500000 0.971060 -0.527262
O16   O     O_R   0.500000 0.549890 0.971060 -0.528154
O17   O     O_R   0.500000 0.971060 0.450110 -0.526938
O18   O     O_R   0.450110 0.971060 0.500000 -0.527138
O19   O     O_R   0.500000 0.971060 0.549890 -0.526922
O20   O     O_R   0.549890 0.971060 0.500000 -0.527222
O21   O     O_R   0.500000 0.028940 0.549890 -0.527453
O22   O     O_R   0.450110 0.028940 0.500000 -0.526843
O23   O     O_R   0.500000 0.028940 0.450110 -0.526812
O24   O     O_R   0.549890 0.028940 0.500000 -0.527149
O25   O     O_R   0.471060 0.049890 0.000000 -0.527030
O26   O     O_R   0.471060 1.000000 0.049890 -0.527254
O27   O     O_R   0.471060 0.950110 0.000000 -0.526898
O28   O     O_R   0.471060 0.000000 0.950110 -0.527111
O29   O     O_R   0.528940 0.950110 0.000000 -0.527135
O30   O     O_R   0.528940 1.000000 0.049890 -0.527168
O31   O     O_R   0.528940 0.049890 0.000000 -0.526973
O32   O     O_R   0.528940 0.000000 0.950110 -0.527401
O33   O     O_R   0.049890 1.000000 0.528940 -0.525699
O34   O     O_R   0.000000 0.950110 0.528940 -0.528691
O35   O     O_R   0.950110 1.000000 0.528940 -0.526165
O36   O     O_R   0.000000 0.049890 0.528940 -0.527914
O37   O     O_R   0.950110 0.000000 0.471060 -0.526925
O38   O     O_R   0.000000 0.950110 0.471060 -0.528367
O39   O     O_R   0.049890 0.000000 0.471060 -0.525246
O40   O     O_R   0.000000 0.049890 0.471060 -0.528568
O41   O     O_R   0.000000 0.471060 0.950110 -0.526789
O42   O     O_R   0.950110 0.471060 0.000000 -0.527026
O43   O     O_R   0.000000 0.471060 0.049890 -0.528031
O44   O     O_R   0.049890 0.471060 0.000000 -0.526378
O45   O     O_R   0.000000 0.528940 0.049890 -0.527155
O46   O     O_R   0.950110 0.528940 0.000000 -0.527107
O47   O     O_R   0.000000 0.528940 0.950110 -0.527030
O48   O     O_R   0.049890 0.528940 0.000000 -0.527488
S1    S     S_3+6 0.049556 0.552686 0.897325 0.090834
O49   O     O_2   0.029139 0.582046 0.911477 -0.166459
O50   O     O_2   0.068750 0.535756 0.926004 -0.303593
O51   O     O_3   0.077762 0.568081 0.868605 -0.479830
H49   H     H_    0.100090 0.568585 0.880585 0.398644
S2    S     S_3+6 0.052081 0.102371 0.550094 0.094828
O52   O     O_2   0.032910 0.088094 0.580222 -0.159502
O53   O     O_2   0.070327 0.073664 0.532199 -0.308915
O54   O     O_3   0.081087 0.130787 0.564525 -0.468036
H50   H     H_    0.103529 0.122622 0.555984 0.394925
S3    S     S_3+6 0.049023 0.446724 0.102556 0.104132
O55   O     O_2   0.028037 0.417600 0.088791 -0.150861
O56   O     O_2   0.068341 0.462933 0.073555 -0.285768
O57   O     O_3   0.077295 0.430887 0.130887 -0.447891
H51   H     H_    0.094606 0.449174 0.133787 0.364631
S4    S     S_3+6 0.051956 0.897619 0.449791 0.102250
O58   O     O_2   0.032662 0.911386 0.419525 -0.151993
O59   O     O_2   0.070060 0.926669 0.467237 -0.295634
O60   O     O_3   0.081330 0.869477 0.435653 -0.447939
H52   H     H_    0.098566 0.868010 0.454234 0.373102
S5    S     S_3+6 0.950544 0.447168 0.897359 0.093230
O61   O     O_2   0.971149 0.417929 0.911462 -0.160916
O62   O     O_2   0.931308 0.463934 0.926121 -0.304162
O63   O     O_3   0.922405 0.431526 0.868707 -0.476028
H53   H     H_    0.899503 0.434963 0.879013 0.394669
S6    S     S_3+6 0.947722 0.897620 0.549792 0.089315
O64   O     O_2   0.966375 0.912243 0.580060 -0.172199
O65   O     O_2   0.929437 0.925973 0.531372 -0.307178
O66   O     O_3   0.918772 0.868984 0.563893 -0.476121
H54   H     H_    0.896598 0.881261 0.564046 0.403237
S7    S     S_3+6 0.951048 0.553246 0.102758 0.096583
O67   O     O_2   0.971810 0.582351 0.088608 -0.162115
O68   O     O_2   0.931645 0.536621 0.074040 -0.298703
O69   O     O_3   0.923064 0.569079 0.131480 -0.473851
H55   H     H_    0.900094 0.565354 0.121445 0.396513
S8    S     S_3+6 0.947578 0.102392 0.450427 0.085502
O70   O     O_2   0.966191 0.087858 0.420074 -0.185998
O71   O     O_2   0.929337 0.074064 0.468896 -0.300226
O72   O     O_3   0.918501 0.130959 0.436538 -0.479255
H56   H     H_    0.899118 0.117048 0.427960 0.405970
S9    S     S_3+6 0.553564 0.102778 0.951367 0.091594
O73   O     O_2   0.582516 0.088143 0.972003 -0.177771
O74   O     O_2   0.536600 0.074441 0.931673 -0.295471
O75   O     O_3   0.569651 0.131647 0.923690 -0.469548
H57   H     H_    0.566682 0.121468 0.900670 0.404046
S10   S     S_3+6 0.102602 0.447618 0.950034 0.095329
O76   O     O_2   0.088579 0.418204 0.970445 -0.158020
O77   O     O_2   0.073775 0.464488 0.931011 -0.304237
O78   O     O_3   0.131207 0.432209 0.921690 -0.474998
H58   H     H_    0.120983 0.436096 0.898828 0.395119
S11   S     S_3+6 0.446104 0.897261 0.951698 0.093518
O79   O     O_2   0.417341 0.911966 0.972565 -0.174757
O80   O     O_2   0.462931 0.925579 0.931845 -0.293828
O81   O     O_3   0.429689 0.868436 0.924176 -0.467339
H59   H     H_    0.435046 0.877239 0.901016 0.402940
S12   S     S_3+6 0.897374 0.552251 0.949978 0.093092
O82   O     O_2   0.911443 0.581715 0.970275 -0.160919
O83   O     O_2   0.926165 0.535287 0.930968 -0.305471
O84   O     O_3   0.868745 0.567580 0.921634 -0.475816
H60   H     H_    0.879024 0.563779 0.898778 0.394735
S13   S     S_3+6 0.446497 0.102747 0.048710 0.091664
O85   O     O_2   0.417524 0.088053 0.028152 -0.177555
O86   O     O_2   0.463558 0.074451 0.068388 -0.295942
O87   O     O_3   0.430419 0.131614 0.076398 -0.468987
H61   H     H_    0.433547 0.121500 0.099428 0.404122
S14   S     S_3+6 0.897474 0.448114 0.050400 0.086363
O88   O     O_2   0.911415 0.418405 0.030345 -0.186413
O89   O     O_2   0.926211 0.465316 0.069207 -0.291692
O90   O     O_3   0.869000 0.433370 0.079120 -0.484464
H62   H     H_    0.882913 0.421528 0.096716 0.405854
S15   S     S_3+6 0.553691 0.897199 0.048438 0.092036
O91   O     O_2   0.582590 0.911920 0.027778 -0.177760
O92   O     O_2   0.536702 0.925475 0.068217 -0.294888
O93   O     O_3   0.569876 0.868304 0.076027 -0.468456
H63   H     H_    0.566387 0.878169 0.099113 0.404022
S16   S     S_3+6 0.102593 0.551966 0.050240 0.090188
O94   O     O_2   0.088283 0.581508 0.030219 -0.161306
O95   O     O_2   0.073976 0.534703 0.069242 -0.311697
O96   O     O_3   0.131258 0.567233 0.078575 -0.476115
H64   H     H_    0.121149 0.563109 0.101452 0.393137
S17   S     S_3+6 0.103045 0.046257 0.444255 0.092323
O97   O     O_2   0.088579 0.024348 0.416168 -0.171610
O98   O     O_2   0.074619 0.066748 0.460118 -0.293055
O99   O     O_3   0.132043 0.073149 0.427101 -0.473755
H65   H     H_    0.121846 0.096300 0.428948 0.400212
S18   S     S_3+6 0.446784 0.049053 0.897342 0.091978
O100  O     O_2   0.417748 0.028561 0.912023 -0.175883
O101  O     O_2   0.463882 0.068631 0.925678 -0.295967
O102  O     O_3   0.430756 0.076837 0.868545 -0.469353
H66   H     H_    0.435568 0.099916 0.877857 0.403269
S19   S     S_3+6 0.896988 0.045543 0.556455 0.096556
O103  O     O_2   0.911505 0.023126 0.584115 -0.173236
O104  O     O_2   0.925412 0.066320 0.540966 -0.284578
O105  O     O_3   0.868044 0.072107 0.574215 -0.469465
H67   H     H_    0.876604 0.095619 0.569644 0.399849
S20   S     S_3+6 0.553433 0.048773 0.102684 0.092157
O106  O     O_2   0.582389 0.028182 0.087978 -0.176371
O107  O     O_2   0.536402 0.068453 0.074374 -0.295249
O108  O     O_3   0.569575 0.076457 0.131510 -0.468710
H68   H     H_    0.564736 0.099571 0.122284 0.403367
S21   S     S_3+6 0.102908 0.953554 0.555645 0.090387
O109  O     O_2   0.088314 0.975417 0.583712 -0.172043
O110  O     O_2   0.074550 0.933076 0.539664 -0.297116
O111  O     O_3   0.131846 0.926658 0.572889 -0.473299
H69   H     H_    0.122355 0.903370 0.569650 0.398192
S22   S     S_3+6 0.446673 0.951132 0.102716 0.091749
O112  O     O_2   0.417648 0.971607 0.087997 -0.177497
O113  O     O_2   0.463808 0.931496 0.074431 -0.295667
O114  O     O_3   0.430647 0.923407 0.131576 -0.468985
H70   H     H_    0.434434 0.900346 0.121764 0.404148
S23   S     S_3+6 0.896937 0.954304 0.443783 0.092617
O115  O     O_2   0.911462 0.976454 0.415907 -0.178957
O116  O     O_2   0.925309 0.933603 0.459459 -0.286022
O117  O     O_3   0.867903 0.927628 0.426377 -0.473742
H71   H     H_    0.878308 0.904535 0.427457 0.402264
S24   S     S_3+6 0.552987 0.950798 0.897263 0.090121
O118  O     O_2   0.582170 0.971090 0.911912 -0.179543
O119  O     O_2   0.535748 0.931312 0.925587 -0.297081
O120  O     O_3   0.568746 0.922927 0.868402 -0.470693
H72   H     H_    0.566312 0.900019 0.878971 0.404413
S25   S     S_3+6 0.549294 0.052989 0.397326 0.093987
O121  O     O_2   0.528598 0.082155 0.411459 -0.159546
O122  O     O_2   0.568599 0.036299 0.426076 -0.303592
O123  O     O_3   0.577367 0.068770 0.368665 -0.474338
H73   H     H_    0.600356 0.064016 0.378244 0.393070
S26   S     S_3+6 0.552174 0.602363 0.049913 0.088701
O124  O     O_2   0.533284 0.588003 0.080180 -0.180641
O125  O     O_2   0.570458 0.573886 0.031710 -0.300048
O126  O     O_3   0.581239 0.630889 0.063895 -0.478358
H74   H     H_    0.601141 0.617016 0.071295 0.405886
S27   S     S_3+6 0.548825 0.946568 0.602743 0.096365
O127  O     O_2   0.527972 0.917520 0.588621 -0.162321
O128  O     O_2   0.568277 0.963128 0.574007 -0.298598
O129  O     O_3   0.576771 0.930659 0.631449 -0.474987
H75   H     H_    0.599710 0.933717 0.621108 0.396751
S28   S     S_3+6 0.551584 0.397562 0.949456 0.085886
O130  O     O_2   0.532285 0.411938 0.919459 -0.196280
O131  O     O_2   0.570191 0.425978 0.967400 -0.288007
O132  O     O_3   0.580420 0.369017 0.935056 -0.480080
H76   H     H_    0.596638 0.382565 0.921055 0.406812
S29   S     S_3+6 0.450615 0.947122 0.397342 0.093430
O133  O     O_2   0.471216 0.917881 0.411447 -0.161023
O134  O     O_2   0.431365 0.963878 0.426100 -0.303850
O135  O     O_3   0.422485 0.931481 0.368678 -0.475432
H77   H     H_    0.399580 0.934918 0.378975 0.395072
S30   S     S_3+6 0.448393 0.397554 0.050561 0.093245
O136  O     O_2   0.467599 0.412115 0.080512 -0.164894
O137  O     O_2   0.429819 0.425996 0.032562 -0.306778
O138  O     O_3   0.419721 0.368912 0.065240 -0.473031
H78   H     H_    0.396969 0.379344 0.061256 0.400051
S31   S     S_3+6 0.451111 0.053412 0.602697 0.095476
O139  O     O_2   0.472064 0.082410 0.588610 -0.157613
O140  O     O_2   0.431711 0.036945 0.573885 -0.301245
O141  O     O_3   0.423100 0.069474 0.631263 -0.469936
H79   H     H_    0.400306 0.061166 0.623926 0.388365
S32   S     S_3+6 0.447645 0.602382 0.950340 0.084157
O142  O     O_2   0.466335 0.587778 0.920066 -0.184132
O143  O     O_2   0.429321 0.574094 0.968800 -0.305306
O144  O     O_3   0.418658 0.630977 0.936325 -0.480336
H80   H     H_    0.398840 0.617143 0.928690 0.405044
S33   S     S_3+6 0.053835 0.602785 0.451657 0.092244
O145  O     O_2   0.082680 0.588076 0.472390 -0.177378
O146  O     O_2   0.036926 0.574497 0.431843 -0.294419
O147  O     O_3   0.070094 0.631674 0.424100 -0.468529
H81   H     H_    0.066421 0.621930 0.400987 0.403942
S34   S     S_3+6 0.602634 0.947931 0.449810 0.092480
O148  O     O_2   0.588584 0.918400 0.470033 -0.161588
O149  O     O_2   0.573836 0.964942 0.430868 -0.306188
O150  O     O_3   0.631269 0.932709 0.421401 -0.476135
H82   H     H_    0.620714 0.936021 0.398591 0.395123
S35   S     S_3+6 0.945931 0.397270 0.451854 0.094401
O151  O     O_2   0.917289 0.411999 0.472881 -0.173023
O152  O     O_2   0.962654 0.425587 0.431922 -0.293028
O153  O     O_3   0.929326 0.368491 0.424410 -0.465878
H83   H     H_    0.936174 0.376324 0.401282 0.401735
S36   S     S_3+6 0.397371 0.052217 0.449951 0.093308
O154  O     O_2   0.411454 0.081704 0.470205 -0.160315
O155  O     O_2   0.426152 0.035229 0.430948 -0.305509
O156  O     O_3   0.368737 0.067524 0.421598 -0.475381
H84   H     H_    0.378980 0.063645 0.398738 0.394883
S37   S     S_3+6 0.946257 0.602766 0.548458 0.091733
O157  O     O_2   0.917390 0.588074 0.527750 -0.177809
O158  O     O_2   0.963207 0.574470 0.568233 -0.295234
O159  O     O_3   0.930035 0.631640 0.576056 -0.468826
H85   H     H_    0.933225 0.621622 0.599117 0.403991
S38   S     S_3+6 0.397461 0.948034 0.550329 0.091678
O160  O     O_2   0.411736 0.918517 0.530241 -0.160187
O161  O     O_2   0.426113 0.965253 0.569300 -0.308513
O162  O     O_3   0.368837 0.932720 0.578700 -0.475405
H86   H     H_    0.378764 0.937233 0.601577 0.393673
S39   S     S_3+6 0.053772 0.397187 0.548335 0.091630
O163  O     O_2   0.082664 0.411927 0.527679 -0.178657
O164  O     O_2   0.036781 0.425440 0.568144 -0.294658
O165  O     O_3   0.069959 0.368268 0.575899 -0.468702
H87   H     H_    0.066893 0.378326 0.598963 0.404253
S40   S     S_3+6 0.602471 0.051790 0.550469 0.086819
O166  O     O_2   0.588329 0.081458 0.530506 -0.181971
O167  O     O_2   0.573860 0.034454 0.569379 -0.295897
O168  O     O_3   0.631029 0.066664 0.579056 -0.483950
H88   H     H_    0.617112 0.076120 0.598020 0.404955
S41   S     S_3+6 0.603035 0.546220 0.944182 0.093049
O169  O     O_2   0.588635 0.524248 0.916111 -0.180710
O170  O     O_2   0.574560 0.566698 0.959971 -0.286044
O171  O     O_3   0.632009 0.573134 0.927025 -0.473539
H89   H     H_    0.621518 0.596174 0.928245 0.402592
S42   S     S_3+6 0.946962 0.549184 0.397300 0.091408
O172  O     O_2   0.917831 0.528818 0.411968 -0.177508
O173  O     O_2   0.964153 0.568694 0.425625 -0.296562
O174  O     O_3   0.931107 0.577026 0.368467 -0.469589
H90   H     H_    0.934405 0.600035 0.378622 0.404037
S43   S     S_3+6 0.397003 0.545787 0.056233 0.102524
O175  O     O_2   0.411223 0.523301 0.083991 -0.163153
O176  O     O_2   0.425664 0.566418 0.041016 -0.275195
O177  O     O_3   0.368347 0.572671 0.073897 -0.456449
H91   H     H_    0.368413 0.593205 0.059026 0.387043
S44   S     S_3+6 0.053260 0.548939 0.602679 0.091540
O178  O     O_2   0.082282 0.528454 0.587955 -0.177037
O179  O     O_2   0.036137 0.568561 0.574384 -0.296085
O180  O     O_3   0.069306 0.576676 0.631507 -0.469151
H92   H     H_    0.064786 0.599762 0.622070 0.403395
S45   S     S_3+6 0.602937 0.453456 0.055554 0.094980
O181  O     O_2   0.588412 0.475274 0.083692 -0.178258
O182  O     O_2   0.574537 0.433042 0.039571 -0.286711
O183  O     O_3   0.631877 0.426483 0.072679 -0.471475
H93   H     H_    0.621847 0.403319 0.070409 0.402831
S46   S     S_3+6 0.946735 0.451060 0.602703 0.091640
O184  O     O_2   0.917691 0.471503 0.587975 -0.177491
O185  O     O_2   0.963897 0.431446 0.574419 -0.295599
O186  O     O_3   0.930724 0.423316 0.631554 -0.469240
H94   H     H_    0.934839 0.400245 0.621896 0.403862
S47   S     S_3+6 0.397055 0.453621 0.944353 0.090322
O187  O     O_2   0.411658 0.475383 0.916215 -0.179280
O188  O     O_2   0.425386 0.433144 0.960394 -0.290180
O189  O     O_3   0.368074 0.426703 0.927232 -0.473881
H95   H     H_    0.378414 0.403614 0.928782 0.401513
S48   S     S_3+6 0.052917 0.450690 0.397309 0.089299
O190  O     O_2   0.082133 0.470904 0.412004 -0.180139
O191  O     O_2   0.035588 0.431232 0.425597 -0.298073
O192  O     O_3   0.068638 0.422790 0.368454 -0.471226
H96   H     H_    0.066540 0.399928 0.379195 0.404376
F1    F     F_    0.005880 0.438837 0.784459 -0.548680
F2    F     F_    0.004190 0.215383 0.438404 -0.549801
F3    F     F_    0.007109 0.561138 0.215525 -0.549742
F4    F     F_    0.004367 0.784566 0.561571 -0.549399
F5    F     F_    0.993920 0.561304 0.784438 -0.549380
F6    F     F_    0.996009 0.784672 0.438856 -0.546749
F7    F     F_    0.993160 0.438902 0.215548 -0.548243
F8    F     F_    0.996235 0.215378 0.561151 -0.546810
F9    F     F_    0.504787 0.215176 0.061188 -0.550168
F10   F     F_    0.215485 0.561510 0.994925 -0.551406
F11   F     F_    0.496033 0.784805 0.061214 -0.550189
F12   F     F_    0.784492 0.438585 0.994915 -0.551849
F13   F     F_    0.495059 0.215177 0.938742 -0.550909
F14   F     F_    0.784474 0.561229 0.005034 -0.549499
F15   F     F_    0.503993 0.784777 0.938622 -0.551646
F16   F     F_    0.215594 0.438813 0.004531 -0.547802
F17   F     F_    0.215104 0.938644 0.496349 -0.552517
F18   F     F_    0.493384 0.938970 0.785007 -0.550124
F19   F     F_    0.784938 0.938881 0.503295 -0.552752
F20   F     F_    0.505124 0.938828 0.215060 -0.550681
F21   F     F_    0.215041 0.061214 0.503793 -0.554024
F22   F     F_    0.494830 0.061222 0.215075 -0.551175
F23   F     F_    0.784922 0.061485 0.496608 -0.553064
F24   F     F_    0.506491 0.061067 0.784926 -0.551239
F25   F     F_    0.505905 0.938773 0.284431 -0.548946
F26   F     F_    0.504501 0.715365 0.938605 -0.549087
F27   F     F_    0.507235 0.061055 0.715518 -0.549222
F28   F     F_    0.505289 0.284597 0.061221 -0.547182
F29   F     F_    0.494086 0.061259 0.284448 -0.548792
F30   F     F_    0.494561 0.284602 0.938703 -0.550274
F31   F     F_    0.492630 0.938898 0.715599 -0.549180
F32   F     F_    0.495595 0.715399 0.061279 -0.546670
F33   F     F_    0.003816 0.715160 0.561472 -0.551025
F34   F     F_    0.715524 0.061567 0.495603 -0.551820
F35   F     F_    0.996618 0.284766 0.561107 -0.550351
F36   F     F_    0.284496 0.938592 0.495440 -0.550162
F37   F     F_    0.996398 0.715279 0.438842 -0.550750
F38   F     F_    0.284429 0.061317 0.504708 -0.549987
F39   F     F_    0.003641 0.284789 0.438447 -0.552639
F40   F     F_    0.715556 0.938785 0.504226 -0.550057
F41   F     F_    0.715081 0.438658 0.995810 -0.550720
F42   F     F_    0.993838 0.438955 0.284952 -0.550174
F43   F     F_    0.284980 0.438943 0.003649 -0.552729
F44   F     F_    0.005166 0.438870 0.715086 -0.550783
F45   F     F_    0.715071 0.561162 0.004178 -0.551566
F46   F     F_    0.994687 0.561250 0.715060 -0.551252
F47   F     F_    0.284891 0.561486 0.995886 -0.558787
F48   F     F_    0.006325 0.561123 0.284922 -0.550482

loop_
_geom_bond_atom_site_label_1
_geom_bond_atom_site_label_2
_ccdc_geom_bond_type
S35   O153  S    
O180  H92   S    
C215  C222  A    
C205  C220  A    
O54   H50   S    
C135  C226  S    
C19   C155  S    
O114  H70   S    
C216  C219  A    
C39   C87   A    
S23   O115  D    
C125  C232  S    
C17   C153  S    
C17   O33   A    
C173  C240  A    
C11   C159  S    
O174  H90   S    
C19   O35   A    
C24   O44   A    
C178  C215  A    
C20   O40   A    
C208  C227  A    
O165  H87   S    
Cu8   O32   S    
C64   C112  A    
C91   C131  A    
C117  H45   S    
C180  F12   S    
C111  H39   S    
O63   H53   S    
C175  C210  A    
C179  F11   S    
C189  C236  A    
C41   S17   S    
C120  H48   S    
S14   O90   S    
O168  H88   S    
S24   O118  D    
S31   O140  D    
C56   C158  A    
O189  H95   S    
C193  C228  A    
C66   C114  A    
Cu4   O13   S    
C101  H29   S    
C44   C92   A    
S44   O180  S    
C18   O34   A    
Cu1   O3    S    
S5    O63   S    
C31   C147  A    
C32   S8    S    
C12   C162  S    
Cu5   Cu6   S    
C8    O16   A    
S14   O89   D    
C176  C203  A    
C90   H18   S    
S42   O173  D    
Cu9   O34   S    
C143  C222  S    
C27   C75   A    
C80   C122  A    
C27   S3    S    
C178  C239  A    
C170  F2    S    
C22   C152  S    
C57   S33   S    
C3    O5    A    
C86   C128  A    
C103  C135  A    
C192  C195  A    
C112  C138  A    
S7    O67   D    
S15   O93   S    
Cu11  O42   S    
S33   O146  D    
C61   S37   S    
C88   H16   S    
S45   O183  S    
C109  H37   S    
C62   S38   S    
C173  F5    S    
C128  C237  S    
S25   O121  D    
C214  F46   S    
C94   C132  A    
C35   S11   S    
S42   O174  S    
C76   C124  A    
C63   C163  A    
S46   O184  D    
C32   C80   A    
Cu12  O46   S    
S36   O156  S    
C189  C206  A    
O147  H81   S    
Cu3   O12   S    
C186  F18   S    
C40   C150  A    
C2    O2    A    
C183  C230  A    
C74   H2    S    
C55   S31   S    
C68   C116  A    
Cu7   O27   S    
C171  C216  A    
O99   H65   S    
C73   C121  A    
S9    O73   D    
S18   O101  D    
Cu10  O40   S    
C186  C199  A    
C86   H14   S    
C188  C229  A    
C58   C162  A    
C184  F16   S    
S32   O142  D    
S25   O123  S    
C67   C167  A    
S11   O80   D    
C48   C96   A    
C14   C156  S    
C72   C166  A    
S48   O190  D    
S8    O71   D    
C6    C160  S    
C101  C133  A    
C175  C238  A    
C170  C235  A    
C71   C119  A    
C79   H7    S    
S40   O166  D    
C40   C88   A    
O162  H86   S    
S41   O170  D    
C33   C149  A    
C14   O26   A    
C139  C218  S    
C64   S40   S    
S26   O124  D    
O150  H82   S    
C79   C123  A    
S24   O120  S    
C7    O13   A    
C63   C111  A    
Cu4   O15   S    
C21   O41   A    
S10   O76   D    
C49   C97   A    
C11   O21   A    
C57   C161  A    
O159  H85   S    
C38   S14   S    
C211  F43   S    
S3    O55   D    
C209  C224  A    
S38   O160  D    
C84   H12   S    
Cu9   O36   S    
S47   O188  D    
S13   O85   D    
C50   S26   S    
C208  F40   S    
C190  C197  A    
C17   O39   A    
C52   C160  A    
C192  C231  A    
C41   C89   A    
C81   H9    S    
S1    O49   D    
C177  F9    S    
C83   H11   S    
S15   O91   D    
C97   C133  A    
C45   C93   A    
C132  C229  S    
C22   O46   A    
C89   C129  A    
S17   O97   D    
C50   C158  A    
C191  C234  A    
C201  F33   S    
S23   O116  D    
Cu9   Cu10  S    
C104  C134  A    
C26   S2    S    
C185  C204  A    
O87   H61   S    
C42   C154  A    
C75   H3    S    
S19   O104  D    
C213  C224  A    
C179  C200  A    
C39   S15   S    
S11   O79   D    
C39   C151  A    
C183  C194  A    
Cu8   O30   S    
S4    O58   D    
Cu1   Cu2   S    
C198  F30   S    
C26   C146  A    
C97   H25   S    
Cu12  O45   S    
C205  F37   S    
C116  C144  A    
C99   H27   S    
O120  H72   S    
Cu2   O6    S    
C169  C240  A    
C16   O28   A    
S9    O75   S    
S46   O185  D    
Cu10  O38   S    
S22   O112  D    
C72   S48   S    
C15   O27   A    
C71   S47   S    
S32   O144  S    
C212  F44   S    
C9    C157  S    
C77   H5    S    
S39   O165  S    
C49   C157  A    
Cu3   O10   S    
S48   O192  S    
S28   O130  D    
S44   O179  D    
S43   O177  S    
C41   C153  A    
C22   O42   A    
C113  H41   S    
S30   O137  D    
C50   C98   A    
C118  H46   S    
C115  H43   S    
C44   C156  A    
S40   O168  S    
C33   S9    S    
C44   S20   S    
C198  C221  A    
S12   O82   D    
S3    O56   D    
Cu5   O18   S    
C77   C121  A    
C36   C152  A    
S7    O69   S    
S21   O110  D    
C52   C100  A    
C59   C107  A    
C210  C219  A    
C196  F28   S    
S38   O161  D    
S20   O106  D    
C42   C90   A    
S6    O66   S    
C202  F34   S    
C107  H35   S    
C31   S7    S    
C25   S1    S    
C108  H36   S    
Cu5   O20   S    
Cu11  O43   S    
C203  F35   S    
C46   C94   A    
C8    O12   A    
S22   O114  S    
S37   O157  D    
C63   S39   S    
C15   C151  S    
S13   O87   S    
Cu6   O23   S    
S29   O134  D    
C54   S30   S    
C24   C150  S    
C4    O8    A    
C68   C168  A    
C5    O9    A    
S16   O94   D    
S36   O155  D    
C188  C193  A    
O129  H75   S    
S1    O51   S    
C16   C154  S    
O93   H63   S    
C96   H24   S    
C2    C168  S    
C192  F24   S    
C184  C211  A    
O81   H59   S    
S17   O99   S    
S35   O152  D    
C48   C154  A    
S46   O186  S    
C81   C125  A    
C200  C223  A    
C36   S12   S    
C119  H47   S    
O111  H69   S    
S22   O113  D    
C46   C156  A    
C194  F26   S    
S2    O53   D    
S4    O60   S    
C204  F36   S    
S47   O189  S    
C123  C238  S    
S34   O148  D    
C204  C225  A    
Cu12  O47   S    
C195  F27   S    
C23   O43   A    
O78   H58   S    
Cu8   O29   S    
C60   S36   S    
C112  H40   S    
C60   C164  A    
C113  C141  A    
S3    O57   S    
C25   C73   A    
S28   O131  D    
C169  F1    S    
C138  C227  S    
C76   H4    S    
C199  C226  A    
C69   C165  A    
C59   C163  A    
O153  H83   S    
C5    O15   A    
C171  F3    S    
C197  C228  A    
C29   C77   A    
S24   O119  D    
S2    O52   D    
S39   O163  D    
C34   C82   A    
O105  H67   S    
C174  F6    S    
Cu4   O14   S    
C66   S42   S    
S28   O132  S    
O102  H66   S    
C100  C136  A    
C182  C237  A    
C87   H15   S    
C194  C223  A    
S5    O62   D    
C84   C128  A    
O69   H55   S    
S27   O127  D    
S12   O84   S    
Cu9   O33   S    
C181  F13   S    
C8    C158  S    
C177  C232  A    
S18   O100  D    
C34   C150  A    
S27   O129  S    
Cu11  Cu12  S    
C185  F17   S    
C172  C233  A    
C213  F45   S    
C1    O7    A    
C187  F19   S    
S20   O108  S    
O96   H64   S    
S15   O92   D    
C42   S18   S    
C175  F7    S    
Cu11  O41   S    
C29   C145  A    
S33   O145  D    
C92   H20   S    
C43   C155  A    
S45   O182  D    
C176  C235  A    
C32   C146  A    
C212  C217  A    
C181  C232  A    
Cu3   Cu4   S    
C65   C165  A    
S37   O159  S    
C95   H23   S    
O135  H77   S    
C4    O4    A    
C67   C115  A    
Cu6   O21   S    
C82   C126  A    
C7    C167  S    
S16   O96   S    
C62   C164  A    
C176  F8    S    
C53   C101  A    
C82   H10   S    
C182  C213  A    
Cu3   O11   S    
C13   O25   A    
C196  C221  A    
C60   C108  A    
C3    C163  S    
C55   C159  A    
C122  C235  S    
C111  C139  A    
C1    C161  S    
C95   C131  A    
C35   C151  A    
C28   S4    S    
C93   C129  A    
C126  C239  S    
C43   S19   S    
C18   O38   A    
S32   O143  D    
S25   O122  D    
C119  C143  A    
C28   C148  A    
C40   S16   S    
C129  C236  S    
C47   S23   S    
S47   O187  D    
C65   S41   S    
O144  H80   S    
C56   C104  A    
S48   O191  D    
C98   H26   S    
C83   C127  A    
Cu8   O31   S    
C35   C83   A    
O117  H71   S    
C186  C231  A    
C169  C212  A    
C23   C147  S    
C127  C230  S    
O108  H68   S    
O183  H93   S    
S40   O167  D    
C117  C141  A    
O192  H96   S    
S41   O169  D    
C70   C168  A    
C6    O14   A    
S26   O125  D    
C7    O11   A    
S31   O141  S    
C206  C225  A    
C78   H6    S    
C99   C135  A    
C206  F38   S    
C215  F47   S    
Cu4   O16   S    
S10   O77   D    
Cu1   O4    S    
C9    O17   A    
C124  C233  S    
C59   S35   S    
Cu6   O24   S    
C74   C122  A    
C38   C86   A    
C114  H42   S    
C11   O19   A    
C69   S45   S    
S14   O88   D    
C75   C123  A    
C46   S22   S    
C45   C153  A    
S42   O172  D    
Cu9   O35   S    
C28   C76   A    
C174  C233  A    
C49   S25   S    
S26   O126  S    
C96   C130  A    
C37   C85   A    
O141  H79   S    
C116  H44   S    
C207  C218  A    
C2    O6    A    
C203  C218  A    
C92   C132  A    
C106  H34   S    
C53   C157  A    
C54   C102  A    
C201  C220  A    
C37   C149  A    
O75   H57   S    
S10   O78   S    
C94   H22   S    
S33   O147  S    
C23   O45   A    
C30   C148  A    
C89   H17   S    
C171  C238  A    
C199  F31   S    
C121  C240  S    
C118  C144  A    
C190  C229  A    
C173  C214  A    
C144  C217  S    
C104  H32   S    
C6    O10   A    
C24   O48   A    
Cu3   O9    S    
S4    O59   D    
C10   O22   A    
C180  C209  A    
C102  C136  A    
C142  C219  S    
C187  C234  A    
C106  C138  A    
C20   O36   A    
C54   C160  A    
Cu7   O28   S    
C90   C130  A    
C209  F41   S    
C70   C118  A    
C185  C236  A    
C70   S46   S    
Cu2   O7    S    
O57   H51   S    
C91   H19   S    
S9    O74   D    
Cu10  O39   S    
C183  F15   S    
C34   S10   S    
S31   O139  D    
C21   C145  S    
S11   O81   S    
C57   C105  A    
C9    O23   A    
C177  C196  A    
S39   O164  D    
C102  H30   S    
C85   C125  A    
O60   H52   S    
C133  C228  S    
S19   O103  D    
C61   C109  A    
S8    O70   D    
C48   S24   S    
C87   C127  A    
O90   H62   S    
S35   O151  D    
S43   O176  D    
S30   O138  S    
C140  C225  S    
O126  H74   S    
C61   C161  A    
C114  C142  A    
S20   O107  D    
C15   O29   A    
S12   O83   D    
S41   O171  S    
C18   C148  S    
C21   O47   A    
S6    O64   D    
S7    O68   D    
O156  H84   S    
C55   C103  A    
C172  F4    S    
C178  F10   S    
C137  C220  S    
C109  C137  A    
O138  H78   S    
C69   C117  A    
C29   S5    S    
C197  F29   S    
Cu5   O19   S    
C26   C74   A    
C16   O32   A    
C68   S44   S    
C136  C221  S    
O123  H73   S    
C187  C208  A    
C174  C205  A    
C88   C126  A    
O84   H60   S    
C189  F21   S    
C80   H8    S    
C191  C202  A    
C65   C113  A    
S13   O86   D    
C105  H33   S    
S29   O133  D    
C184  C239  A    
C130  C231  S    
S21   O111  S    
S16   O95   D    
C110  H38   S    
S1    O50   D    
Cu7   O25   S    
O51   H49   S    
C107  C139  A    
C1    O1    A    
C181  C198  A    
C188  F20   S    
C3    O3    A    
O177  H91   S    
S17   O98   D    
C131  C234  S    
C51   C99   A    
S23   O117  S    
C115  C143  A    
C66   C166  A    
C85   H13   S    
C120  C142  A    
O132  H76   S    
C64   C162  A    
S19   O105  S    
C108  C140  A    
C93   H21   S    
C19   O37   A    
C211  C222  A    
C105  C137  A    
S38   O162  S    
C43   C91   A    
C58   C106  A    
S34   O149  D    
Cu12  O48   S    
C51   S27   S    
Cu7   O26   S    
C56   S32   S    
S43   O175  D    
C62   C110  A    
Cu2   O5    S    
Cu10  O37   S    
C103  H31   S    
C179  C230  A    
C12   O24   A    
O66   H54   S    
Cu5   O17   S    
C14   O30   A    
O171  H89   S    
C58   S34   S    
S21   O109  D    
C5    C165  S    
C72   C120  A    
C12   O20   A    
C73   H1    S    
S34   O150  S    
S8    O72   S    
C37   S13   S    
C78   C124  A    
S44   O178  D    
Cu1   O1    S    
S5    O61   D    
S30   O136  D    
C10   C164  S    
C195  C226  A    
C52   S28   S    
C13   O31   A    
C210  F42   S    
C214  C217  A    
C25   C145  A    
Cu7   Cu8   S    
S27   O128  D    
C31   C79   A    
C202  C227  A    
C207  F39   S    
S2    O54   S    
C191  F23   S    
C98   C134  A    
Cu2   O8    S    
C193  F25   S    
C216  F48   S    
C110  C140  A    
C13   C149  S    
C170  C207  A    
C38   C152  A    
Cu11  O44   S    
S45   O181  D    
C10   O18   A    
C47   C155  A    
C180  C237  A    
C36   C84   A    
C53   S29   S    
C51   C159  A    
S37   O158  D    
S6    O65   D    
C4    C166  S    
C182  F14   S    
C20   C146  S    
C45   S21   S    
C172  C201  A    
Cu6   O22   S    
S29   O135  S    
S18   O102  S    
C141  C224  S    
C30   C78   A    
C200  F32   S    
S36   O154  D    
C27   C147  A    
O186  H94   S    
C47   C95   A    
Cu1   O2    S    
C71   C167  A    
C30   S6    S    
C190  F22   S    
C33   C81   A    
C134  C223  S    
C100  H28   S    
O72   H56   S    
C67   S43   S    
