data_mof_unit_39803.cif
_audit_creation_date              2012-10-26T19:44:11-0400
_audit_creation_method            fapswitch 2.2
_symmetry_space_group_name_H-M    P1
_symmetry_Int_Tables_number       1
_space_group_crystal_system       triclinic
_cell_length_a                    13.765728
_cell_length_b                    15.060378
_cell_length_c                    15.832697
_cell_angle_alpha                 89.582263
_cell_angle_beta                  69.77371
_cell_angle_gamma                 90.549626
_cell_volume                      3079.63962168

loop_
_atom_site_label
_atom_site_type_symbol
_atom_type_description
_atom_site_fract_x
_atom_site_fract_y
_atom_site_fract_z
_atom_type_partial_charge
C1    C     C_R   0.500188 0.671361 0.500270 0.538127
C2    C     C_R   0.500353 0.768167 0.500355 -0.015850
C3    C     C_R   0.427137 0.185001 0.472689 -0.143118
C4    C     C_R   0.572187 0.814990 0.528255 -0.143094
C5    C     C_R   0.426608 0.092475 0.472779 0.012788
C6    C     C_R   0.572724 0.907515 0.528161 0.012708
C7    C     C_R   0.499576 0.046533 0.500433 0.062427
C8    C     C_R   0.499835 0.953459 0.500411 0.062453
C9    C     C_R   0.572418 0.093585 0.527945 0.013298
C10   C     C_R   0.427091 0.906409 0.472775 0.013451
C11   C     C_R   0.354677 0.045151 0.445403 -0.131823
C12   C     C_R   0.499738 0.328638 0.499876 0.537513
C13   C     C_R   0.644635 0.954835 0.555565 -0.132033
C14   C     C_R   0.354919 0.952571 0.445396 -0.129078
C15   C     C_R   0.644528 0.047418 0.555402 -0.129365
C16   C     C_R   0.437058 0.499614 0.672409 0.542459
C17   C     C_R   0.562879 0.501257 0.327638 0.543958
C18   C     C_R   0.234802 0.536939 0.429268 -0.014671
C19   C     C_R   0.765321 0.462373 0.570352 -0.014981
C20   C     C_R   0.178002 0.459791 0.569942 0.404872
C21   C     C_R   0.821850 0.540853 0.430471 0.405942
C22   C     C_R   0.073251 0.463413 0.573588 -0.008098
C23   C     C_R   0.373325 0.494716 0.097586 -0.142548
C24   C     C_R   0.926741 0.536481 0.426355 -0.008397
C25   C     C_R   0.051729 0.499470 0.499921 0.019626
C26   C     C_R   0.948379 0.499910 0.499743 0.019293
C27   C     C_R   0.133348 0.535314 0.426515 -0.030509
C28   C     C_R   0.866767 0.463993 0.573103 -0.031152
C29   C     C_R   0.989763 0.432011 0.648669 -0.129928
C30   C     C_R   0.010158 0.567998 0.351283 -0.130649
C31   C     C_R   0.888205 0.430948 0.647749 -0.149416
C32   C     C_R   0.111847 0.568525 0.351932 -0.150902
C33   C     C_R   0.399424 0.498664 0.771322 -0.032172
C34   C     C_R   0.612472 0.560667 0.909560 -0.143197
C35   C     C_R   0.599515 0.511425 0.229258 -0.030468
C36   C     C_R   0.263029 0.473765 0.915080 0.084933
C37   C     C_R   0.727688 0.563977 0.089895 0.084548
C38   C     C_R   0.295883 0.479745 0.821465 -0.109573
C39   C     C_R   0.699176 0.543089 0.181264 -0.110554
C40   C     C_R   0.469841 0.514105 0.815506 -0.144589
C41   C     C_R   0.529148 0.497792 0.184754 -0.143228
C42   C     C_R   0.439023 0.512133 0.909898 0.015556
C43   C     C_R   0.553399 0.521324 0.093688 0.014750
C44   C     C_R   0.334114 0.489815 0.960037 0.058996
C45   C     C_R   0.302720 0.483590 0.053680 -0.111596
C46   C     C_R   0.655391 0.552818 0.045266 0.058665
C47   C     C_R   0.510703 0.528557 0.955268 0.036609
C48   C     C_R   0.479007 0.513874 0.049736 0.037207
C49   C     C_3   0.199162 0.324975 0.628116 -0.006571
C50   C     C_3   0.248711 0.280552 0.689542 -0.353408
C51   C     C_3   0.801629 0.677755 0.376256 -0.008730
C52   C     C_3   0.753529 0.725605 0.315656 -0.355388
C53   C     C_R   0.682568 0.573078 0.953795 -0.111398
C54   C     C_R   0.571831 0.186066 0.527520 -0.133326
C55   C     C_R   0.427878 0.813934 0.472946 -0.132685
C56   C     C_R   0.499325 0.231829 0.500151 -0.015962
Cu1   Cu    Cu3+1 0.402580 0.500010 0.499990 0.983119
Cu2   Cu    Cu3+1 0.597420 0.499990 0.500010 0.983337
H1    H     H_    0.223150 0.469249 0.094517 0.157257
H2    H     H_    0.549487 0.524922 0.774216 0.123799
H3    H     H_    0.754233 0.554010 0.215133 0.194331
H4    H     H_    0.240836 0.466928 0.787916 0.193421
H5    H     H_    0.341273 0.490485 0.169947 0.099771
H6    H     H_    0.640128 0.579988 0.839565 0.105553
H7    H     H_    0.627382 0.222390 0.549111 0.126188
H8    H     H_    0.372504 0.777619 0.451128 0.126654
H9    H     H_    0.372391 0.220469 0.450011 0.113539
H10   H     H_    0.626694 0.779526 0.551211 0.112888
H11   H     H_    0.298313 0.079732 0.424036 0.110067
H12   H     H_    0.758847 0.598166 0.914707 0.158477
H13   H     H_    0.700949 0.920249 0.576994 0.109705
H14   H     H_    0.298727 0.917077 0.424019 0.112202
H15   H     H_    0.700775 0.082910 0.576712 0.111906
H16   H     H_    0.241216 0.304640 0.557639 0.139707
H17   H     H_    0.118486 0.299354 0.647347 0.109506
H18   H     H_    0.203025 0.294557 0.760985 0.165116
H19   H     H_    0.250936 0.207608 0.679415 0.106478
H20   H     H_    0.328952 0.305966 0.674409 0.166203
H21   H     H_    0.882641 0.702251 0.358210 0.111220
H22   H     H_    0.759336 0.696449 0.447208 0.139362
H23   H     H_    0.296887 0.567131 0.374136 0.128408
H24   H     H_    0.673619 0.700438 0.328437 0.166746
H25   H     H_    0.750755 0.797989 0.329039 0.108737
H26   H     H_    0.800627 0.714643 0.243929 0.169451
H27   H     H_    0.703271 0.431891 0.625300 0.128194
H28   H     H_    0.002275 0.408294 0.708730 0.156558
H29   H     H_    0.997386 0.592329 0.291527 0.158062
H30   H     H_    0.826248 0.404885 0.705881 0.113652
H31   H     H_    0.173782 0.594608 0.293788 0.110186
H32   H     H_    0.455603 0.467955 0.223138 0.124582
I1    I     I_    0.105876 0.435084 0.981715 -0.366567
I2    I     I_    0.879464 0.617429 0.027061 -0.373628
N1    N     N_R   0.256170 0.500070 0.500040 -0.229383
N2    N     N_R   0.743830 0.499930 0.499960 -0.229666
O1    O     O_R   0.417730 0.629750 0.499970 -0.502543
O2    O     O_3   0.797656 0.584976 0.363570 -0.541102
O3    O     O_R   0.582270 0.370250 0.500030 -0.502727
O4    O     O_R   0.582270 0.629730 0.499980 -0.500256
O5    O     O_R   0.417730 0.370270 0.500020 -0.502091
O6    O     O_R   0.371590 0.500020 0.629830 -0.439700
O7    O     O_R   0.628410 0.499980 0.370170 -0.439760
O8    O     O_R   0.536130 0.499990 0.629840 -0.529198
O9    O     O_R   0.463870 0.500010 0.370160 -0.528360
O10   O     O_3   0.201671 0.418180 0.638396 -0.541126

loop_
_geom_bond_atom_site_label_1
_geom_bond_atom_site_label_2
_ccdc_geom_bond_type
C20   N1    A    
C40   H2    S    
C22   C29   A    
C2    C4    A    
Cu2   O4    S    
C49   O10   S    
C7    C8    A    
C54   H7    S    
C23   C45   A    
C24   C26   A    
C5    C11   A    
C2    C55   A    
C8    C10   A    
C11   C14   A    
C21   N2    A    
Cu1   O5    S    
C18   H23   S    
C1    C2    S    
C52   H26   S    
C17   O7    A    
C51   H22   S    
C12   O5    A    
C9    C54   A    
C47   C48   A    
C22   C25   A    
C49   H17   S    
Cu2   O8    S    
C43   C48   A    
C51   O2    S    
C40   C42   A    
C41   H32   S    
Cu1   N1    S    
C41   C43   A    
Cu2   O3    S    
C42   C44   A    
C30   H29   S    
C39   H3    S    
C53   H12   S    
C50   H20   S    
C51   H21   S    
Cu1   O9    S    
C54   C56   A    
C33   C40   A    
C51   C52   S    
C4    C6    A    
C10   C14   A    
C5    C7    A    
C16   O6    A    
C6    C8    A    
C13   H13   S    
C19   H27   S    
C25   C26   A    
Cu1   O6    S    
C52   H25   S    
C35   C39   A    
C19   C28   A    
C50   H18   S    
C16   C33   S    
C3    C56   A    
C32   H31   S    
C1    O1    A    
C34   H6    S    
C12   O3    A    
Cu2   O7    S    
C17   O9    A    
C52   H24   S    
C10   C55   A    
C29   H28   S    
C12   C56   S    
C19   N2    A    
C36   I1    S    
C16   O8    A    
C15   H15   S    
C20   C22   A    
C13   C15   A    
C36   C44   A    
C50   H19   S    
C55   H8    S    
C44   C45   A    
C4    H10   S    
C7    C9    A    
C45   H1    S    
C23   C48   A    
C37   I2    S    
C27   C32   A    
C14   H14   S    
C28   C31   A    
C3    H9    S    
C18   C27   A    
C3    C5    A    
C1    O4    A    
C11   H11   S    
C20   O10   S    
C21   O2    S    
C25   C27   A    
C26   C28   A    
C33   C38   A    
C36   C38   A    
C9    C15   A    
C29   C31   A    
C6    C13   A    
C30   C32   A    
Cu1   Cu2   S    
C46   C53   A    
C23   H5    S    
C42   C47   A    
Cu2   N2    S    
C35   C41   A    
C43   C46   A    
C24   C30   A    
C31   H30   S    
C34   C53   A    
C37   C39   A    
C49   C50   S    
Cu1   O1    S    
C21   C24   A    
C18   N1    A    
C49   H16   S    
C34   C47   A    
C17   C35   S    
C37   C46   A    
C38   H4    S    
