data_mof_unit_61551.cif
_audit_creation_date              2013-03-05T16:53:01-0500
_audit_creation_method            fapswitch 2.2
_symmetry_space_group_name_H-M    P1
_symmetry_Int_Tables_number       1
_space_group_crystal_system       triclinic
_cell_length_a                    15.070602
_cell_length_b                    15.861737
_cell_length_c                    16.646546
_cell_angle_alpha                 89.547386
_cell_angle_beta                  95.428162
_cell_angle_gamma                 90.029288
_cell_volume                      3961.32050702

loop_
_atom_site_label
_atom_site_type_symbol
_atom_site_description
_atom_site_fract_x
_atom_site_fract_y
_atom_site_fract_z
_atom_type_partial_charge
O1    O     O_R   0.573650 0.378020 0.500000 -0.585902
O2    O     O_R   0.426350 0.621980 0.500000 -0.585881
O3    O     O_R   0.426310 0.378020 0.499960 -0.603489
O4    O     O_R   0.573690 0.621980 0.500040 -0.603503
C1    C     C_R   0.499959 0.338919 0.499865 0.902215
C2    C     C_R   0.500041 0.661081 0.500135 0.902280
O5    O     O_R   0.581880 0.499230 0.616150 -0.592229
O6    O     O_R   0.418120 0.500770 0.383850 -0.592247
O7    O     O_R   0.434550 0.499230 0.616110 -0.604066
O8    O     O_R   0.565450 0.500770 0.383890 -0.604040
C3    C     C_R   0.512333 0.498528 0.654265 0.990038
C4    C     C_R   0.487667 0.501477 0.345736 0.990085
Zn1   Zn    Zn3+2 0.598370 0.500000 0.500020 1.084655
Zn2   Zn    Zn3+2 0.401630 0.500000 0.499980 1.084635
C5    C     C_R   0.522011 0.504760 0.741593 -0.291244
C6    C     C_R   0.477986 0.495292 0.258406 -0.291222
C7    C     C_R   0.462266 0.556893 0.777329 -0.286270
C8    C     C_R   0.537686 0.443131 0.222646 -0.286292
C9    C     C_R   0.470158 0.568640 0.860415 0.231969
C10   C     C_R   0.529787 0.431433 0.139553 0.232025
C11   C     C_R   0.537694 0.524703 0.908007 0.050200
C12   C     C_R   0.462289 0.475444 0.091982 0.050170
C13   C     C_R   0.600905 0.476899 0.872335 0.609146
C14   C     C_R   0.399125 0.523284 0.127678 0.609125
C15   C     C_R   0.593146 0.465288 0.788918 0.151510
C16   C     C_R   0.406893 0.534850 0.211101 0.151476
N1    N     N_2   0.535117 0.517413 0.991678 -0.043962
N2    N     N_2   0.464858 0.482748 0.008313 -0.043966
H1    H     H_    0.589474 0.409984 0.259967 0.234723
H2    H     H_    0.410446 0.589983 0.739994 0.234743
C17   C     C_R   0.576086 0.954861 0.483765 0.594539
C18   C     C_R   0.423912 0.045139 0.516229 0.594535
C19   C     C_R   0.499640 0.913026 0.504305 -0.283565
C20   C     C_R   0.500358 0.086974 0.495690 -0.283562
C21   C     C_R   0.422743 0.957364 0.521069 0.139118
C22   C     C_R   0.577254 0.042636 0.478926 0.139114
C23   C     C_1   0.499872 0.824063 0.503090 0.234222
C24   C     C_1   0.500127 0.175937 0.496906 0.234210
C25   C     C_1   0.499875 0.250678 0.498399 -0.055173
C26   C     C_1   0.500125 0.749322 0.501600 -0.055122
C27   C     C_R   0.959786 0.467280 0.565844 -0.283227
C28   C     C_R   0.040214 0.532720 0.434156 -0.283247
H3    H     H_    0.929871 0.441649 0.617430 0.228312
H4    H     H_    0.070128 0.558351 0.382570 0.228294
C29   C     C_R   0.905020 0.500082 0.499771 -0.194688
C30   C     C_R   0.094980 0.499918 0.500229 -0.194678
C31   C     C_R   0.946418 0.532863 0.433800 0.720993
C32   C     C_R   0.053581 0.467137 0.566200 0.720994
C33   C     C_1   0.807151 0.500008 0.499908 0.292807
C34   C     C_1   0.192849 0.499991 0.500093 0.292779
N3    N     N_1   0.270550 0.500020 0.500020 -0.070833
N4    N     N_1   0.729450 0.499980 0.499980 -0.070824
N5    N     N_R   0.590267 0.375726 0.103931 0.270678
O9    O     O_R   0.565318 0.336635 0.037136 -0.263573
O10   O     O_R   0.667421 0.357460 0.141915 -0.268872
N6    N     N_R   0.409629 0.624317 0.896008 0.270665
O11   O     O_R   0.434561 0.663492 0.962761 -0.263448
O12   O     O_R   0.332437 0.642469 0.858038 -0.268863
F1    F     F_    0.664968 0.435201 0.919952 -0.524575
F2    F     F_    0.335101 0.565054 0.080079 -0.524545
N7    N     N_R   0.653792 0.409400 0.754020 0.257102
O13   O     O_R   0.738087 0.409524 0.779632 -0.248397
O14   O     O_R   0.623614 0.351774 0.703315 -0.349718
N8    N     N_R   0.346307 0.590778 0.246027 0.257081
O15   O     O_R   0.262019 0.590774 0.220386 -0.248320
O16   O     O_R   0.376543 0.648328 0.296790 -0.349838
N9    N     N_R   0.655939 0.085621 0.457233 0.267643
O17   O     O_R   0.649371 0.152050 0.410668 -0.336563
O18   O     O_R   0.734730 0.055327 0.479596 -0.219110
N10   N     N_R   0.344058 0.914379 0.542761 0.267649
O19   O     O_R   0.350625 0.847950 0.589326 -0.336573
O20   O     O_R   0.265267 0.944672 0.520396 -0.219102
F3    F     F_    0.648241 0.909684 0.465889 -0.561967
F4    F     F_    0.351757 0.090315 0.534105 -0.561971
F5    F     F_    0.103885 0.434894 0.631154 -0.592528
F6    F     F_    0.896115 0.565106 0.368846 -0.592532

loop_
_geom_bond_atom_site_label_1
_geom_bond_atom_site_label_2
_geom_bond_distance
_ccdc_geom_bond_type
C9    N6    1.440298 S    
O5    C3    1.275510 A    
O7    Zn2   1.949768 S    
C17   C19   1.398113 A    
N10   O19   1.301373 A    
C19   C21   1.407329 A    
O6    C4    1.275504 A    
Zn1   N4    1.975518 S    
C27   H3    1.083287 S    
C18   C21   1.394157 A    
C30   C34   1.475162 S    
C20   C22   1.407327 A    
Zn2   N3    1.975516 S    
C27   C29   1.407591 A    
C29   C33   1.475162 S    
C14   F2    1.358479 S    
C33   N4    1.171111 T    
N8    O15   1.301232 A    
N7    O13   1.301231 A    
C1    C25   1.400061 S    
C34   N3    1.171111 T    
C11   N1    1.400904 S    
C22   N9    1.441445 S    
C4    C6    1.451333 S    
C8    H1    1.084006 S    
C12   N2    1.400885 S    
N5    O9    1.301437 A    
C13   F1    1.358483 S    
C7    H2    1.084007 S    
O7    C3    1.279347 A    
C32   F5    1.357195 S    
O2    C2    1.271567 A    
O3    Zn2   1.970436 S    
C28   H4    1.083285 S    
O1    C1    1.271566 A    
C6    C16   1.412440 A    
O8    C4    1.279338 A    
O4    C2    1.271872 A    
C9    C11   1.410229 A    
C27   C32   1.413005 A    
C10   C12   1.410231 A    
C31   F6    1.357195 S    
C23   C26   1.185985 T    
C8    C10   1.390955 A    
C28   C31   1.413005 A    
N5    O10   1.301582 A    
C11   C13   1.396405 A    
C18   F4    1.360117 S    
C24   C25   1.185986 T    
O2    Zn2   1.970164 S    
C12   C14   1.396405 A    
C5    C15   1.412444 A    
O1    Zn1   1.970166 S    
N9    O17   1.301374 A    
O3    C1    1.271874 A    
C30   C32   1.409224 A    
C17   F3    1.360117 S    
O5    Zn1   1.972193 S    
C2    C26   1.400062 S    
N6    O11   1.301435 A    
C14   C16   1.396106 A    
C6    C8    1.399377 A    
C13   C15   1.396109 A    
C28   C30   1.407591 A    
C29   C31   1.409224 A    
N1    N2    1.246057 D    
C5    C7    1.399388 A    
C16   N8    1.438098 S    
C17   C22   1.394157 A    
C15   N7    1.438083 S    
O6    Zn2   1.972192 S    
C7    C9    1.390942 A    
C18   C20   1.398115 A    
C20   C24   1.411425 S    
C3    C5    1.451360 S    
N10   O20   1.301374 A    
N7    O14   1.301497 A    
C19   C23   1.411425 S    
O4    Zn1   1.970436 S    
C21   N10   1.441445 S    
N6    O12   1.301582 A    
C10   N5    1.440314 S    
N9    O18   1.301373 A    
O8    Zn1   1.949767 S    
N8    O16   1.301497 A    
