data_mof_unit_51907.cif
_audit_creation_date              2012-12-10T17:49:43-0500
_audit_creation_method            fapswitch 2.2
_symmetry_space_group_name_H-M    P1
_symmetry_Int_Tables_number       1
_space_group_crystal_system       triclinic
_cell_length_a                    10.503693
_cell_length_b                    10.706485
_cell_length_c                    9.909715
_cell_angle_alpha                 89.398754
_cell_angle_beta                  91.028634
_cell_angle_gamma                 91.950198
_cell_volume                      1113.5436377

loop_
_atom_site_label
_atom_site_type_symbol
_atom_type_description
_atom_site_fract_x
_atom_site_fract_y
_atom_site_fract_z
_atom_type_partial_charge
C1    C     C_R   0.507029 0.261061 0.501020 0.876132
C2    C     C_R   0.602183 0.068378 0.592915 0.109042
C3    C     C_R   0.519902 0.129535 0.501775 -0.123012
C4    C     C_R   0.257387 0.500004 0.499127 0.942840
C5    C     C_R   0.452503 0.066056 0.401079 -0.250106
C6    C     C_R   0.457407 0.939496 0.391781 -0.047504
C7    C     C_R   0.523533 0.873308 0.493949 -0.190531
C8    C     C_R   0.331533 0.335699 0.138012 -0.249464
C9    C     C_R   0.250065 0.252093 0.066611 -0.029989
C10   C     C_R   0.252813 0.252800 0.926308 -0.255686
C11   C     C_R   0.334862 0.334564 0.858050 -0.193604
C12   C     C_3   0.958607 0.537532 0.377474 0.482525
C13   C     C_R   0.417979 0.418722 0.926915 0.177715
C14   C     C_R   0.417149 0.419107 0.071385 0.154096
C15   C     C_R   0.580167 0.576110 0.072172 -0.032021
C16   C     C_R   0.507339 0.739952 0.498779 0.882182
C17   C     C_R   0.580041 0.576039 0.929004 -0.123880
C18   C     C_R   0.742513 0.503357 0.500716 0.873273
C19   C     C_3   0.042442 0.469240 0.622883 -0.156281
C20   C     C_3   0.953025 0.388580 0.530989 -0.184388
C21   C     C_3   0.877515 0.505834 0.501130 -0.095527
C22   C     C_3   0.964092 0.586914 0.593814 -0.350072
C23   C     C_3   0.035347 0.420066 0.406181 -0.346840
C24   C     C_3   0.045171 0.617745 0.468933 0.455459
C25   C     C_2   0.859541 0.877234 0.858678 0.892636
C26   C     C_2   0.393499 0.883444 0.271117 0.975364
C27   C     C_2   0.162249 0.162741 0.137256 0.903011
C28   C     C_3   0.041635 0.836093 0.469730 0.122481
C29   C     C_3   0.921666 0.857208 0.382648 -0.334126
C30   C     C_3   0.875613 0.989978 0.397068 -0.929597
C31   C     C_3   0.962211 0.542268 0.140921 0.096569
C32   C     C_3   0.081620 0.623998 0.113219 -0.323674
C33   C     C_3   0.133212 0.600000 0.973429 -0.886192
C34   C     C_3   0.122227 0.501566 0.498050 -0.096765
C35   C     C_R   0.687687 0.134691 0.680513 -0.209033
C36   C     C_R   0.769626 0.071927 0.767261 -0.186353
C37   C     C_R   0.770050 0.942005 0.767800 -0.048627
C38   C     C_R   0.688757 0.874688 0.679078 -0.263688
C39   C     C_R   0.603038 0.937041 0.590720 0.118240
H1    H     H_    0.910130 0.295479 0.557260 0.156567
H2    H     H_    0.070869 0.352688 0.333311 0.190951
H3    H     H_    0.397026 0.116379 0.326470 0.202735
H4    H     H_    0.696426 0.235398 0.680188 0.172750
H5    H     H_    0.834356 0.125077 0.832897 0.167937
H6    H     H_    0.722109 0.821815 0.987062 0.311832
H7    H     H_    0.232378 0.863158 0.159703 0.349325
H8    H     H_    0.023409 0.027998 0.121423 0.360165
H9    H     H_    0.107749 0.918548 0.458213 0.232777
H10   H     H_    0.018638 0.831623 0.578612 0.148825
H11   H     H_    0.942231 0.841474 0.274842 0.272958
H12   H     H_    0.699357 0.774830 0.675301 0.143187
H13   H     H_    0.844443 0.790066 0.413842 0.213470
H14   H     H_    0.865603 0.012965 0.504906 0.274934
H15   H     H_    0.781992 0.998684 0.344562 0.277180
H16   H     H_    0.944543 0.058324 0.351877 0.292749
H17   H     H_    0.894355 0.553055 0.054586 0.192044
H18   H     H_    0.984023 0.441433 0.144634 0.116052
H19   H     H_    0.057545 0.723838 0.119062 0.268832
H20   H     H_    0.156651 0.604378 0.190132 0.244474
H21   H     H_    0.149990 0.499174 0.961462 0.251724
H22   H     H_    0.224603 0.653545 0.960035 0.281727
H23   H     H_    0.645781 0.638088 0.126620 0.195158
H24   H     H_    0.064247 0.630137 0.894372 0.285573
H25   H     H_    0.325846 0.333298 0.245034 0.224629
H26   H     H_    0.191079 0.189730 0.868132 0.208934
H27   H     H_    0.329983 0.328790 0.751103 0.218654
H28   H     H_    0.645713 0.637333 0.875283 0.154134
H29   H     H_    0.081404 0.439097 0.722354 0.165929
H30   H     H_    0.927733 0.650802 0.670577 0.161581
N1    N     N_R   0.498800 0.498800 0.142780 -0.120064
N2    N     N_R   0.498760 0.498720 0.857170 -0.123059
O1    O     O_R   0.500000 0.316780 0.614690 -0.647989
O2    O     O_R   0.816297 0.811390 0.972161 -0.808262
O3    O     O_2   0.456841 0.835455 0.184547 -0.632750
O4    O     O_R   0.262933 0.896620 0.250277 -0.775019
O5    O     O_2   0.164865 0.154352 0.260360 -0.679021
O6    O     O_R   0.076785 0.086509 0.062602 -0.787240
O7    O     O_3   0.107471 0.730644 0.427949 -0.644621
O8    O     O_3   0.900061 0.581961 0.257264 -0.646863
O9    O     O_R   0.499990 0.316750 0.385360 -0.639035
O10   O     O_R   0.313960 0.499980 0.614650 -0.638517
O11   O     O_R   0.313940 0.499960 0.385310 -0.643665
O12   O     O_R   0.500010 0.683250 0.614640 -0.611188
O13   O     O_R   0.500000 0.683220 0.385310 -0.587920
O14   O     O_R   0.686060 0.500040 0.614690 -0.643346
O15   O     O_R   0.686040 0.500020 0.385350 -0.581583
O16   O     O_2   0.973552 0.884551 0.837020 -0.593802
Zn1   Zn    Zn3+2 0.500010 0.500020 0.653130 0.934275
Zn2   Zn    Zn3+2 0.499990 0.499980 0.346870 0.977275

loop_
_geom_bond_atom_site_label_1
_geom_bond_atom_site_label_2
_ccdc_geom_bond_type
C2    C35   A    
C5    H3    S    
C18   C21   S    
C19   C20   S    
C32   H19   S    
C30   H15   S    
C12   C23   S    
C37   C38   A    
O11   Zn2   S    
C28   C29   S    
C5    C6    A    
C20   H1    S    
C10   H26   S    
C12   O8    S    
C25   O16   D    
H6    O2    S    
O9    Zn2   S    
C25   C37   S    
C2    C39   A    
C4    O10   A    
C35   C36   A    
C8    C9    A    
C31   H17   S    
C28   O7    S    
C9    C10   A    
C22   H30   S    
C11   H27   S    
O12   Zn1   S    
C13   C14   A    
C14   N1    A    
H7    O4    S    
O1    Zn1   S    
C29   H11   S    
C38   C39   A    
C30   H14   S    
C4    C34   S    
C17   H28   S    
C1    O1    A    
C18   O14   A    
C19   C22   S    
C38   H12   S    
C13   N2    A    
C27   O6    S    
C12   C21   S    
C19   C34   S    
C16   O13   A    
C24   C34   S    
C1    C3    S    
C29   C30   S    
C28   H10   S    
C31   C32   S    
C20   C23   S    
C33   H24   S    
C23   C34   S    
C26   O4    S    
C19   H29   S    
C18   O15   A    
C8    H25   S    
C24   O7    S    
C7    C16   S    
C17   N2    A    
C33   H21   S    
C22   C24   S    
C36   H5    S    
N1    Zn2   S    
O13   Zn2   S    
H8    O6    S    
C27   O5    D    
C35   H4    S    
C9    C27   S    
O14   Zn1   S    
C15   C17   A    
C15   N1    A    
C28   H9    S    
C8    C14   A    
C3    C5    A    
O15   Zn2   S    
C31   O8    S    
C6    C7    A    
C30   H16   S    
C12   C24   S    
C23   H2    S    
C32   C33   S    
C31   H18   S    
C2    C3    A    
C11   C13   A    
C6    C26   S    
C33   H22   S    
C26   O3    D    
C15   H23   S    
C25   O2    S    
C16   O12   A    
O10   Zn1   S    
C10   C11   A    
N2    Zn1   S    
C4    O11   A    
C20   C21   S    
C36   C37   A    
C1    O9    A    
C7    C39   A    
C32   H20   S    
C21   C22   S    
C29   H13   S    
