data_mof_unit_40388.cif
_audit_creation_date              2012-12-11T15:54:51-0500
_audit_creation_method            fapswitch 2.2
_symmetry_space_group_name_H-M    P1
_symmetry_Int_Tables_number       1
_space_group_crystal_system       triclinic
_cell_length_a                    17.561256
_cell_length_b                    24.362695
_cell_length_c                    15.111171
_cell_angle_alpha                 89.999975
_cell_angle_beta                  126.157622
_cell_angle_gamma                 90.000012
_cell_volume                      5219.94723458

loop_
_atom_site_label
_atom_site_type_symbol
_atom_type_description
_atom_site_fract_x
_atom_site_fract_y
_atom_site_fract_z
_atom_type_partial_charge
C1    C     C_R   0.904611 0.871077 0.090204 -0.132487
C2    C     C_R   0.904730 0.129110 0.090163 -0.132584
C3    C     C_R   0.404728 0.370889 0.090161 -0.132589
C4    C     C_R   0.404612 0.628923 0.090205 -0.132487
C5    C     C_R   0.057683 0.848698 0.907416 -0.137411
C6    C     C_R   0.057592 0.151321 0.907409 -0.131761
C7    C     C_R   0.557594 0.348679 0.907411 -0.131782
C8    C     C_R   0.557683 0.651302 0.907416 -0.137414
C9    C     C_R   0.148352 0.152429 0.090386 -0.166035
C10   C     C_R   0.148441 0.847596 0.090408 -0.165658
C11   C     C_R   0.648442 0.652404 0.090408 -0.165655
C12   C     C_R   0.648350 0.347571 0.090387 -0.166017
C13   C     C_R   0.324199 0.000028 0.272686 -0.004800
C14   C     C_R   0.824200 0.499971 0.272691 -0.004799
C15   C     C_R   0.936336 0.000133 0.635336 0.071711
C16   C     C_R   0.436334 0.499866 0.635335 0.071524
C17   C     C_R   0.117930 0.816837 0.998216 0.060220
C18   C     C_R   0.117788 0.183195 0.998189 0.058237
C19   C     C_R   0.617788 0.316804 0.998191 0.058231
C20   C     C_R   0.617930 0.683163 0.998216 0.060226
C21   C     C_3   0.911705 0.052533 0.381107 -0.422723
C22   C     C_3   0.906462 0.949548 0.376912 -0.508587
C23   C     C_3   0.406430 0.550433 0.376884 -0.508567
C24   C     C_3   0.411757 0.447449 0.381147 -0.422664
C25   C     C_3   0.893720 0.052184 0.468904 0.445682
C26   C     C_3   0.896876 0.947274 0.471517 0.469468
C27   C     C_3   0.396865 0.552719 0.471504 0.469453
C28   C     C_3   0.393728 0.447810 0.468909 0.445494
C29   C     C_3   0.063378 0.998503 0.505145 -0.423886
C30   C     C_3   0.563383 0.501521 0.505154 -0.423938
C31   C     C_3   0.967234 0.000110 0.391722 0.267509
C32   C     C_3   0.467243 0.499887 0.391729 0.267545
C33   C     C_3   0.941139 0.000175 0.542615 0.187254
C34   C     C_3   0.441137 0.499823 0.542614 0.187170
C35   C     C_R   0.811011 0.126141 0.906279 -0.131216
C36   C     C_R   0.810954 0.873943 0.906311 -0.133077
C37   C     C_R   0.310955 0.626057 0.906312 -0.133077
C38   C     C_R   0.311012 0.373857 0.906276 -0.131216
C39   C     C_3   0.048271 0.001127 0.594170 -0.604871
C40   C     C_3   0.548272 0.498878 0.594173 -0.604749
C41   C     C_3   0.654443 0.183903 0.890424 -0.514601
C42   C     C_3   0.654357 0.816196 0.890545 -0.515562
C43   C     C_3   0.154359 0.683806 0.890544 -0.515573
C44   C     C_3   0.154459 0.316080 0.890398 -0.514574
C45   C     C_3   0.098951 0.732987 0.890230 0.422403
C46   C     C_3   0.098953 0.266971 0.890120 0.421707
C47   C     C_3   0.598934 0.233010 0.890154 0.421726
C48   C     C_3   0.598951 0.767012 0.890227 0.422404
C49   C     C_3   0.304917 0.739696 0.002459 -0.384437
C50   C     C_3   0.304953 0.260151 0.002514 -0.383577
C51   C     C_3   0.804929 0.239845 0.002475 -0.383564
C52   C     C_3   0.804914 0.760305 0.002455 -0.384438
C53   C     C_3   0.752458 0.180266 0.095609 -0.397710
C54   C     C_3   0.752461 0.819767 0.095737 -0.404332
C55   C     C_3   0.252460 0.680233 0.095736 -0.404331
C56   C     C_3   0.252431 0.319743 0.095578 -0.397716
C57   C     C_3   0.757277 0.185018 0.996326 0.336871
C58   C     C_3   0.757217 0.815101 0.996399 0.343175
C59   C     C_3   0.257219 0.684900 0.996400 0.343183
C60   C     C_3   0.257280 0.314977 0.996321 0.336848
C61   C     C_3   0.164385 0.767302 0.997116 0.319244
C62   C     C_3   0.164312 0.232678 0.997060 0.313740
C63   C     C_3   0.664310 0.267319 0.997064 0.313751
C64   C     C_3   0.664384 0.732698 0.997115 0.319237
C65   C     C_3   0.250344 0.787976 0.002545 -0.528879
C66   C     C_3   0.250280 0.211925 0.002576 -0.527531
C67   C     C_3   0.750249 0.288072 0.002518 -0.527540
C68   C     C_3   0.750346 0.712025 0.002549 -0.528878
C69   C     C_3   0.199306 0.729781 0.097553 -0.368260
C70   C     C_3   0.199230 0.270239 0.097440 -0.361213
C71   C     C_3   0.699273 0.229776 0.097479 -0.361210
C72   C     C_3   0.699302 0.770221 0.097550 -0.368265
C73   C     C_3   0.476892 0.948848 0.358014 -0.409324
C74   C     C_3   0.476437 0.051810 0.359197 -0.397395
C75   C     C_3   0.976435 0.448185 0.359205 -0.397375
C76   C     C_3   0.976895 0.551147 0.358009 -0.409324
C77   C     C_R   0.744898 0.954332 0.695082 -0.135262
C78   C     C_R   0.744966 0.045700 0.695104 -0.153799
C79   C     C_R   0.244968 0.454299 0.695103 -0.153820
C80   C     C_R   0.244898 0.545667 0.695082 -0.135241
C81   C     C_3   0.580994 0.948732 0.458392 -0.390522
C82   C     C_3   0.580516 0.051863 0.459404 -0.399665
C83   C     C_3   0.080512 0.448132 0.459415 -0.399673
C84   C     C_3   0.080999 0.551262 0.458383 -0.390524
C85   C     C_3   0.434271 0.999507 0.469781 -0.388355
C86   C     C_3   0.934273 0.500498 0.469785 -0.388367
C87   C     C_3   0.425990 0.000046 0.361723 0.393751
C88   C     C_3   0.925991 0.499953 0.361726 0.393748
C89   C     C_3   0.601897 0.000046 0.530671 0.386217
C90   C     C_3   0.101899 0.499953 0.530672 0.386216
C91   C     C_3   0.537097 0.999551 0.568443 -0.401581
C92   C     C_3   0.037100 0.500458 0.568445 -0.401555
C93   C     C_R   0.007322 0.046028 0.275699 -0.157903
C94   C     C_R   0.007676 0.954027 0.276099 -0.147304
C95   C     C_R   0.507683 0.545971 0.276106 -0.147294
C96   C     C_R   0.507328 0.453971 0.275703 -0.157916
C97   C     C_R   0.815339 0.858539 0.997543 0.024013
C98   C     C_R   0.815461 0.141630 0.997500 0.023899
C99   C     C_R   0.315462 0.358366 0.997496 0.023906
C100  C     C_R   0.315340 0.641462 0.997544 0.024012
C101  C     C_R   0.698612 0.000030 0.631654 0.019079
C102  C     C_R   0.198614 0.499970 0.631654 0.019026
C103  C     C_R   0.986781 0.000039 0.310978 0.072033
C104  C     C_R   0.486792 0.499959 0.310988 0.072020
C105  C     C_R   0.267892 0.953967 0.246742 -0.138900
C106  C     C_R   0.267842 0.046062 0.246706 -0.139428
C107  C     C_R   0.767842 0.453938 0.246710 -0.139430
C108  C     C_R   0.767893 0.546033 0.246745 -0.138901
C109  C     C_R   0.952282 0.045983 0.697474 -0.185535
C110  C     C_R   0.951762 0.954174 0.697076 -0.117807
C111  C     C_R   0.451761 0.545825 0.697075 -0.117698
C112  C     C_R   0.452281 0.454017 0.697475 -0.185573
H1    H     H_    0.936419 0.857104 0.172461 0.081458
H2    H     H_    0.936630 0.143278 0.172320 0.082206
H3    H     H_    0.436623 0.356724 0.172318 0.082204
H4    H     H_    0.436420 0.642895 0.172463 0.081458
H5    H     H_    0.844061 0.054923 0.297436 0.191974
H6    H     H_    0.835867 0.952242 0.296490 0.197093
H7    H     H_    0.335830 0.547712 0.296474 0.197126
H8    H     H_    0.344131 0.445026 0.297466 0.191955
H9    H     H_    0.926435 0.090349 0.517993 -0.005262
H10   H     H_    0.937053 0.910660 0.522371 -0.005117
H11   H     H_    0.437045 0.589335 0.522346 -0.005047
H12   H     H_    0.426418 0.409644 0.518004 -0.005118
H13   H     H_    0.108253 0.033690 0.514819 0.174250
H14   H     H_    0.101745 0.960032 0.514360 0.174070
H15   H     H_    0.601711 0.540007 0.514356 0.174060
H16   H     H_    0.608296 0.466352 0.514845 0.174262
H17   H     H_    0.081385 0.039298 0.643052 0.195111
H18   H     H_    0.085207 0.965788 0.650985 0.194698
H19   H     H_    0.585205 0.534212 0.651003 0.194688
H20   H     H_    0.581385 0.460703 0.643039 0.195101
H21   H     H_    0.652801 0.187234 0.816035 0.118455
H22   H     H_    0.652659 0.812954 0.816110 0.117859
H23   H     H_    0.152664 0.687052 0.816112 0.117862
H24   H     H_    0.152843 0.312743 0.816027 0.118448
H25   H     H_    0.620168 0.144343 0.884960 0.185959
H26   H     H_    0.620032 0.855716 0.885192 0.185724
H27   H     H_    0.120035 0.644284 0.885186 0.185718
H28   H     H_    0.120168 0.355639 0.884907 0.185964
H29   H     H_    0.076379 0.758649 0.817477 0.002554
H30   H     H_    0.076358 0.241274 0.817400 0.003837
H31   H     H_    0.576295 0.258695 0.817408 0.003831
H32   H     H_    0.576386 0.741350 0.817477 0.002555
H33   H     H_    0.308216 0.743469 0.931306 0.173720
H34   H     H_    0.308330 0.256324 0.931423 0.174124
H35   H     H_    0.808293 0.243662 0.931373 0.174114
H36   H     H_    0.808207 0.756531 0.931296 0.173717
H37   H     H_    0.755394 0.133451 0.820980 0.092727
H38   H     H_    0.755333 0.866620 0.821022 0.091920
H39   H     H_    0.255333 0.633381 0.821022 0.091921
H40   H     H_    0.255399 0.366551 0.820978 0.092731
H41   H     H_    0.226968 0.814958 0.931157 0.169553
H42   H     H_    0.226898 0.184923 0.931212 0.170268
H43   H     H_    0.726833 0.315057 0.931122 0.170259
H44   H     H_    0.726973 0.685040 0.931167 0.169554
H45   H     H_    0.823711 0.179342 0.174791 0.144915
H46   H     H_    0.823738 0.820657 0.174886 0.143010
H47   H     H_    0.323737 0.679340 0.174886 0.143003
H48   H     H_    0.323679 0.320667 0.174767 0.144934
H49   H     H_    0.716195 0.141536 0.089917 0.173309
H50   H     H_    0.716220 0.858483 0.090170 0.170184
H51   H     H_    0.216214 0.641518 0.090164 0.170189
H52   H     H_    0.216170 0.358478 0.089865 0.173299
H53   H     H_    0.638821 0.215562 0.096978 0.195755
H54   H     H_    0.638827 0.784401 0.097035 0.193421
H55   H     H_    0.138834 0.715603 0.097045 0.193417
H56   H     H_    0.138753 0.284461 0.096882 0.195769
H57   H     H_    0.248398 0.752336 0.175515 0.133026
H58   H     H_    0.248289 0.247702 0.175436 0.134466
H59   H     H_    0.748356 0.252325 0.175452 0.134461
H60   H     H_    0.748389 0.747667 0.175514 0.133027
H61   H     H_    0.378705 0.741334 0.078217 0.169070
H62   H     H_    0.378710 0.258503 0.078328 0.169913
H63   H     H_    0.878691 0.241505 0.078281 0.169915
H64   H     H_    0.878704 0.758667 0.078208 0.169071
H65   H     H_    0.298020 0.812795 0.078102 0.187398
H66   H     H_    0.297895 0.187108 0.078154 0.187875
H67   H     H_    0.797867 0.312908 0.078067 0.187879
H68   H     H_    0.798023 0.687210 0.078111 0.187399
H69   H     H_    0.444139 0.910188 0.359341 0.144036
H70   H     H_    0.443543 0.090108 0.361731 0.142630
H71   H     H_    0.943537 0.409889 0.361739 0.142624
H72   H     H_    0.944146 0.589810 0.359338 0.144040
H73   H     H_    0.472160 0.949016 0.281269 0.165446
H74   H     H_    0.471546 0.052522 0.282359 0.165426
H75   H     H_    0.971547 0.447471 0.282369 0.165424
H76   H     H_    0.972157 0.550977 0.281261 0.165441
H77   H     H_    0.627736 0.948450 0.431282 0.199688
H78   H     H_    0.627014 0.052790 0.432036 0.183237
H79   H     H_    0.127012 0.447195 0.432050 0.183168
H80   H     H_    0.127737 0.551535 0.431266 0.199690
H81   H     H_    0.732189 0.911950 0.669248 0.084418
H82   H     H_    0.732459 0.088085 0.669308 0.083437
H83   H     H_    0.232463 0.411915 0.669308 0.083446
H84   H     H_    0.232187 0.588050 0.669249 0.084418
H85   H     H_    0.594167 0.910270 0.504913 0.139459
H86   H     H_    0.593490 0.090005 0.506689 0.140826
H87   H     H_    0.093479 0.409993 0.506707 0.140841
H88   H     H_    0.094181 0.589728 0.504897 0.139465
H89   H     H_    0.399059 0.962467 0.473504 0.153565
H90   H     H_    0.398614 0.036099 0.474226 0.153858
H91   H     H_    0.898619 0.463906 0.474237 0.153862
H92   H     H_    0.899059 0.537539 0.473502 0.153564
H93   H     H_    0.551243 0.962538 0.619390 0.154839
H94   H     H_    0.550894 0.036226 0.620030 0.156249
H95   H     H_    0.050898 0.463788 0.620045 0.156250
H96   H     H_    0.051246 0.537476 0.619380 0.154835
H97   H     H_    0.016538 0.087506 0.304906 0.087315
H98   H     H_    0.017382 0.912615 0.305873 0.084825
H99   H     H_    0.517387 0.587384 0.305882 0.084818
H100  H     H_    0.516540 0.412492 0.304903 0.087324
H101  H     H_    0.289048 0.911474 0.262136 0.089536
H102  H     H_    0.288841 0.088575 0.261867 0.089994
H103  H     H_    0.788841 0.411424 0.261871 0.089993
H104  H     H_    0.789051 0.588526 0.262142 0.089535
H105  H     H_    0.942713 0.088661 0.673888 0.081912
H106  H     H_    0.941283 0.911577 0.672679 0.085068
H107  H     H_    0.441285 0.588422 0.672676 0.085065
H108  H     H_    0.442710 0.411337 0.673890 0.081944
H109  H     H_    0.016236 0.837070 0.822056 0.087735
H110  H     H_    0.016106 0.162953 0.822053 0.088333
H111  H     H_    0.516114 0.337048 0.822054 0.088307
H112  H     H_    0.516237 0.662930 0.822056 0.087737
H113  H     H_    0.190867 0.165898 0.174706 0.087215
H114  H     H_    0.190969 0.834135 0.174733 0.085756
H115  H     H_    0.690970 0.665865 0.174733 0.085755
H116  H     H_    0.690862 0.334102 0.174707 0.087211
H117  H     H_    0.952382 0.090245 0.393115 0.104850
H118  H     H_    0.938830 0.910346 0.377244 0.115511
H119  H     H_    0.438753 0.589643 0.377163 0.115491
H120  H     H_    0.452484 0.409750 0.393224 0.104846
N1    N     N_R   0.950530 0.896220 0.057200 -0.034957
N2    N     N_R   0.950530 0.103780 0.057200 -0.034679
N3    N     N_R   0.450530 0.396220 0.057200 -0.034677
N4    N     N_R   0.450530 0.603780 0.057200 -0.034957
N5    N     N_R   0.893330 0.103780 0.942800 -0.035561
N6    N     N_R   0.893330 0.896220 0.942800 -0.035721
N7    N     N_R   0.393330 0.603780 0.942800 -0.035721
N8    N     N_R   0.393330 0.396220 0.942800 -0.035561
N9    N     N_R   0.818150 0.971400 0.792440 -0.034886
N10   N     N_R   0.818150 0.028600 0.792440 -0.032533
N11   N     N_R   0.318150 0.471400 0.792440 -0.032530
N12   N     N_R   0.318150 0.528600 0.792440 -0.034887
N13   N     N_R   0.025710 0.028600 0.207560 -0.036228
N14   N     N_R   0.025710 0.971400 0.207560 -0.037303
N15   N     N_R   0.525710 0.528600 0.207560 -0.037301
N16   N     N_R   0.525710 0.471400 0.207560 -0.036226
N17   N     N_R   0.181850 0.971400 0.207560 -0.039184
N18   N     N_R   0.181850 0.028600 0.207560 -0.038931
N19   N     N_R   0.681850 0.471400 0.207560 -0.038930
N20   N     N_R   0.681850 0.528600 0.207560 -0.039183
N21   N     N_R   0.974290 0.028600 0.792440 -0.031970
N22   N     N_R   0.974290 0.971400 0.792440 -0.040976
N23   N     N_R   0.474290 0.528600 0.792440 -0.040980
N24   N     N_R   0.474290 0.471400 0.792440 -0.031957
N25   N     N_R   0.049470 0.896220 0.942800 -0.040081
N26   N     N_R   0.049470 0.103780 0.942800 -0.038525
N27   N     N_R   0.549470 0.396220 0.942800 -0.038517
N28   N     N_R   0.549470 0.603780 0.942800 -0.040084
N29   N     N_R   0.106670 0.103780 0.057200 -0.034981
N30   N     N_R   0.106670 0.896220 0.057200 -0.034769
N31   N     N_R   0.606670 0.603780 0.057200 -0.034769
N32   N     N_R   0.606670 0.396220 0.057200 -0.034983
Ni1   Ni    Ni4+2 0.065600 0.934400 0.131190 0.206102
Ni2   Ni    Ni4+2 0.065600 0.065600 0.131190 0.207390
Ni3   Ni    Ni4+2 0.565600 0.434400 0.131190 0.207391
Ni4   Ni    Ni4+2 0.565600 0.565600 0.131190 0.206102
Ni5   Ni    Ni4+2 0.934400 0.065600 0.868810 0.214055
Ni6   Ni    Ni4+2 0.934400 0.934400 0.868810 0.216059
Ni7   Ni    Ni4+2 0.434400 0.565600 0.868810 0.216056
Ni8   Ni    Ni4+2 0.434400 0.434400 0.868810 0.214052
O1    O     O_3   0.796139 0.053184 0.418567 -0.713048
H121  H     H_    0.787620 0.067235 0.473837 0.299120
O2    O     O_3   0.801789 0.941884 0.431279 -0.730180
H122  H     H_    0.782974 0.903601 0.404378 0.294816
O3    O     O_3   0.301784 0.558112 0.431288 -0.730266
H123  H     H_    0.282951 0.596384 0.404323 0.294841
O4    O     O_3   0.296138 0.446817 0.418522 -0.713056
H124  H     H_    0.287595 0.432874 0.473837 0.299219
O5    O     O_3   0.519003 0.214797 0.881951 -0.769652
H125  H     H_    0.472321 0.202747 0.804987 0.305231
O6    O     O_3   0.518967 0.785124 0.882009 -0.770298
H126  H     H_    0.472270 0.797175 0.805048 0.304806
O7    O     O_3   0.018973 0.714872 0.882020 -0.770297
H127  H     H_    0.972276 0.702816 0.805063 0.304806
O8    O     O_3   0.018988 0.285176 0.881848 -0.769662
H128  H     H_    0.972325 0.297212 0.804870 0.305227

loop_
_geom_bond_atom_site_label_1
_geom_bond_atom_site_label_2
_ccdc_geom_bond_type
C76   H76   S    
C44   H24   S    
C5    H109  S    
C8    N28   A    
C96   H100  S    
C55   C59   S    
C50   C60   S    
C42   H26   S    
N12   Ni7   S    
N3    N8    A    
C15   C109  A    
C7    N27   A    
N13   Ni2   S    
C35   N5    A    
C60   C99   S    
C75   H71   S    
C85   H89   S    
C76   C84   S    
N30   Ni1   S    
C41   H21   S    
C85   C91   S    
C45   O7    S    
N19   N20   A    
C27   O3    S    
N16   Ni3   S    
N23   Ni7   S    
N8    Ni8   S    
C84   H88   S    
C25   H9    S    
C96   N16   A    
N24   Ni8   S    
C48   H32   S    
N17   N18   A    
C8    C20   A    
C82   C89   S    
C49   C65   S    
C108  N20   A    
C34   C40   S    
C46   O8    S    
C64   C68   S    
C83   H79   S    
C6    H110  S    
N2    Ni2   S    
N5    Ni5   S    
C82   H86   S    
C15   C33   S    
C29   H13   S    
C81   H85   S    
C26   O2    S    
C74   H74   S    
C86   C88   S    
C48   C64   S    
C5    C17   A    
C67   H67   S    
C10   C17   A    
N17   Ni1   S    
N11   N12   A    
C93   N13   A    
C47   H31   S    
C73   H69   S    
N9    Ni6   S    
C62   C70   S    
C67   H43   S    
N9    N10   A    
C12   N32   A    
C73   C81   S    
N6    Ni6   S    
N26   Ni5   S    
C77   H81   S    
N11   Ni8   S    
C73   C87   S    
C21   H5    S    
C47   O5    S    
C3    N3    A    
C77   C101  A    
C2    N2    A    
C90   C102  S    
C28   H12   S    
O2    H122  S    
C19   C63   S    
C9    N29   A    
C76   H72   S    
C25   O1    S    
O4    H124  S    
C32   C104  S    
C79   C102  A    
C43   H27   S    
C36   C97   A    
C51   C57   S    
C11   N31   A    
C74   C87   S    
C89   C91   S    
C35   C98   A    
C52   H64   S    
C93   H97   S    
C41   H25   S    
C79   N11   A    
C8    H112  S    
C43   C59   S    
C16   C34   S    
C50   H34   S    
N1    Ni1   S    
C14   C108  A    
C40   H20   S    
C28   C34   S    
C81   C89   S    
C52   H36   S    
C53   H45   S    
C29   H14   S    
C82   H78   S    
C78   C101  A    
C45   H29   S    
C59   C100  S    
C4    N4    A    
C15   C110  A    
C42   C58   S    
C108  H104  S    
C58   C97   S    
C1    H1    S    
C37   H39   S    
N28   N31   A    
C106  H102  S    
C72   H60   S    
C38   H40   S    
C91   H93   S    
C48   O6    S    
C44   C46   S    
C30   H16   S    
C23   C27   S    
C85   C87   S    
C27   C34   S    
C111  N23   A    
N31   Ni4   S    
C6    C18   A    
C63   C67   S    
C11   C20   A    
C24   H8    S    
C105  H101  S    
C22   C31   S    
C62   C66   S    
C30   C40   S    
N25   N30   A    
C30   C32   S    
N10   Ni5   S    
C109  H105  S    
C105  N17   A    
N18   Ni2   S    
C13   C105  A    
N27   N32   A    
N21   Ni5   S    
C41   C57   S    
C66   H42   S    
C27   H11   S    
C49   H61   S    
C13   C106  A    
C69   H57   S    
C39   H17   S    
C54   C72   S    
C24   H120  S    
O5    H125  S    
C38   N8    A    
C29   C39   S    
N22   Ni6   S    
C45   C61   S    
C76   C88   S    
C56   C60   S    
C80   C102  A    
N2    N5    A    
C31   C103  S    
C20   C64   S    
C42   C48   S    
C43   H23   S    
N1    N6    A    
C24   C32   S    
O7    H127  S    
C92   H96   S    
C70   H56   S    
C55   H47   S    
C54   H46   S    
C7    H111  S    
C75   C88   S    
C26   C33   S    
C90   C92   S    
O8    H128  S    
C22   H118  S    
C51   H35   S    
C29   C31   S    
C21   H117  S    
C74   C82   S    
C13   C87   S    
C5    N25   A    
O1    H121  S    
C41   C47   S    
C49   H33   S    
C33   C39   S    
C112  H108  S    
C54   H50   S    
C51   H63   S    
C94   N14   A    
C81   H77   S    
C21   C31   S    
C55   C69   S    
C86   H92   S    
C52   C58   S    
C85   H90   S    
C61   C65   S    
N15   Ni4   S    
C35   H37   S    
C14   C107  A    
C44   C60   S    
C40   H19   S    
C46   C62   S    
C94   C103  A    
C94   H98   S    
C79   H83   S    
C7    C19   A    
C69   H55   S    
C96   C104  A    
C36   H38   S    
C78   H82   S    
O3    H123  S    
C77   N9    A    
C37   N7    A    
C17   C61   S    
C1    C97   A    
N23   N24   A    
C53   C71   S    
N19   Ni3   S    
C75   C83   S    
C91   H94   S    
C95   C104  A    
C16   C112  A    
C28   O4    S    
N4    Ni4   S    
C54   C58   S    
C84   C90   S    
C61   C69   S    
C10   N30   A    
C22   H6    S    
C83   C90   S    
C21   C25   S    
C30   H15   S    
C44   H28   S    
C71   H53   S    
C53   C57   S    
C1    N1    A    
C89   C101  S    
C50   H62   S    
C72   H54   S    
C4    H4    S    
C75   H75   S    
C24   C28   S    
C63   C71   S    
C38   C99   A    
C68   H44   S    
C36   N6    A    
C52   C68   S    
N20   Ni4   S    
C95   N15   A    
C73   H73   S    
N15   N16   A    
C50   C66   S    
C74   H70   S    
C39   H18   S    
N7    Ni7   S    
N21   N22   A    
C26   H10   S    
C56   H52   S    
C56   C70   S    
C49   C59   S    
N4    N7    A    
C107  N19   A    
C6    N26   A    
C80   H84   S    
C95   H99   S    
C23   C32   S    
C106  N18   A    
N28   Ni7   S    
C4    C100  A    
C70   H58   S    
C55   H51   S    
N29   Ni2   S    
C43   C45   S    
C92   H95   S    
C3    H3    S    
C47   C63   S    
C2    H2    S    
N3    Ni3   S    
C53   H49   S    
C51   C67   S    
C65   H65   S    
C110  N22   A    
N32   Ni3   S    
C57   C98   S    
C12   C19   A    
C109  N21   A    
C46   H30   S    
C68   H68   S    
C42   H22   S    
C84   H80   S    
C71   H59   S    
C80   N12   A    
C65   H41   S    
C110  H106  S    
C64   C72   S    
C12   H116  S    
C86   C92   S    
C14   C88   S    
N26   N29   A    
C3    C99   A    
C9    C18   A    
C107  H103  S    
C2    C98   A    
C11   H115  S    
C22   C26   S    
O6    H126  S    
C10   H114  S    
C18   C62   S    
C23   H7    S    
C9    H113  S    
N25   Ni6   S    
C111  H107  S    
N14   Ni1   S    
C112  N24   A    
N13   N14   A    
C83   H87   S    
C86   H91   S    
C78   N10   A    
C37   C100  A    
C23   H119  S    
N27   Ni8   S    
C16   C111  A    
C25   C33   S    
C93   C103  A    
C66   H66   S    
C56   H48   S    
