data_mof_unit_58675.cif
_audit_creation_date              2012-10-26T18:53:18-0400
_audit_creation_method            fapswitch 2.2
_symmetry_space_group_name_H-M    P1
_symmetry_Int_Tables_number       1
_space_group_crystal_system       triclinic
_cell_length_a                    14.730828
_cell_length_b                    14.74347
_cell_length_c                    15.868758
_cell_angle_alpha                 76.217943
_cell_angle_beta                  103.075691
_cell_angle_gamma                 115.315254
_cell_volume                      2995.25497224

loop_
_atom_site_label
_atom_site_type_symbol
_atom_type_description
_atom_site_fract_x
_atom_site_fract_y
_atom_site_fract_z
_atom_type_partial_charge
C1    C     C_R   0.880375 0.312367 0.512099 0.583435
C2    C     C_R   0.188463 0.796049 0.471458 -0.002694
C3    C     C_R   0.780792 0.026483 0.569182 0.267655
C4    C     C_R   0.999796 0.499578 0.659663 0.535815
C5    C     C_R   0.843887 0.129624 0.569274 -0.203241
C6    C     C_R   0.719138 0.175757 0.462780 0.274149
C7    C     C_R   0.643801 0.077668 0.483295 -0.060558
C8    C     C_R   0.678450 0.999688 0.528426 0.031309
C9    C     C_R   0.536833 0.054952 0.462471 0.016955
C10   C     C_R   0.468826 0.950610 0.473936 -0.055419
C11   C     C_R   0.509186 0.875433 0.495377 -0.145437
C12   C     C_3   0.027491 0.407047 0.077135 0.158823
C13   C     C_R   0.611073 0.897393 0.529499 0.289578
C14   C     C_R   0.495038 0.131298 0.437013 0.274889
C15   C     C_R   0.389369 0.101246 0.430017 -0.129077
C16   C     C_R   0.119987 0.687937 0.484963 0.545335
C17   C     C_R   0.323560 0.999785 0.441206 0.012551
C18   C     C_R   0.362309 0.923412 0.464426 0.022864
C19   C     C_R   0.218617 0.974183 0.431568 -0.133954
C20   C     C_R   0.151311 0.872812 0.445278 -0.138519
C21   C     C_R   0.293121 0.822039 0.483030 -0.116467
C22   C     C_R   0.703134 0.646202 0.336575 0.204415
C23   C     C_3   0.000637 0.497073 0.083825 0.036272
C24   C     C_R   0.790850 0.626845 0.368659 0.032486
C25   C     C_R   0.718365 0.515526 0.492880 0.012800
C26   C     C_R   0.627088 0.531511 0.465006 -0.041905
C27   C     C_R   0.620111 0.596317 0.383962 0.081307
C28   C     C_R   0.999965 0.500063 0.340353 0.556457
C29   C     C_R   0.542143 0.483843 0.512985 0.017795
C30   C     C_R   0.452431 0.503626 0.479500 0.005364
C31   C     C_R   0.445848 0.558670 0.394167 -0.180945
C32   C     C_R   0.528603 0.606762 0.348967 -0.100091
C33   C     C_R   0.542685 0.415242 0.591985 -0.130486
C34   C     C_3   0.084155 0.597375 0.044443 0.143396
C35   C     C_R   0.458408 0.366799 0.635803 -0.126592
C36   C     C_R   0.372622 0.389371 0.606106 0.005523
C37   C     C_R   0.370158 0.462560 0.530407 -0.010394
C38   C     C_R   0.289372 0.339641 0.652358 -0.179351
C39   C     C_R   0.204836 0.364011 0.625050 -0.003766
C40   C     C_3   0.029894 0.406901 0.977918 0.507318
C41   C     C_R   0.285172 0.491240 0.510814 0.368523
C42   C     C_3   0.893735 0.480551 0.931364 -0.286721
C43   C     C_3   0.892528 0.477631 0.029841 0.126134
C44   C     C_1   0.999490 0.499459 0.250842 0.002076
C45   C     C_3   0.078138 0.600651 0.944525 0.153794
C46   C     C_3   0.001246 0.495939 0.918147 0.042380
C47   C     C_3   0.113551 0.343818 0.205501 -0.012878
C48   C     C_3   0.209694 0.380163 0.270537 -0.353848
C49   C     C_3   0.588792 0.738171 0.611901 0.014422
C50   C     C_3   0.651755 0.678780 0.664065 -0.357914
C51   C     C_3   0.900378 0.960072 0.585513 0.015853
C52   C     C_3   0.913789 0.859940 0.614686 -0.358616
C53   C     C_3   0.987720 0.231646 0.981775 -0.002378
C54   C     C_3   0.894736 0.132048 0.985252 -0.390922
C55   C     C_3   0.518784 0.294570 0.358706 -0.012181
C56   C     C_1   0.999502 0.498452 0.175562 0.047774
C57   C     C_3   0.603858 0.377121 0.310686 -0.322736
C58   C     C_3   0.862273 0.631126 0.005883 0.046496
C59   C     C_3   0.765529 0.640141 0.953202 -0.404354
C60   C     C_3   0.210332 0.713034 0.865041 -0.016155
C61   C     C_3   0.312024 0.729279 0.843124 -0.350702
C62   C     C_1   0.999709 0.497096 0.825204 -0.019609
C63   C     C_1   0.999319 0.498333 0.749365 -0.034415
C64   C     C_R   0.813238 0.204430 0.515867 -0.006576
Cu1   Cu    Cu3+1 0.081750 0.475690 0.522550 0.983282
Cu2   Cu    Cu3+1 0.918250 0.524310 0.477450 0.952924
H1    H     H_    0.965272 0.334173 0.100390 0.065941
H2    H     H_    0.461193 0.312230 0.694720 0.112177
H3    H     H_    0.854763 0.662005 0.332468 0.123667
H4    H     H_    0.729217 0.465040 0.551757 0.139834
H5    H     H_    0.870355 0.539560 0.886829 0.104620
H6    H     H_    0.376048 0.563371 0.358946 0.157606
H7    H     H_    0.606390 0.395089 0.620938 0.104726
H8    H     H_    0.289564 0.281955 0.709302 0.101010
H9    H     H_    0.836608 0.407537 0.910923 0.148346
H10   H     H_    0.845133 0.396766 0.053130 0.130950
H11   H     H_    0.047795 0.658945 0.907733 0.086171
H12   H     H_    0.318858 0.761524 0.508996 0.128740
H13   H     H_    0.159574 0.598049 0.078277 0.214124
H14   H     H_    0.126105 0.412842 0.906658 0.326252
H15   H     H_    0.103063 0.269985 0.190205 0.125033
H16   H     H_    0.048844 0.332053 0.237868 0.111431
H17   H     H_    0.204242 0.322461 0.330805 0.093141
H18   H     H_    0.276713 0.392791 0.241286 0.161318
H19   H     H_    0.219323 0.452395 0.288457 0.177727
H20   H     H_    0.139732 0.742709 0.044980 0.316751
H21   H     H_    0.522095 0.685676 0.573769 0.120754
H22   H     H_    0.562754 0.763652 0.659387 0.122243
H23   H     H_    0.070670 0.854728 0.436273 0.124903
H24   H     H_    0.717747 0.727634 0.705472 0.167119
H25   H     H_    0.604656 0.611524 0.707054 0.095528
H26   H     H_    0.679390 0.652298 0.618905 0.157301
H27   H     H_    0.969840 0.020679 0.612885 0.112926
H28   H     H_    0.892261 0.976510 0.512414 0.131971
H29   H     H_    0.847761 0.798571 0.584819 0.180828
H30   H     H_    0.983578 0.866943 0.593260 0.088933
H31   H     H_    0.920526 0.839649 0.687217 0.142426
H32   H     H_    0.657319 0.194225 0.342161 0.326091
H33   H     H_    0.032765 0.234672 0.048167 0.152762
H34   H     H_    0.357769 0.158230 0.417392 0.093575
H35   H     H_    0.034063 0.232101 0.935163 0.148937
H36   H     H_    0.849158 0.125198 0.919194 0.167871
H37   H     H_    0.918581 0.067168 0.007439 0.100217
H38   H     H_    0.847269 0.129265 0.031901 0.151851
H39   H     H_    0.482606 0.331356 0.386294 0.143135
H40   H     H_    0.462247 0.250508 0.308039 0.106118
H41   H     H_    0.623458 0.345152 0.264066 0.159985
H42   H     H_    0.579067 0.438314 0.272789 0.102262
H43   H     H_    0.672369 0.409692 0.357699 0.227079
H44   H     H_    0.351826 0.630523 0.461343 0.285243
H45   H     H_    0.917958 0.151130 0.608729 0.123719
H46   H     H_    0.760834 0.738683 0.234295 0.314727
H47   H     H_    0.920248 0.660319 0.961825 0.151476
H48   H     H_    0.890965 0.681648 0.056228 0.186301
H49   H     H_    0.707936 0.617496 0.997210 0.173217
H50   H     H_    0.782082 0.719967 0.920643 0.098143
H51   H     H_    0.734382 0.590200 0.902260 0.144493
H52   H     H_    0.220226 0.779328 0.893509 0.117523
H53   H     H_    0.155954 0.707964 0.803098 0.120339
H54   H     H_    0.303753 0.664283 0.813916 0.165800
H55   H     H_    0.339652 0.800241 0.795308 0.091008
H56   H     H_    0.462652 0.798185 0.486670 0.094694
H57   H     H_    0.368508 0.735705 0.903468 0.166575
H58   H     H_    0.188546 0.032735 0.413108 0.100120
H59   H     H_    0.519388 0.650541 0.284697 0.179789
H60   H     H_    0.140076 0.324802 0.660171 0.124890
N1    N     N_R   0.795410 0.560790 0.443550 -0.271744
N2    N     N_R   0.204590 0.439170 0.556520 -0.198261
O1    O     O_R   0.977910 0.338120 0.529720 -0.530427
O2    O     O_3   0.123393 0.416681 0.128018 -0.530263
O3    O     O_3   0.077031 0.683587 0.060541 -0.756078
O4    O     O_3   0.648208 0.821000 0.554448 -0.510525
O5    O     O_3   0.814547 0.952187 0.617377 -0.512604
O6    O     O_3   0.711220 0.236894 0.383234 -0.667549
O7    O     O_3   0.955952 0.313364 0.951843 -0.607069
O8    O     O_3   0.557971 0.234552 0.428762 -0.523391
O9    O     O_3   0.283949 0.575323 0.451346 -0.678383
O10   O     O_3   0.696187 0.710981 0.258775 -0.724531
O11   O     O_3   0.839721 0.530032 0.049541 -0.543051
O12   O     O_R   0.839850 0.379180 0.491640 -0.447331
O13   O     O_3   0.176177 0.622661 0.925885 -0.529069
O14   O     O_R   0.069060 0.479460 0.639610 -0.504840
O15   O     O_R   0.931000 0.520530 0.601530 -0.511276
O16   O     O_R   0.160150 0.620820 0.508360 -0.452434
O17   O     O_R   0.022090 0.661880 0.470280 -0.513147
O18   O     O_R   0.069000 0.479470 0.398470 -0.456246
O19   O     O_R   0.930940 0.520540 0.360390 -0.495830
O20   O     O_3   0.128481 0.421702 0.967279 -0.609632

loop_
_geom_bond_atom_site_label_1
_geom_bond_atom_site_label_2
_ccdc_geom_bond_type
C58   O11   S    
C8    C13   A    
C18   C21   A    
C51   O5    S    
C49   H21   S    
C35   C36   A    
C53   O7    S    
C15   H34   S    
C4    O15   A    
C23   C56   S    
C53   C54   S    
C53   H33   S    
C40   C46   S    
C12   C23   S    
C42   H9    S    
C29   C30   A    
C12   O2    S    
C55   H39   S    
C54   H38   S    
C36   C37   A    
C16   O16   A    
C1    O1    A    
C4    O14   A    
C30   C31   A    
C60   O13   S    
H20   O3    S    
C55   O8    S    
C29   C33   A    
C52   H31   S    
C23   C43   S    
Cu2   N1    S    
C52   H29   S    
C61   H55   S    
C42   C46   S    
C47   H16   S    
C6    C64   A    
C59   H49   S    
Cu2   O17   S    
C17   C19   A    
C50   H24   S    
C55   H40   S    
C57   H43   S    
C19   C20   A    
C53   H35   S    
C59   H50   S    
C21   H12   S    
C58   H47   S    
C43   O11   S    
C2    C16   S    
C9    C10   A    
C41   O9    S    
C59   H51   S    
C39   H60   S    
C61   H54   S    
C45   O13   S    
C49   H22   S    
C12   H1    S    
C24   H3    S    
H44   O9    S    
C40   O7    S    
C19   H58   S    
C40   O20   S    
C47   O2    S    
C2    C20   A    
C51   C52   S    
Cu1   N2    S    
H46   O10   S    
C54   H37   S    
C7    C8    A    
C3    C8    A    
Cu1   O16   S    
Cu2   O15   S    
C5    H45   S    
C25   C26   A    
C45   C46   S    
C28   C44   S    
C48   H18   S    
C30   C37   A    
C60   C61   S    
C3    O5    S    
C32   H59   S    
C12   C40   S    
C9    C14   A    
C62   C63   T    
C34   H13   S    
C24   N1    A    
C44   C56   T    
C47   C48   S    
C4    C63   S    
C23   C34   S    
C2    C21   A    
C17   C18   A    
C26   C27   A    
C16   O17   A    
C34   C45   S    
C60   H52   S    
Cu2   O19   S    
C1    O12   A    
C51   H27   S    
C33   H7    S    
C31   H6    S    
C57   H41   S    
C46   C62   S    
C34   O3    S    
Cu1   Cu2   S    
C22   C27   A    
C55   C57   S    
C22   C24   A    
C58   C59   S    
C11   H56   S    
C42   C43   S    
C1    C64   S    
C49   O4    S    
C38   H8    S    
C50   H26   S    
C43   H10   S    
C15   C17   A    
C22   O10   S    
C28   O19   A    
C39   N2    A    
C27   C32   A    
C14   C15   A    
C54   H36   S    
C31   C32   A    
C3    C5    A    
Cu1   O1    S    
C6    C7    A    
C20   H23   S    
H32   O6    S    
C28   O18   A    
C48   H17   S    
C61   H57   S    
C36   C38   A    
C25   N1    A    
C6    O6    S    
Cu1   O14   S    
C11   C13   A    
C38   C39   A    
C14   O8    S    
C35   H2    S    
C10   C18   A    
C42   H5    S    
C33   C35   A    
C13   O4    S    
C52   H30   S    
C47   H15   S    
C37   C41   A    
C10   C11   A    
C51   H28   S    
C7    C9    A    
C50   H25   S    
H14   O20   S    
C57   H42   S    
Cu2   O12   S    
C5    C64   A    
C26   C29   A    
C41   N2    A    
C49   C50   S    
C58   H48   S    
C48   H19   S    
C60   H53   S    
C45   H11   S    
C25   H4    S    
Cu1   O18   S    
