data_mof_unit_30337.cif
_audit_creation_date              2012-12-10T19:48:44-0500
_audit_creation_method            fapswitch 2.2
_symmetry_space_group_name_H-M    P1
_symmetry_Int_Tables_number       1
_space_group_crystal_system       triclinic
_cell_length_a                    13.136464
_cell_length_b                    14.241033
_cell_length_c                    14.991354
_cell_angle_alpha                 90.399042
_cell_angle_beta                  91.026136
_cell_angle_gamma                 70.342796
_cell_volume                      2640.66744031

loop_
_atom_site_label
_atom_site_type_symbol
_atom_type_description
_atom_site_fract_x
_atom_site_fract_y
_atom_site_fract_z
_atom_type_partial_charge
C1    C     C_R   0.499119 0.500751 0.672175 0.999079
C2    C     C_R   0.821324 0.407742 0.494144 -0.339026
C3    C     C_R   0.566628 0.410382 0.904641 0.458694
C4    C     C_R   0.704101 0.444461 0.500909 1.012586
C5    C     C_R   0.556414 0.411783 0.812568 -0.343989
C6    C     C_R   0.502332 0.501220 0.768249 -0.296214
C7    C     C_R   0.455847 0.590567 0.815867 0.366870
C8    C     C_R   0.459310 0.587489 0.908562 0.564536
C9    C     C_R   0.515596 0.498126 0.952379 -0.190253
C10   C     C_R   0.559056 0.558743 0.097242 0.705748
C11   C     C_R   0.553495 0.560044 0.189239 -0.260615
C12   C     C_R   0.980966 0.457079 0.494214 -0.020262
C13   C     C_R   0.507270 0.497479 0.232095 -0.115361
C14   C     C_R   0.467766 0.432913 0.183061 -0.189967
C15   C     C_R   0.471550 0.432780 0.091170 -0.169148
C16   C     C_R   0.501237 0.499402 0.327846 0.904939
C17   C     C_R   0.516709 0.495887 0.048441 0.079257
C18   C     C_R   0.587466 0.867415 0.538657 0.315177
C19   C     C_R   0.581713 0.770362 0.541748 0.477131
C20   C     C_R   0.417172 0.821039 0.460078 0.522082
C21   C     C_R   0.413363 0.921377 0.462401 0.328893
C22   C     C_R   0.501032 0.945930 0.500419 -0.165694
C23   C     C_R   0.882218 0.462423 0.533224 -0.143910
C24   C     C_R   0.481873 0.108996 0.421337 0.318215
C25   C     C_R   0.473150 0.211032 0.424254 0.398379
C26   C     C_R   0.526830 0.196195 0.576000 0.533793
C27   C     C_R   0.522486 0.098553 0.579266 0.333914
C28   C     C_R   0.296026 0.555304 0.500510 0.879549
C29   C     C_R   0.502158 0.052094 0.500415 -0.141534
C30   C     C_R   0.037672 0.663886 0.619699 0.528725
C31   C     C_R   0.180794 0.588904 0.515648 -0.108259
C32   C     C_R   0.868808 0.331388 0.432639 0.522642
C33   C     C_R   0.972543 0.316344 0.403392 0.597657
C34   C     C_R   0.030446 0.527555 0.520796 0.077819
C35   C     C_R   0.026462 0.380670 0.430751 -0.383992
C36   C     C_3   0.457245 0.743613 0.774411 -0.129553
C37   C     C_3   0.762543 0.854497 0.518497 -0.138767
C38   C     C_3   0.250200 0.037910 0.490001 -0.178887
C39   C     C_3   0.560966 0.037146 0.293451 -0.163085
C40   C     C_3   0.322998 0.296547 0.345705 -0.217357
C41   C     C_3   0.445129 0.061025 0.701857 -0.203527
C42   C     C_3   0.050240 0.700573 0.766397 -0.259440
C43   C     C_3   0.810077 0.441794 0.727636 -0.379905
C44   C     C_3   0.732486 0.306618 0.947002 -0.228088
C45   C     C_R   0.986331 0.595921 0.591192 -0.092840
C46   C     C_R   0.895683 0.591347 0.635483 -0.221180
C47   C     C_R   0.846389 0.522726 0.609707 0.638998
C48   C     C_R   0.124260 0.530540 0.480561 -0.221560
C49   C     C_R   0.135362 0.659817 0.581291 -0.262320
F1    F     F_    0.404546 0.670335 0.955851 -0.621372
F2    F     F_    0.605393 0.618316 0.055805 -0.649385
F3    F     F_    0.658196 0.699300 0.588162 -0.616676
F4    F     F_    0.335816 0.797818 0.419285 -0.591620
F5    F     F_    0.557112 0.234079 0.650796 -0.622383
F6    F     F_    0.812153 0.276244 0.395966 -0.614327
F7    F     F_    0.018294 0.243594 0.343040 -0.622321
H1    H     H_    0.179248 0.706542 0.607343 0.185909
H2    H     H_    0.541376 0.707258 0.750739 0.198201
H3    H     H_    0.458591 0.774629 0.842454 0.207748
H4    H     H_    0.742506 0.896334 0.454553 0.112847
H5    H     H_    0.788472 0.772824 0.505761 0.168757
H6    H     H_    0.832292 0.870401 0.549550 0.213233
H7    H     H_    0.281480 0.083741 0.535998 0.099603
H8    H     H_    0.226967 0.981470 0.528001 0.152375
H9    H     H_    0.175815 0.088796 0.457382 0.226083
H10   H     H_    0.587061 0.101615 0.277020 0.184482
H11   H     H_    0.546836 0.003373 0.229568 0.197738
H12   H     H_    0.594130 0.343549 0.775813 0.263158
H13   H     H_    0.626345 0.979392 0.330516 0.125387
H14   H     H_    0.286088 0.321644 0.411727 0.129928
H15   H     H_    0.290183 0.359725 0.298703 0.156053
H16   H     H_    0.298282 0.233735 0.320467 0.227394
H17   H     H_    0.396345 0.141354 0.709845 0.151898
H18   H     H_    0.462867 0.028005 0.769570 0.198452
H19   H     H_    0.397749 0.021097 0.665159 0.109060
H20   H     H_    0.050869 0.624745 0.784891 0.144551
H21   H     H_    0.008991 0.752363 0.820350 0.216993
H22   H     H_    0.134306 0.701809 0.763155 0.188726
H23   H     H_    0.586025 0.609036 0.226875 0.185456
H24   H     H_    0.746096 0.441197 0.774331 0.200753
H25   H     H_    0.873513 0.459490 0.767782 0.163769
H26   H     H_    0.843571 0.366138 0.697643 0.173649
H27   H     H_    0.751523 0.370371 0.977702 0.160949
H28   H     H_    0.763689 0.293005 0.877900 0.150559
H29   H     H_    0.775492 0.239198 0.986930 0.210330
H30   H     H_    0.432066 0.384320 0.215325 0.210793
H31   H     H_    0.438017 0.384697 0.053252 0.188424
H32   H     H_    0.863880 0.639082 0.692232 0.228329
H33   H     H_    0.160089 0.483572 0.425066 0.138744
H34   H     H_    0.103815 0.367432 0.401504 0.168159
H35   H     H_    0.417411 0.807039 0.728979 0.146544
N1    N     N_R   0.500000 0.747530 0.500020 -0.239748
N2    N     N_R   0.499940 0.252470 0.500020 -0.219255
O1    O     O_R   0.499990 0.420530 0.630930 -0.570376
O2    O     O_3   0.675126 0.885862 0.577536 -0.501403
O3    O     O_3   0.325690 0.993437 0.423373 -0.488063
O4    O     O_3   0.464063 0.067379 0.341519 -0.528897
O5    O     O_3   0.436592 0.269234 0.349684 -0.565847
O6    O     O_3   0.543916 0.048097 0.659613 -0.487537
O7    O     O_3   0.992936 0.733343 0.685595 -0.604352
O8    O     O_3   0.763896 0.514084 0.661379 -0.565797
O9    O     O_3   0.620766 0.322051 0.948431 -0.579377
O10   O     O_R   0.499990 0.579480 0.630940 -0.556672
O11   O     O_R   0.653620 0.381060 0.499970 -0.559466
O12   O     O_R   0.653620 0.540010 0.499980 -0.556875
O13   O     O_R   0.500010 0.420520 0.369060 -0.553835
O14   O     O_R   0.500010 0.579470 0.369070 -0.603606
O15   O     O_R   0.346380 0.459990 0.500020 -0.632201
O16   O     O_R   0.346380 0.618940 0.500030 -0.557964
O17   O     O_3   0.397342 0.677787 0.771936 -0.602429
Zn1   Zn    Zn3+2 0.500000 0.393860 0.499990 1.055830
Zn2   Zn    Zn3+2 0.500000 0.606140 0.500010 1.070966

loop_
_geom_bond_atom_site_label_1
_geom_bond_atom_site_label_2
_ccdc_geom_bond_type
C8    C9    A    
C25   N2    A    
C47   O8    S    
C40   H15   S    
C27   C29   A    
O14   Zn2   S    
C30   C45   A    
C44   H27   S    
C37   H6    S    
C7    C8    A    
C45   C46   A    
C20   N1    A    
C12   C23   A    
C27   O6    S    
C26   C27   A    
C40   H14   S    
C22   C29   S    
C28   O15   A    
C36   H2    S    
C40   O5    S    
C5    C6    A    
C39   O4    S    
C10   C17   A    
C30   O7    S    
O1    Zn1   S    
C49   H1    S    
C37   O2    S    
C2    C32   A    
C18   C19   A    
C24   C29   A    
C19   N1    A    
C16   O14   A    
C41   H18   S    
C19   F3    S    
C1    O1    A    
C41   O6    S    
C1    O10   A    
C32   F6    S    
C46   H32   S    
C16   O13   A    
C36   H3    S    
C26   N2    A    
C13   C14   A    
C18   O2    S    
C31   C49   A    
C5    H12   S    
C10   F2    S    
C26   F5    S    
C38   H8    S    
O13   Zn1   S    
C23   C47   A    
C24   O4    S    
C24   C25   A    
C14   H30   S    
O16   Zn2   S    
C44   O9    S    
N1    Zn2   S    
C44   H28   S    
C43   H24   S    
C1    C6    S    
O10   Zn2   S    
C2    C4    S    
C43   O8    S    
C3    C9    A    
C42   O7    S    
C41   H19   S    
C38   H9    S    
C39   H13   S    
C34   C45   A    
C12   C35   A    
C11   H23   S    
N2    Zn1   S    
C36   H35   S    
C9    C17   S    
C30   C49   A    
C42   H22   S    
C31   C48   A    
C36   O17   S    
C43   H25   S    
C39   H10   S    
C34   C48   A    
C12   C34   A    
C44   H29   S    
C8    F1    S    
C3    O9    S    
C15   H31   S    
C38   H7    S    
C15   C17   A    
C46   C47   A    
C40   H16   S    
C18   C22   A    
C39   H11   S    
O12   Zn2   S    
C28   C31   S    
C20   F4    S    
C3    C5    A    
O11   Zn1   S    
C37   H5    S    
C7    O17   S    
C6    C7    A    
C21   O3    S    
C28   O16   A    
C4    O12   A    
C42   H20   S    
O15   Zn1   S    
C48   H33   S    
C32   C33   A    
C11   C13   A    
C33   F7    S    
C4    O11   A    
C33   C35   A    
C37   H4    S    
C10   C11   A    
C41   H17   S    
C35   H34   S    
C25   O5    S    
C20   C21   A    
C42   H21   S    
C13   C16   S    
C38   O3    S    
C2    C23   A    
C43   H26   S    
C14   C15   A    
C21   C22   A    
