data_mof_unit_55201.cif
_audit_creation_date              2013-03-05T16:09:07-0500
_audit_creation_method            fapswitch 2.2
_symmetry_space_group_name_H-M    P1
_symmetry_Int_Tables_number       1
_space_group_crystal_system       triclinic
_cell_length_a                    18.210706
_cell_length_b                    7.096004
_cell_length_c                    13.018029
_cell_angle_alpha                 89.931682
_cell_angle_beta                  72.683156
_cell_angle_gamma                 89.9763
_cell_volume                      1605.98081252

loop_
_atom_site_label
_atom_site_type_symbol
_atom_site_description
_atom_site_fract_x
_atom_site_fract_y
_atom_site_fract_z
_atom_type_partial_charge
O1    O     O_R   0.453880 0.506200 0.150010 -0.593447
O2    O     O_R   0.546120 0.006200 0.849990 -0.593964
O3    O     O_R   0.604080 0.177770 0.007280 -0.590972
O4    O     O_R   0.395920 0.677770 0.992720 -0.591813
C1    C     C_R   0.635929 0.344461 0.001974 0.984844
C2    C     C_R   0.364077 0.844509 0.998019 0.984719
O5    O     O_R   0.458010 0.176640 0.159130 -0.596044
O6    O     O_R   0.541990 0.676640 0.840870 -0.595443
O7    O     O_R   0.399010 0.004010 0.002930 -0.588891
O8    O     O_R   0.600990 0.504010 0.997070 -0.589544
C3    C     C_R   0.443182 0.344906 0.201301 0.954779
C4    C     C_R   0.556684 0.845588 0.798685 0.954303
O9    O     O_3   0.480810 0.338440 0.948570 -0.281183
O10   O     O_3   0.519190 0.838440 0.051430 -0.280952
V1    V     V_3+5 0.503560 0.064490 0.009540 1.192150
V2    V     V_3+5 0.496440 0.564490 0.990460 1.191221
C5    C     C_R   0.575072 0.841828 0.504084 -0.200533
C6    C     C_R   0.424101 0.402422 0.494401 -0.200299
H1    H     H_    0.536335 0.834537 0.455120 0.140275
H2    H     H_    0.462467 0.426748 0.542666 0.140137
C7    C     C_R   0.590215 0.855043 0.681540 -0.201650
C8    C     C_R   0.409516 0.353462 0.318406 -0.202587
C9    C     C_R   0.947527 0.845609 0.383166 -0.178802
C10   C     C_R   0.052271 0.360198 0.616518 -0.173275
C11   C     C_R   0.916300 0.815021 0.493121 0.473777
C12   C     C_R   0.083242 0.377593 0.505541 0.472057
C13   C     C_R   0.836459 0.803183 0.536158 -0.273007
C14   C     C_R   0.162999 0.390862 0.461836 -0.271609
C15   C     C_R   0.786231 0.844561 0.474325 0.047167
C16   C     C_R   0.213519 0.365449 0.525130 0.046986
C17   C     C_R   0.818163 0.858750 0.360171 0.042729
C18   C     C_R   0.181695 0.363567 0.639579 0.042389
C19   C     C_R   0.704792 0.859153 0.523282 0.057329
C20   C     C_R   0.295096 0.355841 0.476756 0.057459
C21   C     C_R   0.655496 0.853956 0.456715 0.075570
C22   C     C_R   0.344118 0.380776 0.542596 0.075652
C23   C     C_R   0.686605 0.864878 0.344121 -0.020754
C24   C     C_R   0.313199 0.379449 0.655369 -0.021222
C25   C     C_R   0.766801 0.868812 0.295771 -0.082886
C26   C     C_R   0.233151 0.367550 0.704004 -0.082523
C27   C     C_R   0.669869 0.883486 0.636330 -0.060240
C28   C     C_R   0.330467 0.318271 0.365152 -0.060544
C29   C     C_R   0.542814 0.836457 0.614996 0.030846
C30   C     C_R   0.456228 0.395645 0.383448 0.031860
C31   C     C_R   0.900373 0.859307 0.316197 -0.199905
C32   C     C_R   0.099514 0.361267 0.683687 -0.202627
H3    H     H_    0.009487 0.850699 0.348175 0.161505
H4    H     H_    0.990356 0.354508 0.651854 0.164272
H5    H     H_    0.814455 0.754733 0.618009 0.171781
H6    H     H_    0.184711 0.428580 0.378066 0.171367
C33   C     C_1   0.216353 0.858803 0.000076 -0.215250
C34   C     C_1   0.783648 0.358868 0.999902 -0.215242
C35   C     C_1   0.283668 0.852575 0.998826 -0.223073
C36   C     C_1   0.716337 0.352516 0.001156 -0.223366
O11   O     O_R   0.899030 0.205490 0.002790 -0.592923
O12   O     O_R   0.100970 0.705490 0.997210 -0.590332
O13   O     O_R   0.042000 0.536370 0.840840 -0.574854
O14   O     O_R   0.958000 0.036370 0.159160 -0.583205
C37   C     C_R   0.059528 0.368513 0.798993 0.962750
C38   C     C_R   0.940432 0.868461 0.200976 0.961039
O15   O     O_R   0.895930 0.535070 0.992690 -0.588610
O16   O     O_R   0.104070 0.035070 0.007310 -0.591322
O17   O     O_R   0.953870 0.707520 0.150040 -0.584695
O18   O     O_R   0.046130 0.207520 0.849960 -0.592911
C39   C     C_R   0.864128 0.366819 0.998759 0.976853
C40   C     C_R   0.135869 0.866773 0.001230 0.976061
O19   O     O_3   0.019200 0.374340 0.051340 -0.267169
O20   O     O_3   0.980800 0.874340 0.948660 -0.269846
V3    V     V_3+5 0.996440 0.648350 0.990470 1.239996
V4    V     V_3+5 0.003560 0.148350 0.009530 1.231225
C41   C     C_1   0.459990 0.829502 0.658965 0.019597
N1    N     N_1   0.393677 0.825727 0.694058 -0.087140
C42   C     C_1   0.538599 0.416158 0.338495 0.021947
N2    N     N_1   0.604576 0.431133 0.302530 -0.087215
C43   C     C_1   0.635704 0.880233 0.276767 0.054152
N3    N     N_1   0.595264 0.892951 0.223359 -0.041875
C44   C     C_1   0.364302 0.381232 0.722773 0.055089
N4    N     N_1   0.404897 0.382215 0.776288 -0.041810
C45   C     C_1   0.711080 0.966670 0.704991 0.074544
N5    N     N_1   0.743510 0.033572 0.760042 -0.056138
C46   C     C_1   0.290682 0.216034 0.300963 0.074072
N6    N     N_1   0.259367 0.133956 0.249564 -0.057560
N7    N     N_R   0.965562 0.794427 0.561002 0.235093
O21   O     O_R   0.039301 0.823066 0.522653 -0.416376
O22   O     O_R   0.936765 0.756704 0.662999 -0.414699
N8    N     N_R   0.033733 0.385280 0.437378 0.234910
O23   O     O_R   0.959967 0.358719 0.477310 -0.414664
O24   O     O_R   0.062205 0.411336 0.334125 -0.411414
C47   C     C_1   0.792993 0.874803 0.179091 0.070537
N9    N     N_1   0.811846 0.878489 0.086043 -0.023511
C48   C     C_1   0.207100 0.365355 0.820729 0.070049
N10   N     N_1   0.188328 0.364377 0.913798 -0.023176

loop_
_geom_bond_atom_site_label_1
_geom_bond_atom_site_label_2
_geom_bond_distance
_ccdc_geom_bond_type
C16   C18   1.428907 A    
C31   C38   1.461052 S    
C9    C31   1.397242 A    
C32   C37   1.461341 S    
C13   C15   1.417152 A    
C42   N2    1.157226 T    
O1    C3    1.309464 A    
O2    C4    1.306579 A    
C2    O7    1.309494 A    
C46   N6    1.157808 T    
C44   N4    1.156942 T    
O5    C3    1.308824 A    
C37   O18   1.306482 A    
C38   O17   1.307211 A    
C21   C23   1.407414 A    
C10   C12   1.391068 A    
N8    O24   1.301676 A    
O13   C37   1.309629 A    
O14   C38   1.308969 A    
C15   C19   1.433084 A    
O16   V4    1.991115 S    
C19   C21   1.421767 A    
C7    C29   1.399456 A    
C14   H6    1.076986 S    
C8    C30   1.399915 A    
O17   V3    2.033601 S    
O20   V3    1.743217 S    
C20   C28   1.428445 A    
O18   V4    2.032708 S    
C20   C22   1.420869 A    
O6    C4    1.312117 A    
O5    V1    2.038417 S    
C23   C43   1.457205 S    
O6    V2    2.036873 S    
C28   C46   1.453191 S    
O11   C39   1.317720 A    
C34   C36   1.221876 T    
C9    H3    1.084414 S    
C16   C20   1.432227 A    
C10   H4    1.084308 S    
C1    C36   1.462304 S    
O4    C2    1.310250 A    
C48   N10   1.156815 T    
O16   C40   1.319159 A    
N8    O23   1.301747 A    
O14   V4    2.036861 S    
C4    C7    1.465747 S    
C33   C35   1.221880 T    
C33   C40   1.462339 S    
O4    V2    1.991149 S    
C43   N3    1.156943 T    
C5    C29   1.387880 A    
C6    C30   1.388506 A    
N7    O21   1.301787 A    
C12   N8    1.441994 S    
O1    V2    2.031185 S    
O2    V1    2.032063 S    
C7    C27   1.408179 A    
O20   V4    2.186359 S    
N7    O22   1.301716 A    
O13   V3    2.038403 S    
C2    C35   1.462313 S    
O3    V1    1.991731 S    
O15   V3    1.991701 S    
C29   C41   1.446048 S    
C18   C32   1.434609 A    
O3    C1    1.310262 A    
C27   C45   1.453105 S    
C24   C44   1.456824 S    
C11   C13   1.396410 A    
C3    C8    1.465387 S    
C12   C14   1.396496 A    
O19   V4    1.744627 S    
C19   C27   1.429480 A    
C14   C16   1.417246 A    
O7    V1    1.978591 S    
C10   C32   1.397386 A    
C1    O8    1.309237 A    
C23   C25   1.408022 A    
O8    V2    1.978208 S    
C24   C26   1.408371 A    
C8    C28   1.408316 A    
O12   C40   1.317951 A    
C22   C24   1.407223 A    
C5    H1    1.083687 S    
C17   C25   1.431584 A    
C6    H2    1.083696 S    
C18   C26   1.431850 A    
C26   C48   1.450891 S    
C30   C42   1.446083 S    
O11   V4    1.973415 S    
C45   N5    1.157911 T    
O15   C39   1.319152 A    
C41   N1    1.157271 T    
C9    C11   1.390750 A    
C15   C17   1.428957 A    
O12   V3    1.973782 S    
C17   C31   1.434863 A    
O9    V2    1.745350 S    
C11   N7    1.441710 S    
O10   V1    1.743937 S    
C5    C21   1.412442 A    
O19   V3    2.184372 S    
C47   N9    1.156788 T    
C6    C22   1.412344 A    
C25   C47   1.450885 S    
C34   C39   1.462344 S    
C13   H5    1.076664 S    
