data_mof_unit_9249.cif
_audit_creation_date              2012-12-10T18:33:33-0500
_audit_creation_method            fapswitch 2.2
_symmetry_space_group_name_H-M    P1
_symmetry_Int_Tables_number       1
_space_group_crystal_system       triclinic
_cell_length_a                    8.73034
_cell_length_b                    15.102433
_cell_length_c                    13.869648
_cell_angle_alpha                 90.248085
_cell_angle_beta                  97.940078
_cell_angle_gamma                 90.120047
_cell_volume                      1811.14910012

loop_
_atom_site_label
_atom_site_type_symbol
_atom_type_description
_atom_site_fract_x
_atom_site_fract_y
_atom_site_fract_z
_atom_type_partial_charge
C1    C     C_R   0.500645 0.329926 0.499799 0.796114
C2    C     C_R   0.500859 0.670112 0.500325 0.797297
C3    C     C_R   0.571612 0.568384 0.114459 -0.284694
C4    C     C_R   0.381499 0.458175 0.881588 -0.285249
C5    C     C_R   0.571216 0.566785 0.215862 0.077330
C6    C     C_R   0.384286 0.458382 0.780389 0.080520
C7    C     C_R   0.429044 0.433163 0.202891 0.078712
C8    C     C_R   0.615731 0.541600 0.800843 0.079889
C9    C     C_R   0.428735 0.431527 0.101404 -0.284658
C10   C     C_R   0.618620 0.541814 0.902546 -0.284976
C11   C     C_R   0.500148 0.499964 0.054685 0.132587
C12   C     C_R   0.500098 0.499982 0.945314 0.132495
C13   C     C_R   0.203690 0.499959 0.475109 0.885147
C14   C     C_R   0.796313 0.500017 0.524900 0.885839
C15   C     C_2   0.037882 0.499978 0.461383 -0.369725
C16   C     C_2   0.962123 0.499963 0.538652 -0.375194
C17   C     C_R   0.433511 0.093999 0.564059 -0.215528
C18   C     C_R   0.439076 0.905872 0.422706 -0.216141
C19   C     C_R   0.429998 0.185804 0.565109 -0.192910
C20   C     C_R   0.435659 0.814058 0.421071 -0.198074
C21   C     C_R   0.504854 0.233515 0.499267 -0.050161
C22   C     C_R   0.505143 0.766605 0.501570 -0.050936
C23   C     C_R   0.583969 0.188997 0.432488 -0.237559
C24   C     C_R   0.578873 0.811496 0.583724 -0.231342
C25   C     C_R   0.592700 0.096414 0.432194 0.173749
C26   C     C_R   0.587225 0.904117 0.585730 0.173844
C27   C     C_R   0.517147 0.048651 0.500060 0.095327
C28   C     C_R   0.517201 0.951563 0.503083 0.096080
Cu1   Cu    Cu3+1 0.500000 0.499990 0.596430 0.935267
Cu2   Cu    Cu3+1 0.500000 0.500010 0.403570 0.933249
H1    H     H_    0.977912 0.500037 0.387264 0.176101
H2    H     H_    0.022080 0.499906 0.612779 0.168728
H3    H     H_    0.370416 0.057970 0.613404 0.133718
H4    H     H_    0.380115 0.941645 0.360944 0.132551
H5    H     H_    0.366236 0.219539 0.615986 0.145362
H6    H     H_    0.376105 0.780129 0.357716 0.149979
H7    H     H_    0.641665 0.226866 0.381792 0.144759
H8    H     H_    0.632546 0.773926 0.645737 0.140500
H9    H     H_    0.626087 0.623833 0.083528 0.126204
H10   H     H_    0.285361 0.426285 0.909026 0.126550
H11   H     H_    0.627866 0.619594 0.260220 0.123503
H12   H     H_    0.292782 0.425275 0.733080 0.115996
H13   H     H_    0.372587 0.380310 0.236957 0.121882
H14   H     H_    0.707171 0.574685 0.769672 0.116999
H15   H     H_    0.374367 0.376041 0.060488 0.126166
H16   H     H_    0.714785 0.573715 0.946965 0.126632
N1    N     N_R   0.500000 0.500020 0.258690 -0.172769
N2    N     N_R   0.500000 0.499980 0.741310 -0.170659
O1    O     O_R   0.500010 0.371450 0.581430 -0.582819
O2    O     O_R   0.499990 0.628550 0.418570 -0.595548
O3    O     O_R   0.500010 0.371460 0.418560 -0.596962
O4    O     O_R   0.499990 0.628540 0.581440 -0.585101
O5    O     O_R   0.274840 0.499990 0.562640 -0.587095
O6    O     O_R   0.725160 0.500010 0.437360 -0.577784
O7    O     O_R   0.274840 0.500000 0.399770 -0.587135
O8    O     O_R   0.725160 0.500000 0.600230 -0.598234
C29   C     C_3   0.681430 0.052014 0.358484 -0.419616
C30   C     C_3   0.832378 0.010638 0.405956 -0.826967
H17   H     H_    0.903381 0.060362 0.451551 0.250474
H18   H     H_    0.809261 0.952990 0.450981 0.265117
H19   H     H_    0.899432 0.986893 0.348527 0.237729
H20   H     H_    0.609220 0.001227 0.315840 0.199599
H21   H     H_    0.711083 0.101104 0.304419 0.195738
C31   C     C_3   0.669440 0.948902 0.676846 -0.416005
C32   C     C_3   0.822420 0.991221 0.660271 -0.833093
H22   H     H_    0.896699 0.941960 0.629379 0.249733
H23   H     H_    0.802406 0.048785 0.610926 0.266263
H24   H     H_    0.884431 0.015293 0.730837 0.237698
H25   H     H_    0.594181 0.999203 0.704612 0.201069
H26   H     H_    0.695255 0.899905 0.736464 0.194437

loop_
_geom_bond_atom_site_label_1
_geom_bond_atom_site_label_2
_ccdc_geom_bond_type
C2    C22   S    
C14   O8    A    
Cu2   O3    S    
C8    N2    A    
C1    C21   S    
Cu1   Cu2   S    
C2    O4    A    
Cu1   O8    S    
C7    H13   S    
C24   H8    S    
C4    C12   A    
C1    O3    A    
Cu2   O7    S    
Cu2   N1    S    
C13   O5    A    
C3    C11   A    
C11   C12   S    
C32   H24   S    
C4    H10   S    
C31   C32   S    
Cu2   O6    S    
C30   H19   S    
C13   C15   S    
Cu2   O2    S    
C3    C5    A    
C3    H9    S    
C29   H20   S    
C17   H3    S    
C19   H5    S    
C31   H25   S    
C15   H1    S    
C18   H4    S    
C29   C30   S    
C5    H11   S    
C6    N2    A    
C14   C16   S    
C9    H15   S    
C10   C12   A    
C22   C24   A    
C4    C6    A    
C26   C28   A    
C19   C21   A    
C24   C26   A    
C29   H21   S    
C18   C20   A    
C9    C11   A    
C21   C23   A    
C25   C27   A    
C31   H26   S    
C5    N1    A    
C16   H2    S    
Cu1   N2    S    
C30   H18   S    
C15   C16   D    
C17   C27   A    
C8    H14   S    
C25   C29   S    
C23   C25   A    
C18   C28   A    
C8    C10   A    
C32   H22   S    
C6    H12   S    
C7    N1    A    
C27   C28   S    
C7    C9    A    
C26   C31   S    
C17   C19   A    
Cu1   O1    S    
C2    O2    A    
C14   O6    A    
C30   H17   S    
C23   H7    S    
C1    O1    A    
C10   H16   S    
C32   H23   S    
Cu1   O5    S    
C20   C22   A    
C13   O7    A    
Cu1   O4    S    
C20   H6    S    
