data_mof_unit_10386.cif
_audit_creation_date              2012-12-11T16:53:36-0500
_audit_creation_method            fapswitch 2.2
_symmetry_space_group_name_H-M    P1
_symmetry_Int_Tables_number       1
_space_group_crystal_system       triclinic
_cell_length_a                    15.015786
_cell_length_b                    14.802283
_cell_length_c                    17.106376
_cell_angle_alpha                 108.351695
_cell_angle_beta                  106.10936
_cell_angle_gamma                 108.20897
_cell_volume                      3116.02974676

loop_
_atom_site_label
_atom_site_type_symbol
_atom_type_description
_atom_site_fract_x
_atom_site_fract_y
_atom_site_fract_z
_atom_type_partial_charge
C1    C     C_R   0.087851 0.282038 0.069113 -0.072580
C2    C     C_R   0.025011 0.580816 0.746036 0.048660
C3    C     C_R   0.755722 0.197653 0.729089 0.059856
C4    C     C_R   0.355287 0.554650 0.046720 -0.024387
C5    C     C_R   0.254072 0.697183 0.261319 -0.218881
C6    C     C_R   0.752570 0.566788 0.974967 -0.139003
C7    C     C_R   0.890905 0.442681 0.188874 -0.111840
C8    C     C_R   0.081715 0.798131 0.999028 -0.074408
C9    C     C_R   0.913118 0.715645 0.925890 -0.140643
C10   C     C_R   0.062658 0.531100 0.264634 -0.040978
C11   C     C_R   0.259119 0.796380 0.186365 0.355724
C12   C     C_R   0.935392 0.520473 0.748333 -0.125320
C13   C     C_R   0.736234 0.464099 0.046367 -0.135074
C14   C     C_R   0.298130 0.797484 0.269596 -0.042719
C15   C     C_R   0.713162 0.542835 0.033119 0.075599
C16   C     C_R   0.970665 0.506676 0.274594 0.062611
C17   C     C_R   0.997286 0.808811 0.952138 0.031256
C18   C     C_R   0.496757 0.609712 0.004123 0.256490
C19   C     C_R   0.462025 0.582114 0.064644 0.061828
C20   C     C_R   0.527761 0.570831 0.133491 -0.188095
C21   C     C_R   0.619771 0.569958 0.130901 -0.202469
C22   C     C_R   0.644215 0.580732 0.059691 0.032167
C23   C     C_R   0.772900 0.201520 0.813920 -0.133869
C24   C     C_R   0.587261 0.610834 0.002453 0.129810
C25   C     C_3   0.542958 0.564303 0.900822 -0.542325
C26   C     C_3   0.442953 0.562364 0.902827 -0.475444
C27   C     C_R   0.960187 0.545203 0.359813 0.131933
C28   C     C_R   0.031235 0.620277 0.678394 0.126694
C29   C     C_R   0.132723 0.683639 0.602731 -0.206894
C30   C     C_R   0.127335 0.675384 0.680063 -0.164578
C31   C     C_R   0.940419 0.588583 0.603881 -0.267957
C32   C     C_R   0.945371 0.589573 0.524561 0.183603
C33   C     C_R   0.042527 0.633083 0.523011 0.182575
C34   C     C_R   0.298859 0.594025 0.001580 0.303100
C35   C     C_R   0.048778 0.614185 0.440598 -0.255463
C36   C     C_R   0.862771 0.511731 0.361948 -0.160758
C37   C     C_R   0.855361 0.535469 0.444386 -0.214935
C38   C     C_R   0.680682 0.108522 0.646136 0.127522
C39   C     C_R   0.380749 0.884331 0.349366 0.181652
C40   C     C_R   0.447307 0.059726 0.465359 -0.228155
C41   C     C_R   0.373569 0.979552 0.382398 -0.125151
C42   C     C_R   0.461735 0.868294 0.396462 -0.263716
C43   C     C_R   0.535575 0.947699 0.479800 0.175285
C44   C     C_R   0.527148 0.043421 0.514332 0.186672
C45   C     C_R   0.784446 0.299491 0.737384 -0.133907
C46   C     C_R   0.598537 0.121819 0.597734 -0.275824
C47   C     C_R   0.689698 0.014139 0.614170 -0.177331
C48   C     C_R   0.616396 0.932859 0.530075 -0.207170
C49   C     C_R   0.085386 0.112072 0.135349 0.013784
C50   C     C_R   0.999235 0.101433 0.067301 0.090630
C51   C     C_R   0.907793 0.006577 0.029024 -0.182880
C52   C     C_R   0.900485 0.933736 0.066613 -0.165152
C53   C     C_R   0.984740 0.952811 0.141382 0.079191
C54   C     C_R   0.078724 0.037829 0.169504 0.122606
C55   C     C_3   0.154782 0.118392 0.262749 -0.534921
C56   C     C_R   0.293319 0.492774 0.074405 -0.183059
C57   C     C_3   0.161124 0.201125 0.226789 0.189643
C58   C     C_R   0.106404 0.602941 0.822792 -0.112973
C59   C     C_R   0.916430 0.199067 0.995102 -0.124758
C60   C     C_R   0.002058 0.187240 0.039258 0.065779
H1    H     H_    0.165559 0.305955 0.115486 0.101246
H2    H     H_    0.746883 0.623402 0.949228 0.105666
H3    H     H_    0.811175 0.398877 0.173174 0.091024
H4    H     H_    0.158913 0.848089 0.012823 0.175213
H5    H     H_    0.836273 0.691357 0.877592 0.095539
H6    H     H_    0.139639 0.571844 0.317126 0.096782
H7    H     H_    0.706078 0.419489 0.079557 0.096688
H8    H     H_    0.504162 0.553173 0.183351 0.131519
H9    H     H_    0.665464 0.550321 0.178141 0.131918
H10   H     H_    0.579256 0.620945 0.876375 0.198153
H11   H     H_    0.857254 0.501332 0.706848 0.087039
H12   H     H_    0.537596 0.483667 0.868250 0.210273
H13   H     H_    0.421785 0.616640 0.877703 0.233346
H14   H     H_    0.380159 0.480871 0.872634 0.191974
H15   H     H_    0.124063 0.646068 0.440555 0.117558
H16   H     H_    0.792415 0.463225 0.300697 0.115566
H17   H     H_    0.207711 0.719469 0.602785 0.133515
H18   H     H_    0.780119 0.503536 0.444944 0.130615
H19   H     H_    0.198831 0.704940 0.737903 0.133360
H20   H     H_    0.865387 0.550712 0.602523 0.116713
H21   H     H_    0.590751 0.194453 0.624976 0.127229
H22   H     H_    0.752719 0.135493 0.830611 0.101304
H23   H     H_    0.753577 0.004583 0.653110 0.126798
H24   H     H_    0.441060 0.133258 0.491834 0.133969
H25   H     H_    0.622970 0.859455 0.504256 0.130576
H26   H     H_    0.309208 0.990105 0.345496 0.136409
H27   H     H_    0.465655 0.793520 0.368961 0.131631
H28   H     H_    0.840062 0.991019 0.973474 0.121163
H29   H     H_    0.827968 0.865016 0.040389 0.128529
H30   H     H_    0.120447 0.123992 0.312914 0.229851
H31   H     H_    0.227283 0.109149 0.282414 0.184715
H32   H     H_    0.238187 0.241399 0.228442 0.093346
H33   H     H_    0.775435 0.323966 0.683586 0.109078
H34   H     H_    0.316992 0.461250 0.121321 0.116821
H35   H     H_    0.184866 0.659451 0.847454 0.153521
H36   H     H_    0.836911 0.148157 0.976167 0.098652
H37   H     H_    0.277848 0.668582 0.310485 0.125690
N1    N     N_R   0.055640 0.348550 0.045600 -0.042750
N2    N     N_R   0.798340 0.505430 0.954400 -0.043953
N3    N     N_R   0.931580 0.439470 0.128350 -0.042025
N4    N     N_R   0.051950 0.704140 0.002340 -0.045043
N5    N     N_R   0.944360 0.651450 0.954400 -0.045596
N6    N     N_R   0.039170 0.492150 0.176290 -0.039315
N7    N     N_R   0.188710 0.696600 0.128350 -0.068622
N8    N     N_R   0.794820 0.447010 0.002340 -0.042562
N9    N     N_R   0.960830 0.507850 0.823710 -0.043507
N10   N     N_R   0.811290 0.303400 0.871650 -0.042331
N11   N     N_R   0.205180 0.552990 0.997660 -0.069349
N12   N     N_R   0.814810 0.361830 0.823710 -0.045372
N13   N     N_R   0.201660 0.494570 0.045600 -0.057281
N14   N     N_R   0.068420 0.560530 0.871650 -0.039362
N15   N     N_R   0.948050 0.295860 0.997660 -0.044451
N16   N     N_R   0.185190 0.638170 0.176290 -0.056964
Ni1   Ni    Ni4+2 0.119330 0.493420 0.109950 0.228950
Ni2   Ni    Ni4+2 0.880670 0.506580 0.890050 0.200488
Ni3   Ni    Ni4+2 0.872590 0.372590 0.000000 0.222955
Ni4   Ni    Ni4+2 0.127410 0.627410 0.000000 0.272288
Br1   Br    Br    0.321673 0.909595 0.159044 -0.560433
Br2   Br    Br    0.106714 0.296215 0.279870 -0.574202
Br3   Br    Br    0.355266 0.727833 0.998478 -0.585605

loop_
_geom_bond_atom_site_label_1
_geom_bond_atom_site_label_2
_ccdc_geom_bond_type
N4    N5    A    
C23   H22   S    
C40   H24   S    
N8    Ni3   S    
C3    C23   A    
C19   C20   A    
N3    Ni3   S    
C58   H35   S    
C2    C12   A    
C31   H20   S    
C39   C41   A    
C53   C54   A    
C56   H34   S    
C41   H26   S    
C35   H15   S    
C18   C24   A    
C36   C37   A    
C57   H32   S    
N16   Ni1   S    
C55   H30   S    
N2    Ni2   S    
C11   C14   A    
C45   N12   A    
N1    Ni1   S    
C49   C54   A    
C29   C33   A    
C26   H13   S    
C49   C57   S    
C18   C19   A    
C55   H31   S    
N5    Ni2   S    
C36   H16   S    
C33   C35   A    
C14   C39   S    
C4    C19   S    
C15   C22   S    
C47   C48   A    
C3    C38   S    
C9    N5    A    
C18   C26   S    
C11   N7    A    
C47   H23   S    
C8    N4    A    
N13   Ni1   S    
C57   Br2   S    
C16   C27   S    
C6    C15   A    
C45   H33   S    
C59   C60   A    
C21   C22   A    
C4    C56   A    
C34   N11   A    
N10   N12   A    
C52   H29   S    
C56   N13   A    
C44   C46   A    
C50   C51   A    
C39   C42   A    
N9    N14   A    
C10   H6    S    
C34   Br3   S    
N2    N8    A    
C4    C34   A    
N1    N15   A    
C7    N3    A    
C51   C52   A    
N6    Ni1   S    
C24   C25   S    
C13   N8    A    
C1    C60   A    
C27   C35   A    
C25   C26   S    
C3    C45   A    
N3    N6    A    
C58   N14   A    
C21   H9    S    
C1    N1    A    
C43   C44   A    
C29   C30   A    
C46   H21   S    
C31   C32   A    
C43   C48   A    
C23   N10   A    
C10   N6    A    
C59   N15   A    
C5    C14   A    
C25   H12   S    
C32   C37   A    
C7    H3    S    
C38   C47   A    
C8    H4    S    
C30   H19   S    
C9    C17   A    
C40   C41   A    
C12   H11   S    
C5    H37   S    
C55   C57   S    
C22   C24   A    
C59   H36   S    
N15   Ni3   S    
C52   C53   A    
N7    Ni4   S    
C13   H7    S    
C54   C55   S    
C7    C16   A    
C5    N16   A    
N11   Ni4   S    
C20   H8    S    
C28   C31   A    
C1    H1    S    
C51   H28   S    
C2    C58   A    
C42   H27   S    
C27   C36   A    
C37   H18   S    
C8    C17   A    
N9    Ni2   S    
N14   Ni4   S    
N4    Ni4   S    
C32   C33   A    
C6    H2    S    
C13   C15   A    
C50   C60   S    
C10   C16   A    
C6    N2    A    
C12   N9    A    
C28   C30   A    
C26   H14   S    
N11   N13   A    
C9    H5    S    
N10   Ni3   S    
C38   C46   A    
N12   Ni2   S    
N7    N16   A    
C40   C44   A    
C29   H17   S    
C20   C21   A    
C49   C50   A    
C42   C43   A    
C48   H25   S    
C2    C28   S    
C25   H10   S    
C11   Br1   S    
