data_mof_unit_33990.cif
_audit_creation_date              2012-12-10T18:18:18-0500
_audit_creation_method            fapswitch 2.2
_symmetry_space_group_name_H-M    P1
_symmetry_Int_Tables_number       1
_space_group_crystal_system       triclinic
_cell_length_a                    14.093047
_cell_length_b                    14.928736
_cell_length_c                    15.017508
_cell_angle_alpha                 88.311265
_cell_angle_beta                  69.086128
_cell_angle_gamma                 88.393655
_cell_volume                      2949.59587313

loop_
_atom_site_label
_atom_site_type_symbol
_atom_type_description
_atom_site_fract_x
_atom_site_fract_y
_atom_site_fract_z
_atom_type_partial_charge
C1    C     C_R   0.499850 0.672969 0.497295 0.872616
C2    C     C_R   0.500102 0.326972 0.502840 0.868289
C3    C     C_R   0.428107 0.659910 0.074222 -0.111352
C4    C     C_R   0.645903 0.574424 0.873960 -0.082275
C5    C     C_R   0.347245 0.659413 0.038996 -0.113774
C6    C     C_R   0.717210 0.550788 0.917824 -0.108373
C7    C     C_R   0.420059 0.185427 0.575741 -0.050096
C8    C     C_R   0.579395 0.814472 0.424407 -0.054261
C9    C     C_R   0.500410 0.231235 0.508095 -0.143949
C10   C     C_R   0.499438 0.768582 0.492353 -0.129155
C11   C     C_R   0.583391 0.186254 0.444991 -0.131880
C12   C     C_R   0.416947 0.813351 0.556326 -0.129797
C13   C     C_R   0.587469 0.093436 0.445679 0.011008
C14   C     C_R   0.412787 0.906151 0.555824 0.012472
C15   C     C_R   0.500223 0.046405 0.503126 -0.026457
C16   C     C_R   0.499786 0.953267 0.497990 -0.024365
C17   C     C_R   0.413210 0.092849 0.565022 0.007700
C18   C     C_R   0.586586 0.906871 0.435704 0.010558
C19   C     C_R   0.676804 0.047211 0.390903 0.226014
C20   C     C_R   0.323613 0.952250 0.611080 0.217062
C21   C     C_R   0.677909 0.953561 0.389806 0.269053
C22   C     C_R   0.322092 0.045927 0.611380 0.271856
C23   C     C_R   0.436973 0.502157 0.677309 0.886086
C24   C     C_R   0.563463 0.502509 0.322462 0.883083
C25   C     C_R   0.182250 0.439640 0.556176 -0.074917
C26   C     C_R   0.818102 0.559495 0.442950 -0.058408
C27   C     C_R   0.220183 0.561509 0.444388 0.347323
C28   C     C_R   0.778456 0.439985 0.558046 0.333780
C29   C     C_R   0.120319 0.562026 0.442076 -0.041926
C30   C     C_R   0.878855 0.438546 0.559245 -0.070187
C31   C     C_R   0.050397 0.500088 0.500017 0.063696
C32   C     C_R   0.949199 0.499769 0.500405 0.062745
C33   C     C_R   0.081362 0.438787 0.557983 -0.000227
C34   C     C_R   0.918517 0.560839 0.442017 0.004624
C35   C     C_R   0.088062 0.622763 0.384026 -0.090912
C36   C     C_R   0.911120 0.378035 0.617470 -0.110393
C37   C     C_R   0.988737 0.621922 0.383972 -0.118299
C38   C     C_R   0.010911 0.378113 0.616535 -0.131251
C39   C     C_R   0.400917 0.527581 0.777761 -0.109801
C40   C     C_R   0.605553 0.517818 0.218396 -0.126183
C41   C     C_R   0.289029 0.621956 0.903499 -0.001643
C42   C     C_R   0.752333 0.528572 0.070330 -0.007901
C43   C     C_R   0.309198 0.574511 0.818868 -0.169835
C44   C     C_R   0.710171 0.509128 0.168497 -0.162230
C45   C     C_R   0.471536 0.525956 0.822527 -0.128378
C46   C     C_R   0.543705 0.552664 0.170954 -0.137661
C47   C     C_R   0.460176 0.581053 0.899226 0.099496
C48   C     C_R   0.583640 0.574876 0.073219 0.120869
C49   C     C_R   0.363386 0.621098 0.948634 0.043815
C50   C     C_R   0.686313 0.551154 0.019306 0.038780
C51   C     C_R   0.542093 0.589586 0.931762 0.038408
C52   C     C_R   0.518552 0.609927 0.027178 0.046668
H1    H     H_    0.206758 0.392514 0.600151 0.149781
H2    H     H_    0.793956 0.605975 0.398152 0.143789
H3    H     H_    0.138766 0.671413 0.337656 0.190539
H4    H     H_    0.860241 0.329791 0.664303 0.216213
H5    H     H_    0.966843 0.669378 0.338435 0.182354
H6    H     H_    0.032899 0.330573 0.661928 0.190080
H7    H     H_    0.463187 0.560646 0.210131 0.184659
H8    H     H_    0.539200 0.484429 0.793372 0.176581
H9    H     H_    0.759836 0.489974 0.207031 0.200871
H10   H     H_    0.256746 0.580188 0.780807 0.195777
H11   H     H_    0.644824 0.225135 0.396402 0.193650
H12   H     H_    0.355865 0.774320 0.605220 0.187342
N1    N     N_R   0.249980 0.499930 0.499960 -0.119295
N2    N     N_R   0.750020 0.500070 0.500040 -0.117475
O1    O     O_R   0.419720 0.632140 0.499980 -0.563157
O2    O     O_R   0.580280 0.367860 0.500020 -0.560963
O3    O     O_R   0.580270 0.632160 0.499970 -0.619109
O4    O     O_R   0.419730 0.367840 0.500030 -0.631208
O5    O     O_R   0.373870 0.499980 0.632250 -0.629575
O6    O     O_R   0.626130 0.500020 0.367750 -0.629478
O7    O     O_R   0.534420 0.500000 0.632240 -0.559401
O8    O     O_R   0.465580 0.500000 0.367760 -0.571193
Zn1   Zn    Zn3+2 0.392800 0.499980 0.500010 0.998886
Zn2   Zn    Zn3+2 0.607200 0.500020 0.499990 1.014950
C53   C     C_2   0.244466 0.686216 0.104424 0.328360
H13   H     H_    0.229719 0.753111 0.133086 0.074224
O9    O     O_2   0.175694 0.632438 0.128219 -0.510421
C54   C     C_2   0.817310 0.513481 0.856724 0.330444
H14   H     H_    0.866273 0.552082 0.796230 0.076465
O10   O     O_2   0.843948 0.437785 0.871801 -0.511514
Br1   Br    Br    0.312811 0.650467 0.371615 -0.525423
Br2   Br    Br    0.681639 0.357063 0.639609 -0.478174
C55   C     C_2   0.198043 0.682250 0.931880 0.541556
H15   H     H_    0.199006 0.746110 0.964014 0.061311
O11   O     O_2   0.121602 0.662225 0.917082 -0.529848
C56   C     C_2   0.864631 0.535619 0.027438 0.554449
H16   H     H_    0.899150 0.580077 0.966674 0.082206
O12   O     O_2   0.919946 0.493600 0.061104 -0.500553
C57   C     C_2   0.423997 0.723073 0.150822 0.453561
H17   H     H_    0.353013 0.753960 0.194828 0.089780
O13   O     O_2   0.501346 0.745102 0.162787 -0.495694
C58   C     C_2   0.682306 0.591973 0.768715 0.414191
H18   H     H_    0.748478 0.557038 0.720981 0.056972
O14   O     O_2   0.639669 0.647985 0.734468 -0.530148
C59   C     C_2   0.357521 0.231953 0.664702 0.490736
H19   H     H_    0.336974 0.302322 0.663399 0.057340
O15   O     O_2   0.333051 0.192660 0.741866 -0.490188
C60   C     C_2   0.641149 0.768283 0.334888 0.519174
H20   H     H_    0.660528 0.697570 0.335441 0.044247
O16   O     O_2   0.666178 0.808288 0.258098 -0.470958
Br3   Br    Br    0.800116 0.110702 0.320803 -0.344236
Br4   Br    Br    0.201069 0.888496 0.683073 -0.374739
Br5   Br    Br    0.808760 0.891704 0.343376 -0.371725
Br6   Br    Br    0.190870 0.107173 0.657418 -0.356126

loop_
_geom_bond_atom_site_label_1
_geom_bond_atom_site_label_2
_ccdc_geom_bond_type
C30   C32   A    
C45   H8    S    
C46   H7    S    
C28   Br2   S    
C34   C37   A    
O6    Zn2   S    
C59   H19   S    
C47   C49   A    
C21   Br5   S    
C53   H13   S    
C40   C46   A    
C36   H4    S    
C19   C21   A    
C25   H1    S    
C2    O2    A    
C55   H15   S    
C12   H12   S    
C27   C29   A    
C15   C16   A    
C18   C21   A    
O3    Zn2   S    
C3    C57   S    
C24   C40   S    
C38   H6    S    
C19   Br3   S    
C26   C34   A    
C7    C17   A    
C31   C33   A    
C39   C45   A    
C53   O9    D    
C41   C43   A    
C5    C49   A    
C42   C44   A    
C23   O7    A    
C26   H2    S    
C41   C49   A    
C59   O15   D    
C45   C47   A    
C46   C48   A    
O8    Zn1   S    
C13   C19   A    
C55   O11   D    
C35   H3    S    
C51   C52   A    
C26   N2    A    
C14   C20   A    
C25   N1    A    
C54   O10   D    
C57   H17   S    
C39   C43   A    
C4    C51   A    
C22   Br6   S    
C8    C18   A    
C32   C34   A    
C28   N2    A    
C27   N1    A    
C23   O5    A    
C57   O13   D    
C6    C54   S    
C31   C32   A    
C40   C44   A    
N2    Zn2   S    
C60   O16   D    
C16   C18   A    
C6    C50   A    
C58   O14   D    
C9    C11   A    
C10   C12   A    
C42   C50   A    
C4    C58   S    
C4    C6    A    
C20   C22   A    
C13   C15   A    
O7    Zn2   S    
C14   C16   A    
O1    Zn1   S    
C5    C53   S    
C36   C38   A    
C24   O6    A    
C15   C17   A    
C7    C59   S    
C35   C37   A    
C1    C10   S    
C33   C38   A    
C56   O12   D    
C54   H14   S    
C3    C5    A    
C47   C51   A    
C3    C52   A    
C20   Br4   S    
C44   H9    S    
O2    Zn2   S    
C41   C55   S    
C29   C35   A    
C11   H11   S    
C17   C22   A    
N1    Zn1   S    
C30   C36   A    
C28   C30   A    
C12   C14   A    
C29   C31   A    
O5    Zn1   S    
C11   C13   A    
C24   O8    A    
C23   C39   S    
C48   C50   A    
C60   H20   S    
C1    O1    A    
C8    C60   S    
C58   H18   S    
C1    O3    A    
C27   Br1   S    
C7    C9    A    
C48   C52   A    
C42   C56   S    
C56   H16   S    
C8    C10   A    
O4    Zn1   S    
C2    O4    A    
C2    C9    S    
C37   H5    S    
C43   H10   S    
C25   C33   A    
