data_mof_unit_65586.cif
_audit_creation_date              2012-12-10T20:06:26-0500
_audit_creation_method            fapswitch 2.2
_symmetry_space_group_name_H-M    P1
_symmetry_Int_Tables_number       1
_space_group_crystal_system       triclinic
_cell_length_a                    19.094605
_cell_length_b                    18.44022
_cell_length_c                    10.723331
_cell_angle_alpha                 89.787902
_cell_angle_beta                  91.018802
_cell_angle_gamma                 89.60588
_cell_volume                      3775.06449672

loop_
_atom_site_label
_atom_site_type_symbol
_atom_type_description
_atom_site_fract_x
_atom_site_fract_y
_atom_site_fract_z
_atom_type_partial_charge
C1    C     C_R   0.365310 0.500278 0.499785 0.894058
C2    C     C_R   0.290384 0.501371 0.518688 -0.070228
C3    C     C_R   0.965265 0.573878 0.586700 -0.168503
C4    C     C_R   0.037889 0.572181 0.586065 -0.165213
C5    C     C_R   0.073528 0.505661 0.596314 0.111165
C6    C     C_R   0.927957 0.509086 0.597461 0.110601
C7    C     C_R   0.036343 0.441529 0.615654 -0.166476
C8    C     C_R   0.963756 0.443207 0.616120 -0.164048
C9    C     C_R   0.545420 0.727147 0.576877 0.268730
C10   C     C_R   0.454376 0.727911 0.423228 0.262945
C11   C     C_R   0.545681 0.803314 0.577475 -0.279203
C12   C     C_R   0.634440 0.499802 0.504325 0.886680
C13   C     C_R   0.454023 0.804078 0.422114 -0.278618
C14   C     C_R   0.499849 0.842404 0.499626 0.005121
C15   C     C_R   0.508180 0.500301 0.260358 0.957791
C16   C     C_R   0.492290 0.500094 0.739861 0.961597
C17   C     C_R   0.542231 0.962793 0.415167 0.439978
C18   C     C_R   0.457067 0.962949 0.583795 0.439745
C19   C     C_R   0.541532 0.038960 0.416757 -0.121269
C20   C     C_R   0.457599 0.039115 0.582166 -0.118859
C21   C     C_R   0.499543 0.077669 0.499484 -0.034329
C22   C     C_R   0.499710 0.923410 0.499518 -0.129501
C23   C     C_R   0.852232 0.508884 0.577426 0.067532
C24   C     C_R   0.530715 0.197355 0.599313 0.075184
C25   C     C_R   0.468583 0.198515 0.400338 0.077157
C26   C     C_R   0.530194 0.273455 0.597013 0.009553
C27   C     C_R   0.469434 0.274606 0.402969 0.019059
C28   C     C_R   0.499611 0.158620 0.499700 0.014841
C29   C     C_R   0.533964 0.635053 0.111917 -0.076765
C30   C     C_R   0.461054 0.633409 0.886103 -0.081859
C31   C     C_R   0.515805 0.700261 0.053166 -0.101060
C32   C     C_R   0.476178 0.699387 0.943257 -0.100909
C33   C     C_R   0.485847 0.567165 0.938779 0.030526
C34   C     C_R   0.148565 0.502453 0.574084 0.068385
C35   C     C_R   0.512536 0.567808 0.060576 0.033318
C36   C     C_R   0.516246 0.501243 0.126461 -0.240838
C37   C     C_R   0.485595 0.500446 0.874023 -0.236446
C38   C     C_R   0.513488 0.434641 0.063396 0.343547
C39   C     C_R   0.493196 0.434038 0.938054 0.352368
C40   C     C_R   0.738536 0.462654 0.630844 0.159016
C41   C     C_R   0.245721 0.450379 0.461960 0.159387
C42   C     C_R   0.810038 0.467239 0.654834 -0.182708
C43   C     C_R   0.174957 0.451328 0.490198 -0.179301
C44   C     C_R   0.822465 0.546993 0.476053 -0.141600
C45   C     C_R   0.193138 0.553249 0.629467 -0.155547
C46   C     C_R   0.751057 0.542840 0.451648 -0.201494
C47   C     C_R   0.263656 0.552793 0.601664 -0.197892
C48   C     C_R   0.709172 0.499910 0.527351 -0.057623
H1    H     H_    0.581674 0.832000 0.638597 0.191211
H2    H     H_    0.458855 0.749785 0.900356 0.150547
H3    H     H_    0.832660 0.438875 0.734677 0.160570
H4    H     H_    0.140172 0.413370 0.444033 0.161471
H5    H     H_    0.854630 0.578702 0.414361 0.145957
H6    H     H_    0.173405 0.592980 0.694449 0.147854
H7    H     H_    0.728467 0.572610 0.373241 0.150491
H8    H     H_    0.297708 0.591799 0.647082 0.157521
H9    H     H_    0.938169 0.625247 0.573909 0.147056
H10   H     H_    0.065953 0.622169 0.570557 0.146475
H11   H     H_    0.063397 0.389917 0.625197 0.150541
H12   H     H_    0.417846 0.833359 0.361074 0.191459
H13   H     H_    0.935648 0.392619 0.624044 0.149455
H14   H     H_    0.551712 0.336376 0.064839 0.361134
H15   H     H_    0.462332 0.333493 0.938305 0.357581
H16   H     H_    0.582047 0.876536 0.336278 0.348500
H17   H     H_    0.417430 0.876838 0.662728 0.347953
H18   H     H_    0.574255 0.068309 0.352562 0.194433
H19   H     H_    0.424843 0.068586 0.646398 0.195062
H20   H     H_    0.554119 0.303109 0.673063 0.205486
H21   H     H_    0.445301 0.305216 0.327308 0.197409
H22   H     H_    0.565551 0.637992 0.196418 0.150971
H23   H     H_    0.429363 0.634912 0.801522 0.144920
H24   H     H_    0.530735 0.751367 0.094898 0.151686
I1    I     I_    0.618896 0.677224 0.700859 -0.313967
I2    I     I_    0.380169 0.679143 0.301301 -0.322005
I3    I     I_    0.581103 0.145034 0.753231 -0.276843
I4    I     I_    0.417738 0.147967 0.246516 -0.271077
I5    I     I_    0.678668 0.403937 0.761737 -0.322323
I6    I     I_    0.279458 0.374310 0.326786 -0.312812
N1    N     N_R   0.500000 0.689440 0.500000 -0.137198
N2    N     N_R   0.500000 0.310560 0.500000 -0.130002
O1    O     O_R   0.398180 0.560840 0.499970 -0.609182
O2    O     O_3   0.479095 0.369579 0.877174 -0.740769
O3    O     O_3   0.585383 0.929861 0.329703 -0.736585
O4    O     O_3   0.413993 0.930177 0.669289 -0.737014
O5    O     O_R   0.601820 0.560840 0.500030 -0.603196
O6    O     O_R   0.398180 0.439210 0.499910 -0.599139
O7    O     O_R   0.601820 0.439210 0.500090 -0.600860
O8    O     O_R   0.500000 0.560830 0.316760 -0.629023
O9    O     O_R   0.500000 0.560830 0.683240 -0.629135
O10   O     O_R   0.500000 0.439200 0.316700 -0.553825
O11   O     O_R   0.500000 0.439200 0.683300 -0.547841
O12   O     O_3   0.532288 0.371291 0.125401 -0.743857
Zn1   Zn    Zn3+2 0.500000 0.581210 0.500000 0.978657
Zn2   Zn    Zn3+2 0.500000 0.418790 0.500000 1.034262

loop_
_geom_bond_atom_site_label_1
_geom_bond_atom_site_label_2
_ccdc_geom_bond_type
C20   H19   S    
C35   C36   A    
C12   C48   S    
C3    C6    A    
C30   H23   S    
C7    C8    A    
C13   H12   S    
C25   C28   A    
C23   C42   A    
C12   O5    A    
C19   C21   A    
C24   C26   A    
N1    Zn1   S    
C38   C39   A    
C11   C14   A    
C43   H4    S    
C2    C41   A    
C1    O1    A    
O7    Zn2   S    
C38   O12   S    
C19   H18   S    
C1    C2    S    
C9    N1    A    
O6    Zn2   S    
C17   C19   A    
O5    Zn1   S    
C44   H5    S    
H14   O12   S    
C46   H7    S    
C18   O4    S    
C27   H21   S    
C42   H3    S    
C40   C42   A    
C16   O9    A    
C13   C14   A    
C41   C43   A    
C9    I1    S    
C7    H11   S    
C44   C46   A    
O10   Zn2   S    
C45   C47   A    
C46   C48   A    
H15   O2    S    
C39   O2    S    
C27   N2    A    
C41   I6    S    
C5    C7    A    
H17   O4    S    
C6    C8    A    
C26   N2    A    
C23   C44   A    
C17   O3    S    
H16   O3    S    
C11   H1    S    
O1    Zn1   S    
C31   C32   A    
C29   C31   A    
C5    C34   S    
C34   C45   A    
C9    C11   A    
C32   H2    S    
C3    H9    S    
C31   H24   S    
C21   C28   S    
C45   H6    S    
N2    Zn2   S    
C3    C4    A    
C15   C36   S    
C29   H22   S    
C1    O6    A    
C40   C48   A    
O8    Zn1   S    
C30   C33   A    
C18   C22   A    
C34   C43   A    
C24   C28   A    
C16   C37   S    
C4    C5    A    
C10   C13   A    
C10   N1    A    
C24   I3    S    
C2    C47   A    
C25   C27   A    
C29   C35   A    
C17   C22   A    
C25   I4    S    
C26   H20   S    
C14   C22   S    
C36   C38   A    
C12   O7    A    
C15   O10   A    
C30   C32   A    
C10   I2    S    
C6    C23   S    
C33   C35   A    
C18   C20   A    
O9    Zn1   S    
C8    H13   S    
C33   C37   A    
C20   C21   A    
C16   O11   A    
C37   C39   A    
C4    H10   S    
C40   I5    S    
C47   H8    S    
C15   O8    A    
O11   Zn2   S    
