data_mof_unit_13909.cif
_audit_creation_date              2013-03-05T15:57:46-0500
_audit_creation_method            fapswitch 2.2
_symmetry_space_group_name_H-M    P1
_symmetry_Int_Tables_number       1
_space_group_crystal_system       triclinic
_cell_length_a                    15.525353
_cell_length_b                    14.88128
_cell_length_c                    15.096144
_cell_angle_alpha                 109.483306
_cell_angle_beta                  121.499578
_cell_angle_gamma                 59.316286
_cell_volume                      2546.81456105

loop_
_atom_site_label
_atom_site_type_symbol
_atom_site_description
_atom_site_fract_x
_atom_site_fract_y
_atom_site_fract_z
_atom_type_partial_charge
C1    C     C_R   0.802718 0.937868 0.773249 -0.119306
C2    C     C_R   0.242484 0.008336 0.209224 -0.098079
H1    H     H_    0.829872 0.880644 0.821702 0.080378
H2    H     H_    0.228689 0.042385 0.147627 0.087558
N1    N     N_R   0.705410 0.966550 0.689210 -0.041341
N2    N     N_R   0.294590 0.033450 0.310790 -0.050070
C3    C     C_R   0.198308 0.273559 0.439192 -0.131275
C4    C     C_R   0.756423 0.709588 0.509598 -0.123093
H3    H     H_    0.169814 0.323818 0.383066 0.081832
H4    H     H_    0.769407 0.647556 0.543156 0.092032
N3    N     N_R   0.294590 0.188320 0.465660 -0.043637
N4    N     N_R   0.705410 0.811680 0.534340 -0.046759
C5    C     C_R   0.594746 0.229821 0.557449 -0.134836
C6    C     C_R   0.405989 0.780337 0.504586 -0.145309
H5    H     H_    0.681497 0.213315 0.598189 0.120084
H6    H     H_    0.319322 0.803727 0.479073 0.115792
N5    N     N_R   0.556610 0.157790 0.497330 -0.049251
N6    N     N_R   0.443390 0.842210 0.502670 -0.038198
C7    C     C_R   0.409057 0.045773 0.732657 -0.110690
C8    C     C_R   0.592314 0.014450 0.286046 -0.059086
H7    H     H_    0.323934 0.082433 0.721740 0.114608
H8    H     H_    0.678204 0.992887 0.307111 0.087331
N7    N     N_R   0.443390 0.997080 0.657540 -0.049207
N8    N     N_R   0.556610 0.002920 0.342460 -0.040892
C9    C     C_R   0.409574 0.305074 0.485265 -0.105518
C10   C     C_R   0.589968 0.708506 0.584483 -0.131809
H9    H     H_    0.323848 0.360704 0.461351 0.092282
H10   H     H_    0.674651 0.667006 0.638713 0.089932
N9    N     N_R   0.443390 0.203250 0.451380 -0.046665
N10   N     N_R   0.556610 0.796750 0.548620 -0.038137
C11   C     C_R   0.595103 0.976225 0.805146 -0.123453
C12   C     C_R   0.407820 0.085044 0.208869 -0.081718
H11   H     H_    0.681332 0.950901 0.859935 0.121041
H12   H     H_    0.322170 0.129463 0.158629 0.093878
N11   N     N_R   0.556610 0.951620 0.703500 -0.052146
N12   N     N_R   0.443390 0.048380 0.296500 -0.042204
C13   C     C_R   0.198859 0.183745 0.531796 -0.108783
C14   C     C_R   0.757263 0.800778 0.417908 -0.098057
H13   H     H_    0.169237 0.151983 0.559715 0.088905
H14   H     H_    0.770478 0.821799 0.365483 0.137075
N13   N     N_R   0.294590 0.131500 0.522480 -0.040043
N14   N     N_R   0.705410 0.868500 0.477520 -0.053241
C15   C     C_R   0.804522 0.028775 0.684049 -0.139432
C16   C     C_R   0.241070 0.916335 0.299380 -0.139947
H15   H     H_    0.835970 0.054226 0.652124 0.098539
H16   H     H_    0.226326 0.863737 0.319166 0.103830
N15   N     N_R   0.705410 0.023370 0.632390 -0.042722
N16   N     N_R   0.294590 0.976630 0.367610 -0.046189
C17   C     C_R   0.867205 0.975308 0.772165 0.155019
C18   C     C_R   0.210294 0.932718 0.199589 0.150328
C19   C     C_R   0.136613 0.272994 0.479801 0.156150
C20   C     C_R   0.787970 0.700338 0.434853 0.143741
C21   C     C_R   0.503916 0.323793 0.555624 0.072484
C22   C     C_R   0.496441 0.695949 0.558976 0.071155
C23   C     C_R   0.504482 0.032939 0.825918 0.199002
C24   C     C_R   0.500197 0.064679 0.201650 0.108681
H17   H     H_    0.180086 0.931372 0.007948 0.137769
H18   H     H_    0.007684 0.836314 0.915555 0.127899
Ni1   Ni    Ni4+2 0.629830 0.882720 0.617850 0.219669
Ni2   Ni    Ni4+2 0.370170 0.117280 0.382150 0.217249
Ni3   Ni    Ni4+2 0.629830 0.013030 0.487540 0.217115
Ni4   Ni    Ni4+2 0.370170 0.986970 0.512460 0.225374
H19   H     H_    0.103702 0.848388 0.103695 0.133381
H20   H     H_    0.019727 0.999314 0.844595 0.134179
H21   H     H_    0.768836 0.547004 0.866085 0.138824
H22   H     H_    0.333420 0.513881 0.299720 0.122506
C25   C     C_R   0.613022 0.676853 0.854490 -0.071974
C26   C     C_R   0.468316 0.384608 0.268552 -0.088233
H23   H     H_    0.566310 0.629452 0.815624 0.138993
H24   H     H_    0.530847 0.410302 0.332311 0.124189
C27   C     C_R   0.559274 0.784067 0.877933 -0.161060
C28   C     C_R   0.499216 0.292693 0.205319 -0.199193
H25   H     H_    0.471833 0.818292 0.858896 0.124503
H26   H     H_    0.586224 0.247437 0.221586 0.128167
C29   C     C_R   0.619413 0.845789 0.934226 0.154584
C30   C     C_R   0.419112 0.257748 0.123032 0.195857
C31   C     C_R   0.736368 0.797870 0.968004 0.359389
C32   C     C_R   0.305930 0.316871 0.104565 0.354331
C33   C     C_R   0.788382 0.690621 0.939780 -0.157103
C34   C     C_R   0.276301 0.409543 0.168585 -0.176304
H27   H     H_    0.877402 0.652758 0.964443 0.128058
H28   H     H_    0.190297 0.455675 0.155646 0.126661
C35   C     C_R   0.727149 0.630365 0.884070 -0.154450
C36   C     C_R   0.357077 0.442880 0.250294 -0.136881
C37   C     C_R   0.551570 0.961849 0.063614 0.343010
C38   C     C_R   0.462429 0.145972 0.971792 0.322605
C39   C     C_R   0.502068 0.061535 0.107922 -0.159397
C40   C     C_R   0.511878 0.045045 0.927151 -0.169739
C41   C     C_R   0.458573 0.154280 0.064906 -0.175855
C42   C     C_R   0.562159 0.953352 0.975950 -0.177537
H29   H     H_    0.825470 0.505515 0.439801 0.125805
H30   H     H_    0.990604 0.416304 0.340891 0.129260
C43   C     C_2   0.021904 0.345857 0.461335 -0.215188
C44   C     C_2   0.849265 0.602742 0.387529 -0.156359
C45   C     C_2   0.960878 0.416898 0.392165 -0.109694
C46   C     C_2   0.866471 0.510209 0.402316 -0.106070
H31   H     H_    0.891568 0.606446 0.350680 0.138726
H32   H     H_    0.991286 0.347984 0.512739 0.136468
C47   C     C_2   0.984297 0.951943 0.843556 -0.223236
C48   C     C_2   0.148951 0.883890 0.101824 -0.208531
H33   H     H_    0.003172 0.941687 0.497831 0.116999
H34   H     H_    0.001706 0.177409 0.910736 0.110642
C49   C     C_R   0.177620 0.877497 0.604908 0.382467
C50   C     C_R   0.914191 0.265684 0.777864 0.382581
C51   C     C_R   0.280273 0.790334 0.623717 -0.178850
C52   C     C_R   0.810387 0.333508 0.710513 -0.241937
H35   H     H_    0.353589 0.791662 0.693546 0.115685
H36   H     H_    0.804717 0.361655 0.649239 0.129344
C53   C     C_R   0.289316 0.701663 0.551240 0.066421
C54   C     C_R   0.714006 0.363986 0.721034 0.043007
C55   C     C_R   0.193778 0.699683 0.460327 -0.173683
C56   C     C_R   0.722733 0.324746 0.799457 -0.129496
H37   H     H_    0.199001 0.631601 0.403775 0.115242
H38   H     H_    0.649614 0.347430 0.809120 0.146947
C57   C     C_R   0.091192 0.786212 0.441572 -0.170919
C58   C     C_R   0.826297 0.257377 0.866996 -0.150915
H39   H     H_    0.017907 0.784554 0.371187 0.135652
H40   H     H_    0.832585 0.227897 0.927659 0.143499
C59   C     C_R   0.083058 0.874974 0.513402 -0.140486
C60   C     C_R   0.921904 0.228529 0.856919 -0.148748
C61   C     C_R   0.404209 0.515022 0.577505 -0.230959
C62   C     C_R   0.598918 0.530622 0.639193 -0.267079
H41   H     H_    0.328391 0.509403 0.554916 0.134567
H42   H     H_    0.675916 0.535847 0.667041 0.128256
C63   C     C_R   0.505673 0.426486 0.604090 0.058478
C64   C     C_R   0.496134 0.613457 0.591866 0.053629
C65   C     C_R   0.604871 0.439766 0.652879 0.050830
C66   C     C_R   0.398036 0.610003 0.572901 0.034560
C67   C     C_2   0.041528 0.884674 0.915839 -0.099833
C68   C     C_2   0.135796 0.895546 0.010782 -0.080401
C69   C     C_3   0.809020 0.855761 0.038794 -1.054789
H43   H     H_    0.760615 0.940263 0.055114 0.261323
H44   H     H_    0.867080 0.820247 0.114296 0.271653
H45   H     H_    0.858469 0.849261 0.002279 0.231335
C70   C     C_3   0.215097 0.284360 0.018932 -1.004254
H46   H     H_    0.247019 0.209018 0.974686 0.257844
H47   H     H_    0.171285 0.275675 0.052606 0.226147
H48   H     H_    0.154118 0.345867 0.963566 0.278773
N17   N     N_R   0.586926 0.868448 0.105594 0.234744
O1    O     O_R   0.514053 0.847780 0.103805 -0.400279
O2    O     O_R   0.691736 0.804863 0.146497 -0.433864
N18   N     N_R   0.421734 0.238268 0.925182 0.239736
O3    O     O_R   0.325213 0.314848 0.913585 -0.401996
O4    O     O_R   0.480571 0.245378 0.892492 -0.397342
C71   C     C_3   0.168527 0.973282 0.681105 -1.088795
H49   H     H_    0.141234 0.040958 0.642529 0.250305
H50   H     H_    0.106808 0.990182 0.707790 0.265470
H51   H     H_    0.249466 0.962877 0.750520 0.256759
C72   C     C_3   0.015244 0.233915 0.764153 -1.066144
H52   H     H_    0.090302 0.175759 0.818958 0.266701
H53   H     H_    0.001665 0.198459 0.683191 0.253609
H54   H     H_    0.029820 0.304059 0.777827 0.269232

loop_
_geom_bond_atom_site_label_1
_geom_bond_atom_site_label_2
_geom_bond_distance
_ccdc_geom_bond_type
C70   H48   1.109827 S    
C27   C29   1.401077 A    
C25   C35   1.394889 A    
N8    Ni3   1.861368 S    
N5    N9    1.361563 A    
C6    N6    1.329197 A    
C7    N7    1.335814 A    
C45   C46   1.454484 S    
C8    C24   1.366548 A    
C69   H45   1.110620 S    
C56   H38   1.083045 S    
C71   H49   1.109410 S    
C70   H46   1.108183 S    
C3    N3    1.334878 A    
C51   H35   1.078166 S    
C49   C71   1.498474 S    
N8    N12   1.361563 A    
N2    N16   1.390874 A    
C1    N1    1.332030 A    
C12   N12   1.327862 A    
C7    H7    1.080675 S    
C30   C32   1.418944 A    
C14   N14   1.340749 A    
C53   C55   1.405300 A    
C13   C19   1.380862 A    
C48   C68   1.338013 D    
H21   C35   1.082139 S    
C14   C20   1.388212 A    
H18   C67   1.084224 S    
C16   C18   1.389629 A    
C23   C40   1.426595 S    
N11   Ni1   1.864771 S    
C31   C69   1.508134 S    
C62   C65   1.384971 A    
C29   C31   1.420930 A    
N4    N14   1.390875 A    
C2    C18   1.387804 A    
C29   C42   1.486402 S    
N5    Ni3   1.848953 S    
H29   C46   1.085564 S    
N4    Ni1   1.864016 S    
C49   C51   1.402158 A    
H20   C47   1.085882 S    
C8    N8    1.322809 A    
C57   H39   1.082581 S    
C11   H11   1.074368 S    
C20   C44   1.460488 S    
N6    N10   1.361563 A    
C4    N4    1.333221 A    
C15   N15   1.346440 A    
C32   C70   1.505984 S    
C37   N17   1.442290 S    
C28   C30   1.405317 A    
C54   C65   1.484362 S    
C52   H36   1.083765 S    
C37   C39   1.396576 A    
C43   C45   1.336397 D    
C72   H53   1.109390 S    
C2    N2    1.332347 A    
N13   Ni4   1.848889 S    
C10   C22   1.391492 A    
C50   C52   1.400663 A    
C71   H50   1.110647 S    
C16   H16   1.079134 S    
C5    C21   1.384699 A    
C31   C33   1.404079 A    
C9    N9    1.336048 A    
C37   C42   1.374368 A    
C49   C59   1.402636 A    
C47   C67   1.337902 D    
C38   C40   1.409961 A    
C34   C36   1.396637 A    
H33   C59   1.083263 S    
N2    Ni2   1.835815 S    
H17   C68   1.085805 S    
C61   C66   1.390026 A    
C28   H26   1.083430 S    
C72   H54   1.109942 S    
C27   H25   1.081306 S    
N1    Ni1   1.835814 S    
C15   C17   1.382970 A    
C24   C39   1.415067 S    
C44   H31   1.087660 S    
N12   Ni2   1.864771 S    
H30   C45   1.084794 S    
C58   C60   1.397411 A    
C1    H1    1.079252 S    
C26   C36   1.394318 A    
C50   C72   1.498277 S    
C62   C64   1.401762 A    
C2    H2    1.078291 S    
C61   C63   1.397245 A    
H19   C48   1.087608 S    
C17   C47   1.464460 S    
C22   C64   1.472600 S    
C53   C66   1.479030 S    
N16   Ni4   1.860284 S    
N9    Ni2   1.836324 S    
C26   C28   1.396475 A    
N10   Ni1   1.836325 S    
C32   C34   1.405536 A    
C55   H37   1.083239 S    
C44   C46   1.335915 D    
C15   H15   1.081874 S    
N14   Ni3   1.848889 S    
C21   C63   1.465367 S    
C19   C43   1.461860 S    
C34   H28   1.083385 S    
C6    C22   1.380696 A    
C40   C42   1.412957 A    
C10   N10   1.331510 A    
C57   C59   1.397835 A    
C39   C41   1.403925 A    
C6    H6    1.072318 S    
C8    H8    1.081900 S    
C62   H42   1.076892 S    
N3    Ni2   1.864019 S    
C56   C58   1.397665 A    
C71   H51   1.111200 S    
H34   C60   1.082716 S    
C38   N18   1.440565 S    
C33   H27   1.083355 S    
C67   C68   1.455119 S    
C52   C54   1.406297 A    
C7    C23   1.387249 A    
C70   H47   1.110260 S    
C4    C20   1.391821 A    
C64   C66   1.420761 A    
C10   H10   1.078881 S    
N6    Ni4   1.848954 S    
C9    C21   1.394421 A    
C69   H44   1.110388 S    
C38   C41   1.399708 A    
N15   Ni3   1.860284 S    
N17   O1    1.301167 A    
C9    H9    1.076939 S    
C30   C41   1.487897 S    
N7    N11   1.361564 A    
C5    N5    1.326834 A    
C11   C23   1.364805 A    
C5    H5    1.072431 S    
C3    C19   1.385142 A    
C13   H13   1.081582 S    
C72   H52   1.110081 S    
C14   H14   1.080096 S    
N17   O2    1.301077 A    
C51   C53   1.402278 A    
C11   N11   1.317597 A    
N1    N15   1.390873 A    
C58   H40   1.082359 S    
N3    N13   1.390872 A    
C25   C27   1.392945 A    
C13   N13   1.341409 A    
C69   H43   1.108646 S    
C54   C56   1.404889 A    
C18   C48   1.461270 S    
C61   H41   1.082042 S    
H22   C36   1.082783 S    
C33   C35   1.395205 A    
C3    H3    1.079961 S    
C4    H4    1.079220 S    
C63   C65   1.407685 A    
C26   H24   1.082595 S    
N18   O3    1.300380 A    
C55   C57   1.397777 A    
N7    Ni4   1.861368 S    
C25   H23   1.081255 S    
C1    C17   1.380426 A    
C43   H32   1.087615 S    
C12   C24   1.363211 A    
N18   O4    1.301420 A    
C16   N16   1.344058 A    
C12   H12   1.078813 S    
C50   C60   1.402687 A    
