data_mof_unit_19523.cif
_audit_creation_date              2012-12-10T18:52:55-0500
_audit_creation_method            fapswitch 2.2
_symmetry_space_group_name_H-M    P1
_symmetry_Int_Tables_number       1
_space_group_crystal_system       triclinic
_cell_length_a                    9.838387
_cell_length_b                    10.651565
_cell_length_c                    16.730798
_cell_angle_alpha                 90.318924
_cell_angle_beta                  84.913548
_cell_angle_gamma                 89.636778
_cell_volume                      1746.31839788

loop_
_atom_site_label
_atom_site_type_symbol
_atom_type_description
_atom_site_fract_x
_atom_site_fract_y
_atom_site_fract_z
_atom_type_partial_charge
C1    C     C_R   0.499172 0.739773 0.502751 0.921932
C2    C     C_R   0.500850 0.260221 0.497135 0.927746
C3    C     C_R   0.573284 0.939211 0.558189 -0.017767
C4    C     C_R   0.426957 0.060733 0.441466 -0.019559
C5    C     C_R   0.576394 0.068044 0.551464 -0.227542
C6    C     C_R   0.423889 0.931871 0.448183 -0.225112
C7    C     C_R   0.502832 0.127672 0.494865 -0.120773
C8    C     C_R   0.497278 0.872290 0.504877 -0.119041
C9    C     C_R   0.936159 0.421912 0.449865 -0.058514
C10   C     C_R   0.063842 0.578080 0.550145 -0.057674
C11   C     C_R   0.080064 0.421921 0.449893 -0.044731
C12   C     C_R   0.919933 0.578068 0.550119 -0.041936
C13   C     C_R   0.480767 0.498133 0.653328 0.920479
C14   C     C_R   0.519099 0.507109 0.346995 0.932514
C15   C     C_R   0.468216 0.495760 0.740353 -0.044784
C16   C     C_R   0.530820 0.545695 0.263583 -0.055268
C17   C     C_R   0.579325 0.455948 0.780703 -0.227479
C18   C     C_R   0.424033 0.615331 0.234969 -0.247760
C19   C     C_R   0.572604 0.459959 0.864173 -0.001236
C20   C     C_R   0.433176 0.657582 0.155945 -0.018002
C21   C     C_R   0.453418 0.510355 0.906520 0.090197
C22   C     C_R   0.550233 0.624239 0.105021 0.093206
C23   C     C_R   0.339615 0.542208 0.866357 -0.140786
C24   C     C_R   0.661706 0.565129 0.135776 -0.109285
C25   C     C_R   0.346710 0.534694 0.783404 -0.164639
C26   C     C_R   0.652179 0.525971 0.214992 -0.160819
C27   C     C_2   0.448683 0.542228 0.991189 -0.141724
C28   C     C_2   0.544275 0.615658 0.018687 -0.098387
H1    H     H_    0.737244 0.476123 0.237310 0.160485
H2    H     H_    0.259448 0.564387 0.752894 0.160821
H3    H     H_    0.247738 0.579083 0.898998 0.155466
H4    H     H_    0.751620 0.539791 0.096714 0.166863
H5    H     H_    0.888085 0.359513 0.409788 0.139758
H6    H     H_    0.111920 0.640457 0.590237 0.136907
H7    H     H_    0.141077 0.359489 0.409842 0.157688
H8    H     H_    0.858913 0.640473 0.590187 0.157380
N1    N     N_R   0.142790 0.500030 0.500020 -0.089931
N2    N     N_R   0.857210 0.499970 0.499980 -0.089947
O1    O     O_R   0.385380 0.683250 0.500010 -0.625267
O2    O     O_R   0.614620 0.316750 0.499990 -0.622032
O3    O     O_R   0.614710 0.683220 0.500000 -0.605760
O4    O     O_R   0.385290 0.316780 0.500000 -0.605611
O5    O     O_R   0.371780 0.500040 0.615800 -0.629819
O6    O     O_R   0.628220 0.499960 0.384200 -0.627866
O7    O     O_R   0.601110 0.500010 0.615800 -0.601068
O8    O     O_R   0.398890 0.499990 0.384200 -0.600898
Zn1   Zn    Zn3+2 0.346870 0.500020 0.500000 0.982918
Zn2   Zn    Zn3+2 0.653130 0.499980 0.500000 0.985814
H9    H     H_    0.670781 0.420432 0.746925 0.195854
H10   H     H_    0.334013 0.637953 0.274682 0.195974
H11   H     H_    0.629236 0.649673 0.978845 0.149654
H12   H     H_    0.365157 0.505858 0.031199 0.153689
C29   C     C_2   0.319335 0.733206 0.127313 0.902495
O9    O     O_2   0.207625 0.735558 0.165791 -0.620120
O10   O     O_R   0.340215 0.803914 0.057145 -0.787042
H13   H     H_    0.255205 0.851172 0.044188 0.352758
C30   C     C_2   0.689751 0.409165 0.904648 0.884913
O11   O     O_2   0.672127 0.366642 0.972497 -0.617847
O12   O     O_R   0.820273 0.406526 0.863999 -0.809473
H14   H     H_    0.891313 0.369139 0.897425 0.350272
C31   C     C_2   0.644636 0.879619 0.623189 0.900735
O13   O     O_2   0.600725 0.783301 0.655085 -0.643470
O14   O     O_R   0.760256 0.936556 0.649844 -0.799717
H15   H     H_    0.799369 0.887938 0.694534 0.347178
C32   C     C_2   0.355795 0.120278 0.376358 0.901961
O15   O     O_2   0.398964 0.217289 0.345033 -0.640625
O16   O     O_R   0.241291 0.062482 0.348899 -0.792620
H16   H     H_    0.202310 0.111041 0.304141 0.351014
H17   H     H_    0.631240 0.123114 0.592780 0.187161
H18   H     H_    0.369191 0.876727 0.406825 0.188097

loop_
_geom_bond_atom_site_label_1
_geom_bond_atom_site_label_2
_ccdc_geom_bond_type
C1    O3    A    
C9    H5    S    
O10   H13   S    
C24   H4    S    
C15   C17   A    
C11   N1    A    
N1    Zn1   S    
C1    C8    S    
O5    Zn1   S    
C29   O10   S    
N2    Zn2   S    
C2    C7    S    
C14   O8    A    
C3    C5    A    
C31   O14   S    
C21   C27   S    
O12   H14   S    
C10   H6    S    
C16   C18   A    
C22   C28   S    
C29   O9    D    
C19   C30   S    
C13   O7    A    
C9    C11   A    
C30   O11   D    
C31   O13   D    
C10   C12   A    
C2    O4    A    
C10   N1    A    
C25   H2    S    
C20   C29   S    
C22   C24   A    
C14   O6    A    
C9    N2    A    
C19   C21   A    
O3    Zn2   S    
C24   C26   A    
C3    C8    A    
C18   C20   A    
O4    Zn1   S    
C13   C15   S    
C21   C23   A    
C16   C26   A    
C4    C32   S    
C28   H11   S    
C14   C16   S    
C30   O12   S    
C4    C6    A    
C12   H8    S    
C1    O1    A    
C3    C31   S    
O16   H16   S    
C12   N2    A    
C2    O2    A    
C13   O5    A    
C23   C25   A    
C27   H12   S    
C18   H10   S    
C26   H1    S    
C6    H18   S    
C32   O15   D    
O7    Zn2   S    
C17   H9    S    
C27   C28   D    
C5    C7    A    
O2    Zn2   S    
O8    Zn1   S    
C17   C19   A    
C6    C8    A    
C15   C25   A    
C4    C7    A    
O1    Zn1   S    
C5    H17   S    
C11   H7    S    
O6    Zn2   S    
C20   C22   A    
O14   H15   S    
C32   O16   S    
C23   H3    S    
