data_mof_unit_22861.cif
_audit_creation_date              2012-12-10T17:08:12-0500
_audit_creation_method            fapswitch 2.2
_symmetry_space_group_name_H-M    P1
_symmetry_Int_Tables_number       1
_space_group_crystal_system       triclinic
_cell_length_a                    23.388446
_cell_length_b                    10.870818
_cell_length_c                    9.873596
_cell_angle_alpha                 110.226937
_cell_angle_beta                  95.89371
_cell_angle_gamma                 91.961098
_cell_volume                      2336.56571239

loop_
_atom_site_label
_atom_site_type_symbol
_atom_type_description
_atom_site_fract_x
_atom_site_fract_y
_atom_site_fract_z
_atom_type_partial_charge
C1    C     C_R   0.494486 0.252740 0.441967 0.805540
C2    C     C_R   0.502808 0.747003 0.557843 0.819108
C3    C     C_R   0.239951 0.612515 0.533642 0.106745
C4    C     C_R   0.756451 0.374752 0.416923 0.109658
C5    C     C_R   0.301100 0.618300 0.558760 -0.037920
C6    C     C_R   0.696632 0.372516 0.434529 -0.031951
C7    C     C_R   0.329231 0.500135 0.508807 -0.177267
C8    C     C_R   0.670384 0.493704 0.484619 -0.176259
C9    C     C_R   0.297210 0.378136 0.447006 0.409897
C10   C     C_R   0.702787 0.614009 0.519421 0.424905
C11   C     C_R   0.237215 0.372886 0.438098 -0.221299
C12   C     C_R   0.761212 0.614734 0.502707 -0.211757
C13   C     C_R   0.208633 0.488257 0.477877 0.243707
C14   C     C_R   0.788201 0.497725 0.455265 0.237781
C15   C     C_2   0.487966 0.109067 0.415096 0.210127
C16   C     C_2   0.498604 0.889482 0.582855 0.205304
C17   C     C_2   0.460206 0.066880 0.506626 0.404921
C18   C     C_2   0.460771 0.924071 0.490466 0.373645
C19   C     C_2   0.510794 0.454305 0.048664 0.161165
C20   C     C_2   0.489535 0.497715 0.923061 0.149563
C21   C     C_R   0.391550 0.501516 0.503703 0.889472
C22   C     C_R   0.608401 0.496984 0.495619 0.876419
C23   C     C_R   0.882628 0.513471 0.584716 0.554261
C24   C     C_R   0.114355 0.469930 0.343627 0.559476
C25   C     C_R   0.873827 0.499003 0.336407 0.547947
C26   C     C_R   0.122793 0.487026 0.592800 0.552254
C27   C     C_R   0.933929 0.492262 0.334310 -0.106600
C28   C     C_R   0.062780 0.493185 0.594341 -0.107748
C29   C     C_R   0.968275 0.496462 0.462860 -0.081282
C30   C     C_R   0.028515 0.488311 0.465447 -0.085406
C31   C     C_R   0.942436 0.508495 0.589084 -0.062652
C32   C     C_R   0.054439 0.475700 0.339117 -0.062238
C33   C     C_R   0.960455 0.477823 0.207572 0.492262
C34   C     C_R   0.036296 0.507586 0.721085 0.493949
C35   C     C_R   0.020330 0.471604 0.212063 -0.273260
C36   C     C_R   0.976477 0.512863 0.716234 -0.275014
Cu1   Cu    Cu3+1 0.509980 0.521810 0.644910 0.922640
Cu2   Cu    Cu3+1 0.490020 0.478190 0.355090 0.949930
H1    H     H_    0.566348 0.581634 0.914505 0.191786
H2    H     H_    0.442551 0.506000 0.142397 0.236962
H3    H     H_    0.039964 0.464151 0.115160 0.217630
H4    H     H_    0.956850 0.519929 0.813044 0.218087
H5    H     H_    0.212521 0.278604 0.398944 0.159252
H6    H     H_    0.786250 0.707335 0.528318 0.156675
N1    N     N_R   0.849726 0.505309 0.458926 -0.455322
N2    N     N_R   0.147030 0.478598 0.469886 -0.457107
N3    N     N_2   0.475010 0.445410 0.137370 -0.331037
N4    N     N_2   0.524990 0.554590 0.862630 -0.324913
O1    O     O_R   0.505330 0.332340 0.577400 -0.568769
O2    O     O_R   0.494670 0.667660 0.422600 -0.529156
O3    O     O_R   0.488470 0.295500 0.332650 -0.590886
O4    O     O_R   0.511530 0.704500 0.667350 -0.590754
O5    O     O_R   0.426310 0.518390 0.622390 -0.611244
O6    O     O_R   0.573690 0.481610 0.377610 -0.595819
O7    O     O_R   0.409450 0.481550 0.377650 -0.572532
O8    O     O_R   0.590550 0.518450 0.622350 -0.586130
O9    O     O_2   0.857229 0.524829 0.704847 -0.547244
O10   O     O_2   0.139949 0.457314 0.223576 -0.550717
O11   O     O_2   0.839366 0.496308 0.217041 -0.489095
O12   O     O_2   0.157140 0.491719 0.713224 -0.493720
O13   O     O_3   0.928658 0.478077 0.081486 -0.533327
C37   C     C_3   0.922782 0.349159 0.978412 -0.248433
H7    H     H_    0.892734 0.347447 0.883100 0.207700
H8    H     H_    0.904025 0.277611 0.022815 0.149722
H9    H     H_    0.964709 0.318204 0.939009 0.152154
O14   O     O_3   0.068054 0.507522 0.847326 -0.534230
C38   C     C_3   0.073572 0.636338 0.950616 -0.248565
H10   H     H_    0.092135 0.708319 0.906520 0.150573
H11   H     H_    0.103633 0.638267 0.046004 0.206816
H12   H     H_    0.031542 0.666574 0.989826 0.153275
C39   C     C_3   0.207956 0.736808 0.556779 -0.388571
C40   C     C_3   0.208999 0.781729 0.425632 -0.351058
C41   C     C_3   0.182115 0.912735 0.452611 -0.842330
H13   H     H_    0.136632 0.904009 0.473392 0.258215
H14   H     H_    0.206828 0.990620 0.547409 0.262014
H15   H     H_    0.182963 0.941709 0.355406 0.242534
H16   H     H_    0.253949 0.792673 0.402124 0.218301
H17   H     H_    0.184574 0.706711 0.327920 0.253399
H18   H     H_    0.162385 0.720965 0.572519 0.193755
H19   H     H_    0.226405 0.817200 0.657565 0.200515
C42   C     C_3   0.787288 0.249215 0.356502 -0.372516
C43   C     C_3   0.806207 0.191332 0.473855 -0.349075
C44   C     C_3   0.833025 0.060946 0.409237 -0.840758
H20   H     H_    0.801152 0.987895 0.327078 0.263030
H21   H     H_    0.871454 0.075045 0.357274 0.257346
H22   H     H_    0.846628 0.022056 0.496815 0.245030
H23   H     H_    0.838405 0.261074 0.558243 0.240759
H24   H     H_    0.769115 0.174778 0.527762 0.236380
H25   H     H_    0.760633 0.176044 0.261860 0.180968
H26   H     H_    0.826237 0.267924 0.309411 0.197610
C45   C     C_3   0.335314 0.748190 0.645533 -0.367819
C46   C     C_3   0.330652 0.783606 0.808698 -0.325297
C47   C     C_3   0.357418 0.921221 0.897482 -0.923412
H27   H     H_    0.403383 0.929875 0.881348 0.247692
H28   H     H_    0.333588 0.995686 0.865949 0.254554
H29   H     H_    0.354888 0.940143 0.014297 0.233851
H30   H     H_    0.285080 0.777302 0.829317 0.222622
H31   H     H_    0.353029 0.712779 0.848754 0.217775
H32   H     H_    0.381510 0.745114 0.629266 0.188644
H33   H     H_    0.319456 0.826774 0.607466 0.202424
C48   C     C_3   0.660882 0.243845 0.405633 -0.393673
C49   C     C_3   0.652554 0.220856 0.548029 -0.371687
C50   C     C_3   0.647393 0.074404 0.526302 -0.749159
H34   H     H_    0.688772 0.030024 0.500758 0.243249
H35   H     H_    0.636141 0.061002 0.626781 0.271658
H36   H     H_    0.613551 0.021040 0.436142 0.305364
H37   H     H_    0.689169 0.269093 0.633490 0.224344
H38   H     H_    0.612966 0.265252 0.589267 0.234739
H39   H     H_    0.618153 0.244733 0.345798 0.175639
H40   H     H_    0.679900 0.158376 0.331993 0.210154
O15   O     O_3   0.325509 0.263491 0.409542 -0.574320
C51   C     C_3   0.318144 0.202475 0.257017 -0.304870
H41   H     H_    0.347756 0.122566 0.227878 0.167128
H42   H     H_    0.329543 0.271794 0.201449 0.173676
H43   H     H_    0.273423 0.157620 0.216745 0.163051
O16   O     O_3   0.675982 0.730718 0.559261 -0.577868
C52   C     C_3   0.692454 0.800791 0.708588 -0.313915
H44   H     H_    0.739725 0.826618 0.733685 0.162561
H45   H     H_    0.678057 0.744672 0.775888 0.171794
H46   H     H_    0.671333 0.894620 0.739357 0.186008
O17   O     O_3   0.420834 0.826992 0.391901 -0.602956
C53   C     C_3   0.380443 0.875960 0.310988 -0.348108
H47   H     H_    0.401897 0.915840 0.238337 0.183285
H48   H     H_    0.354961 0.950394 0.382728 0.187264
H49   H     H_    0.349661 0.793235 0.240642 0.184924
O18   O     O_3   0.427694 0.154259 0.602713 -0.596741
C54   C     C_3   0.405485 0.101408 0.700077 -0.356883
H50   H     H_    0.440473 0.093707 0.780825 0.195319
H51   H     H_    0.380018 0.006532 0.642848 0.166036
H52   H     H_    0.374914 0.167309 0.760283 0.197980
O19   O     O_3   0.536127 0.987383 0.686552 -0.617504
C55   C     C_3   0.544595 0.965664 0.819681 -0.373660
H53   H     H_    0.577736 0.894527 0.816674 0.202645
H54   H     H_    0.503649 0.933811 0.850099 0.154977
H55   H     H_    0.560979 0.058747 0.907270 0.182237
O20   O     O_3   0.516395 0.018091 0.312266 -0.615827
C56   C     C_3   0.507761 0.032762 0.175684 -0.347029
H56   H     H_    0.539131 0.109510 0.170610 0.173412
H57   H     H_    0.462700 0.053621 0.147184 0.162485
H58   H     H_    0.516096 0.938477 0.092511 0.191893
C57   C     C_3   0.425745 0.470214 0.859187 -0.304659
C58   C     C_3   0.374846 0.433339 0.929874 -0.524349
C59   C     C_3   0.318679 0.402744 0.825824 -0.764709
H59   H     H_    0.305452 0.492672 0.805767 0.258241
H60   H     H_    0.323416 0.326164 0.719819 0.280095
H61   H     H_    0.283890 0.367456 0.874966 0.259323
H62   H     H_    0.383375 0.346935 0.962172 0.235323
H63   H     H_    0.366129 0.518372 0.025529 0.231670
H64   H     H_    0.413902 0.565341 0.852281 0.219391
H65   H     H_    0.424884 0.388513 0.754564 0.299438
C60   C     C_3   0.571496 0.412693 0.067259 -0.363893
C61   C     C_3   0.594257 0.330163 0.925580 -0.398473
C62   C     C_3   0.650750 0.273801 0.959744 -0.845321
H66   H     H_    0.683789 0.354768 0.022675 0.275759
H67   H     H_    0.644261 0.209618 0.024146 0.236176
H68   H     H_    0.667247 0.214953 0.857620 0.250698
H69   H     H_    0.561712 0.249517 0.859716 0.267511
H70   H     H_    0.603292 0.390189 0.858701 0.233378
H71   H     H_    0.601302 0.501569 0.124740 0.203332
H72   H     H_    0.571455 0.349368 0.134442 0.235212

loop_
_geom_bond_atom_site_label_1
_geom_bond_atom_site_label_2
_ccdc_geom_bond_type
C9    O15   S    
H2    N3    S    
C21   O5    A    
C48   C49   S    
C23   N1    A    
C59   H61   S    
C41   H13   S    
C36   H4    S    
C19   C20   S    
C34   O14   S    
C54   H51   S    
C42   C43   S    
C46   H31   S    
C22   O6    A    
C27   C33   A    
C56   H57   S    
Cu1   Cu2   S    
C55   H55   S    
C52   H45   S    
C13   N2    S    
C8    C10   A    
C19   N3    D    
C17   O18   S    
C27   C29   A    
C48   H39   S    
C43   H23   S    
O16   C52   S    
C23   O9    S    
C6    C48   S    
C16   O19   S    
C39   H19   S    
C37   H8    S    
C2    O2    A    
C40   H16   S    
Cu1   O8    S    
Cu2   O7    S    
O15   C51   S    
C55   H53   S    
C46   H30   S    
C19   C60   S    
C60   C61   S    
C11   H5    S    
C1    C15   S    
C45   H33   S    
C62   H67   S    
C2    C16   S    
C3    C13   A    
C42   H25   S    
O14   C38   S    
C28   C34   A    
C24   O10   S    
C47   H28   S    
C41   H14   S    
C49   C50   S    
C10   C12   A    
C51   H42   S    
C51   H41   S    
C57   H65   S    
C14   N1    S    
C56   H58   S    
C61   H70   S    
C4    C42   S    
C57   H64   S    
C38   H10   S    
C32   C35   A    
C58   H63   S    
C4    C6    A    
C52   H46   S    
C45   C46   S    
C5    C7    A    
Cu1   O4    S    
O20   C56   S    
C22   O8    A    
C15   O20   S    
C48   H40   S    
C7    C21   S    
C39   H18   S    
C20   C57   S    
C38   H11   S    
C23   C31   A    
C3    C39   S    
C24   C32   A    
C29   C30   A    
Cu1   O1    S    
C8    C22   S    
C44   H20   S    
Cu2   O6    S    
C37   H7    S    
C17   C18   S    
Cu2   N3    S    
C49   H37   S    
C50   H35   S    
C47   H27   S    
C20   N4    D    
Cu1   N4    S    
C49   H38   S    
C9    C11   A    
O17   C53   S    
C5    C45   S    
C2    O4    A    
Cu2   O2    S    
C42   H26   S    
C55   H54   S    
C44   H21   S    
C12   C14   A    
C47   H29   S    
C41   H15   S    
C53   H48   S    
C54   H50   S    
C25   N1    A    
C10   O16   S    
C21   O7    A    
C59   H60   S    
C61   H69   S    
C37   H9    S    
C31   C36   A    
C58   H62   S    
C16   C18   D    
C40   C41   S    
C3    C5    A    
C6    C8    A    
C15   C17   D    
Cu2   O3    S    
C25   C27   A    
C56   H56   S    
C26   C28   A    
C1    O3    A    
C38   H12   S    
C24   N2    A    
C60   H72   S    
C53   H49   S    
C28   C30   A    
C59   H59   S    
C62   H66   S    
C54   H52   S    
Cu1   O5    S    
C39   C40   S    
C29   C31   A    
C52   H44   S    
C30   C32   A    
C11   C13   A    
C1    O1    A    
O18   C54   S    
C43   H24   S    
C62   H68   S    
C46   C47   S    
C33   C35   A    
C50   H36   S    
C34   C36   A    
C4    C14   A    
O13   C37   S    
C35   H3    S    
C26   N2    A    
C18   O17   S    
C7    C9    A    
C44   H22   S    
C61   C62   S    
C33   O13   S    
C43   C44   S    
C40   H17   S    
C50   H34   S    
C58   C59   S    
C12   H6    S    
C25   O11   S    
C45   H32   S    
C53   H47   S    
C57   C58   S    
C26   O12   S    
C51   H43   S    
O19   C55   S    
C60   H71   S    
H1    N4    S    
