data_mof_unit_6854.cif
_audit_creation_date              2012-12-10T17:22:32-0500
_audit_creation_method            fapswitch 2.2
_symmetry_space_group_name_H-M    P1
_symmetry_Int_Tables_number       1
_space_group_crystal_system       triclinic
_cell_length_a                    18.946368
_cell_length_b                    18.705375
_cell_length_c                    19.141752
_cell_angle_alpha                 110.040691
_cell_angle_beta                  110.584604
_cell_angle_gamma                 109.376315
_cell_volume                      5116.86112152

loop_
_atom_site_label
_atom_site_type_symbol
_atom_type_description
_atom_site_fract_x
_atom_site_fract_y
_atom_site_fract_z
_atom_type_partial_charge
C1    C     C_R   0.374790 0.377619 0.493039 0.862341
C2    C     C_R   0.327850 0.320257 0.574781 0.036118
C3    C     C_3   0.515656 0.544113 0.896911 -0.910643
C4    C     C_3   0.202600 0.276473 0.691434 -0.399651
C5    C     C_3   0.227390 0.242324 0.753408 -0.779064
C6    C     C_3   0.252769 0.253876 0.289735 -0.372443
C7    C     C_3   0.317080 0.232142 0.268796 -0.728605
C8    C     C_3   0.240284 0.463484 0.432789 -0.407060
C9    C     C_3   0.149985 0.397687 0.410024 -0.858916
C10   C     C_3   0.209168 0.612608 0.514463 -0.432310
C11   C     C_3   0.269035 0.713400 0.572357 -0.865860
C12   C     C_3   0.284070 0.400429 0.979524 -0.444233
C13   C     C_R   0.189400 0.188465 0.505502 -0.156937
C14   C     C_3   0.288747 0.468591 0.951957 -0.847793
C15   C     C_3   0.856939 0.534906 0.529024 -0.461205
C16   C     C_3   0.932736 0.526200 0.523875 -0.837344
C17   C     C_3   0.511310 0.835824 0.476012 -0.366502
C18   C     C_3   0.501232 0.850992 0.554624 -0.837652
C19   C     C_3   0.678200 0.001133 0.535920 -0.437031
C20   C     C_3   0.655930 0.010439 0.455988 -0.840228
C21   C     C_3   0.887087 0.716737 0.397665 -0.415564
C22   C     C_3   0.834779 0.624202 0.314891 -0.855825
C23   C     C_3   0.950125 0.648934 0.831182 -0.322959
C24   C     C_R   0.621835 0.500787 0.620667 0.836485
C25   C     C_3   0.967929 0.589749 0.770238 -0.935046
C26   C     C_R   0.185462 0.161523 0.424577 0.053605
C27   C     C_R   0.237169 0.223461 0.411144 -0.000165
C28   C     C_R   0.311065 0.305581 0.490854 -0.167615
C29   C     C_R   0.129330 0.071793 0.356608 -0.195110
C30   C     C_R   0.106049 0.045784 0.271964 -0.160727
C31   C     C_R   0.138256 0.107928 0.250342 0.205855
C32   C     C_R   0.210186 0.196063 0.319607 0.089953
C33   C     C_3   0.815611 0.514798 0.818227 0.121804
C34   C     C_R   0.235919 0.525170 0.398568 0.164483
C35   C     C_R   0.202055 0.579232 0.426570 0.226361
C36   C     C_R   0.157481 0.600904 0.369793 -0.191897
C37   C     C_R   0.620322 0.621011 0.501241 0.856547
C38   C     C_R   0.147670 0.571135 0.288232 -0.187229
C39   C     C_R   0.193080 0.529911 0.265698 0.057529
C40   C     C_R   0.247157 0.516750 0.326015 -0.000118
C41   C     C_R   0.185158 0.501705 0.183768 -0.149073
C42   C     C_R   0.241803 0.476617 0.165994 0.023537
C43   C     C_R   0.311360 0.485114 0.233787 0.086711
C44   C     C_3   0.856212 0.609624 0.821261 0.369712
C45   C     C_R   0.310583 0.498744 0.311631 -0.206394
C46   C     C_R   0.232411 0.446587 0.082705 -0.176441
C47   C     C_R   0.296230 0.434104 0.069121 0.247530
C48   C     C_R   0.371589 0.454481 0.139924 -0.198616
C49   C     C_R   0.379369 0.500379 0.378925 0.842503
C50   C     C_R   0.379939 0.481017 0.221363 -0.188355
C51   C     C_R   0.600899 0.762979 0.486429 -0.223757
C52   C     C_R   0.596817 0.838410 0.493433 0.156676
C53   C     C_R   0.671829 0.912764 0.515508 0.173472
C54   C     C_R   0.744000 0.905044 0.519121 -0.167207
C55   C     C_3   0.735519 0.499901 0.828331 -0.500146
C56   C     C_R   0.744770 0.825855 0.504473 0.063597
C57   C     C_R   0.677091 0.758642 0.498153 0.028477
C58   C     C_R   0.811192 0.811975 0.495875 -0.155534
C59   C     C_R   0.814645 0.735423 0.489300 0.026289
C60   C     C_R   0.760315 0.681494 0.506545 0.050001
C61   C     C_3   0.705502 0.423287 0.652927 -0.008410
C62   C     C_R   0.687503 0.688964 0.503649 -0.155219
C63   C     C_R   0.871061 0.710570 0.467822 0.140805
C64   C     C_R   0.894229 0.656304 0.493336 -0.124529
C65   C     C_R   0.845816 0.607298 0.517716 0.189190
C66   C     C_R   0.411644 0.386073 0.651464 -0.216948
C67   C     C_R   0.778172 0.619072 0.522818 -0.241129
C68   C     C_R   0.997922 0.379100 0.879141 0.857132
C69   C     C_R   0.878302 0.507804 0.883983 0.845627
C70   C     C_R   0.998844 0.620854 0.117599 0.841357
C71   C     C_R   0.118053 0.500060 0.117069 0.851116
C72   C     C_R   0.000171 0.880352 0.379796 0.831015
C73   C     C_3   0.779991 0.432707 0.729463 -0.478369
C74   C     C_R   0.120907 0.124843 0.505823 0.851694
C75   C     C_R   0.997252 0.117749 0.619224 0.945974
C76   C     C_R   0.879445 0.879959 0.499343 0.929614
C77   C     C_R   0.423658 0.419240 0.734301 0.184383
C78   C     C_R   0.964476 0.374926 0.720050 -0.267237
C79   C     C_R   0.964623 0.384884 0.651434 -0.253375
C80   C     C_R   0.984553 0.334360 0.598303 0.688714
C81   C     C_R   0.998666 0.269984 0.610510 -0.275848
C82   C     C_R   0.992847 0.254699 0.676815 -0.012011
C83   C     C_R   0.983768 0.313536 0.736697 0.092405
C84   C     C_R   0.994824 0.182444 0.684612 -0.142655
C85   C     C_3   0.786689 0.593605 0.732131 -0.104550
C86   C     C_R   0.993661 0.172485 0.754672 -0.160119
C87   C     C_R   0.003353 0.242503 0.823544 0.003938
C88   C     C_R   0.351900 0.381569 0.741260 -0.151660
C89   C     C_R   0.994839 0.310479 0.812189 -0.114698
C90   C     C_R   0.982816 0.095157 0.758778 0.516547
C91   C     C_R   0.995734 0.094623 0.834953 0.624483
C92   C     C_R   0.017136 0.168994 0.907141 -0.342225
C93   C     C_R   0.019745 0.241869 0.901489 -0.278319
C94   C     C_R   0.161417 0.762341 0.276558 -0.268491
C95   C     C_R   0.240979 0.834455 0.350417 0.681415
C96   C     C_R   0.242146 0.904729 0.408222 -0.239574
C97   C     C_3   0.670646 0.505553 0.758402 -0.468153
C98   C     C_R   0.163513 0.901078 0.394354 -0.259296
C99   C     C_R   0.271671 0.306083 0.668910 0.135440
C100  C     C_R   0.081038 0.825707 0.322156 0.074671
C101  C     C_R   0.080470 0.758448 0.259623 -0.014077
C102  C     C_R   0.999712 0.816577 0.310481 -0.185210
C103  C     C_R   0.918052 0.747631 0.231237 0.070750
C104  C     C_R   0.918638 0.684131 0.166076 0.068500
C105  C     C_R   0.999443 0.688919 0.182253 -0.157596
C106  C     C_R   0.834763 0.737762 0.215395 -0.145663
C107  C     C_R   0.756926 0.670923 0.136624 -0.155358
C108  C     C_R   0.758484 0.610712 0.071708 -0.154322
C109  C     C_3   0.695710 0.506848 0.689200 0.025210
C110  C     C_R   0.260476 0.270515 0.582972 0.011528
C111  C     C_R   0.837677 0.616320 0.086127 -0.172040
C112  C     C_3   0.719199 0.401786 0.573538 -0.388839
C113  C     C_3   0.651000 0.306784 0.496747 -0.842306
C114  C     C_3   0.779190 0.675710 0.733734 -0.445581
C115  C     C_3   0.858573 0.749910 0.746939 -0.828946
C116  C     C_3   0.866794 0.687194 0.900576 -0.454367
C117  C     C_3   0.928881 0.712369 0.992999 -0.875234
C118  C     C_3   0.094091 0.081085 0.153760 -0.406365
C119  C     C_3   0.015221 0.986399 0.087153 -0.881389
C120  C     C_3   0.513151 0.496386 0.812444 -0.418614
F1    F     F_    0.988614 0.346420 0.533570 -0.689077
F2    F     F_    0.953723 0.017622 0.688331 -0.655674
F3    F     F_    0.986818 0.021136 0.838493 -0.647103
F4    F     F_    0.317358 0.836877 0.364843 -0.693622
H1    H     H_    0.754215 0.548243 0.894269 0.181462
H2    H     H_    0.175875 0.433127 0.027572 0.138350
H3    H     H_    0.763367 0.600301 0.283187 0.262967
H4    H     H_    0.855441 0.626148 0.268060 0.266506
H5    H     H_    0.865653 0.758422 0.378515 0.190515
H6    H     H_    0.958305 0.745167 0.422024 0.218949
H7    H     H_    0.999020 0.559106 0.800376 0.285210
H8    H     H_    0.908540 0.537959 0.706684 0.234569
H9    H     H_    0.015200 0.630581 0.758717 0.255082
H10   H     H_    0.963943 0.706884 0.823509 0.200732
H11   H     H_    0.004495 0.679294 0.898525 0.232063
H12   H     H_    0.441900 0.500156 0.273948 0.174358
H13   H     H_    0.753109 0.370722 0.730910 0.174615
H14   H     H_    0.542849 0.707284 0.470176 0.168496
H15   H     H_    0.799879 0.962537 0.534741 0.184293
H16   H     H_    0.942463 0.644171 0.482442 0.149776
H17   H     H_    0.740757 0.579703 0.540947 0.145180
H18   H     H_    0.028713 0.169120 0.966765 0.190583
H19   H     H_    0.948651 0.415265 0.759733 0.170009
H20   H     H_    0.950830 0.433001 0.640707 0.156246
H21   H     H_    0.468284 0.414959 0.646993 0.149284
H22   H     H_    0.834422 0.434701 0.720151 0.171565
H23   H     H_    0.014443 0.233675 0.567245 0.174623
H24   H     H_    0.034437 0.297119 0.958812 0.188848
H25   H     H_    0.697970 0.558539 0.010293 0.142013
H26   H     H_    0.164942 0.710186 0.233640 0.178576
H27   H     H_    0.304124 0.962245 0.464282 0.164266
H28   H     H_    0.169279 0.959047 0.440387 0.187685
H29   H     H_    0.808828 0.577339 0.685694 0.154516
H30   H     H_    0.825469 0.777825 0.262858 0.167945
H31   H     H_    0.694897 0.665271 0.126445 0.137511
H32   H     H_    0.358251 0.410062 0.804237 0.157461
H33   H     H_    0.833360 0.566611 0.032632 0.150378
H34   H     H_    0.666552 0.564946 0.789590 0.196877
H35   H     H_    0.604882 0.446347 0.725453 0.158405
H36   H     H_    0.702316 0.433370 0.819901 0.201242
H37   H     H_    0.656074 0.258847 0.517057 0.252356
H38   H     H_    0.583486 0.295430 0.472921 0.270477
H39   H     H_    0.663105 0.294824 0.442243 0.246008
H40   H     H_    0.717344 0.447974 0.550310 0.212798
H41   H     H_    0.784334 0.408886 0.590298 0.201169
H42   H     H_    0.885529 0.721998 0.709250 0.259986
H43   H     H_    0.098851 0.020020 0.367370 0.153344
H44   H     H_    0.837481 0.789792 0.722707 0.286839
H45   H     H_    0.911075 0.796857 0.816548 0.257346
H46   H     H_    0.726785 0.653478 0.668535 0.233946
H47   H     H_    0.759704 0.703292 0.780013 0.227004
H48   H     H_    0.912959 0.653776 0.998800 0.250348
H49   H     H_    0.998785 0.746691 0.012703 0.258853
H50   H     H_    0.921011 0.758873 0.040079 0.254559
H51   H     H_    0.893169 0.749725 0.901129 0.226092
H52   H     H_    0.802799 0.674297 0.893864 0.213173
H53   H     H_    0.035739 0.936991 0.085691 0.257363
H54   H     H_    0.058350 0.976500 0.223341 0.165138
H55   H     H_    0.962515 0.974557 0.102404 0.261497
H56   H     H_    0.987854 0.977077 0.020889 0.274516
H57   H     H_    0.069696 0.126189 0.146935 0.205939
H58   H     H_    0.141995 0.088387 0.132686 0.222646
H59   H     H_    0.467789 0.566940 0.885502 0.267428
H60   H     H_    0.501438 0.499904 0.922948 0.254835
H61   H     H_    0.582405 0.603181 0.946923 0.253723
H62   H     H_    0.559183 0.471716 0.826015 0.206356
H63   H     H_    0.537665 0.546601 0.795277 0.217034
H64   H     H_    0.225526 0.179632 0.719840 0.280092
H65   H     H_    0.643268 0.365129 0.631555 0.179327
H66   H     H_    0.294046 0.290937 0.812398 0.222484
H67   H     H_    0.181320 0.231207 0.776965 0.246819
H68   H     H_    0.197334 0.334400 0.725049 0.192256
H69   H     H_    0.136727 0.228329 0.634252 0.183190
H70   H     H_    0.357840 0.222090 0.318231 0.258555
H71   H     H_    0.282448 0.171032 0.204584 0.206477
H72   H     H_    0.360877 0.286637 0.266353 0.254636
H73   H     H_    0.203286 0.246976 0.231457 0.173217
H74   H     H_    0.283518 0.323926 0.335688 0.203988
H75   H     H_    0.122868 0.431810 0.442510 0.275418
H76   H     H_    0.424184 0.449782 0.132316 0.135079
H77   H     H_    0.103300 0.358726 0.338187 0.262261
H78   H     H_    0.155939 0.351004 0.431942 0.263704
H79   H     H_    0.262034 0.422032 0.401975 0.187664
H80   H     H_    0.287751 0.501628 0.504229 0.232833
H81   H     H_    0.335595 0.733405 0.582334 0.263644
H82   H     H_    0.241618 0.746660 0.542469 0.260476
H83   H     H_    0.275054 0.735929 0.636998 0.252512
H84   H     H_    0.142647 0.593561 0.504382 0.210303
H85   H     H_    0.236219 0.584017 0.550968 0.220381
H86   H     H_    0.234590 0.481684 0.946748 0.270836
H87   H     H_    0.126497 0.637621 0.387109 0.153706
H88   H     H_    0.352942 0.531682 0.000026 0.261637
H89   H     H_    0.282233 0.442787 0.887120 0.244515
H90   H     H_    0.335467 0.384764 0.978232 0.200036
H91   H     H_    0.219269 0.338002 0.931347 0.214128
H92   H     H_    0.922309 0.507833 0.457913 0.256482
H93   H     H_    0.996461 0.589043 0.574636 0.253941
H94   H     H_    0.935296 0.472579 0.535109 0.284509
H95   H     H_    0.867600 0.548380 0.593503 0.198533
H96   H     H_    0.794979 0.470313 0.478279 0.219796
H97   H     H_    0.500170 0.798108 0.569083 0.257264
H98   H     H_    0.107154 0.584399 0.244601 0.144286
H99   H     H_    0.556393 0.916594 0.612888 0.250802
H100  H     H_    0.438436 0.849467 0.540223 0.273473
H101  H     H_    0.505809 0.885246 0.458565 0.244964
H102  H     H_    0.455183 0.770061 0.418471 0.227234
H103  H     H_    0.702874 0.007180 0.434711 0.264792
H104  H     H_    0.588059 0.956805 0.401346 0.262221
H105  H     H_    0.660550 0.075469 0.472590 0.253304
H106  H     H_    0.634932 0.010460 0.560362 0.216212
H107  H     H_    0.746159 0.055972 0.589702 0.215644
H108  H     H_    0.845987 0.574941 0.329176 0.254457
O1    O     O_R   0.408690 0.356690 0.448570 -0.612873
O2    O     O_R   0.052500 0.908420 0.460860 -0.634048
O3    O     O_R   0.039610 0.091640 0.448030 -0.610376
O4    O     O_R   0.408090 0.460090 0.551440 -0.624797
O5    O     O_R   0.143600 0.091610 0.551990 -0.630260
O6    O     O_R   0.947500 0.091600 0.539170 -0.645030
O7    O     O_R   0.051490 0.091570 0.643140 -0.579839
O8    O     O_R   0.856400 0.908420 0.448030 -0.658031
O9    O     O_R   0.960390 0.908390 0.552000 -0.553852
O10   O     O_R   0.592400 0.448300 0.540670 -0.623947
O11   O     O_R   0.591800 0.551700 0.643540 -0.634747
O12   O     O_R   0.049540 0.460090 0.906170 -0.631493
O13   O     O_R   0.591910 0.539910 0.448560 -0.624424
O14   O     O_R   0.591310 0.643310 0.551430 -0.622985
O15   O     O_R   0.408200 0.448300 0.356460 -0.639179
O16   O     O_R   0.407600 0.551700 0.459330 -0.625478
O17   O     O_R   0.946100 0.356720 0.906240 -0.613269
O18   O     O_R   0.853530 0.448360 0.905250 -0.632284
O19   O     O_R   0.956970 0.551730 0.905180 -0.627814
O20   O     O_R   0.945170 0.540000 0.088470 -0.628182
O21   O     O_R   0.048600 0.643370 0.088400 -0.623913
O22   O     O_R   0.037740 0.448360 0.089460 -0.622864
O23   O     O_R   0.141170 0.551730 0.089390 -0.614653
O24   O     O_R   0.948510 0.908450 0.356890 -0.635518
Zn1   Zn    Zn3+2 0.500400 0.430960 0.431310 0.901077
Zn2   Zn    Zn3+2 0.499600 0.569040 0.568690 0.921276
Zn3   Zn    Zn3+2 0.928290 0.431030 0.997370 0.946214
Zn4   Zn    Zn3+2 0.066410 0.569060 0.997270 0.934747
Zn5   Zn    Zn3+2 0.930570 0.000030 0.430590 0.947321
Zn6   Zn    Zn3+2 0.069430 0.999990 0.569430 0.973563

loop_
_geom_bond_atom_site_label_1
_geom_bond_atom_site_label_2
_ccdc_geom_bond_type
C68   O17   A    
C33   C55   S    
C6    C32   S    
C114  H47   S    
C41   C42   A    
C4    H68   S    
C75   O7    A    
C95   C96   A    
O12   Zn4   S    
C12   H90   S    
O8    Zn5   S    
C115  H45   S    
C77   C120  S    
C61   C109  S    
C37   C62   S    
C90   C91   A    
C58   C76   S    
C57   C62   A    
C39   C41   A    
C98   H28   S    
C53   C54   A    
C56   C57   A    
C26   C27   A    
C13   C110  A    
C20   H103  S    
C11   H83   S    
C48   H76   S    
C34   C40   A    
C97   H35   S    
C27   C28   A    
C85   C114  S    
C84   C86   A    
C5    H66   S    
C61   C112  S    
C85   C109  S    
C30   C31   A    
C75   C84   S    
C106  C107  A    
C1    O4    A    
C15   C16   S    
C15   C65   S    
C37   O13   A    
C116  C117  S    
C17   C52   S    
C93   H24   S    
C60   C62   A    
C34   C35   A    
C42   C46   A    
C16   H92   S    
C18   H97   S    
C10   H84   S    
C118  C119  S    
C92   C93   A    
C66   H21   S    
C102  C103  A    
C113  H38   S    
C46   C47   A    
C17   H101  S    
C78   C83   A    
C35   C36   A    
C94   C101  A    
C1    O1    A    
C8    C9    S    
C65   C67   A    
C96   C98   A    
C17   C18   S    
C1    C28   S    
C107  C108  A    
O7    Zn6   S    
C16   H94   S    
C10   C35   S    
C51   C57   A    
C11   H82   S    
C56   C58   A    
C25   H9    S    
C3    H60   S    
C23   H10   S    
C33   C69   S    
C41   C71   S    
C15   H95   S    
O24   Zn5   S    
C19   C53   S    
C48   C50   A    
C21   H5    S    
C59   C60   A    
O3    Zn5   S    
C91   F3    S    
C21   C22   S    
C61   H65   S    
C90   F2    S    
O17   Zn3   S    
C119  H55   S    
C72   O24   A    
C12   C47   S    
C83   C89   A    
C3    H61   S    
C70   O21   A    
C104  C105  A    
O15   Zn1   S    
C81   C82   A    
C80   F1    S    
C118  H58   S    
C101  C105  A    
C40   C45   A    
C112  H40   S    
C54   C56   A    
C59   C63   A    
C21   C63   S    
C14   H86   S    
C68   O12   A    
C51   C52   A    
C88   C99   A    
C47   C48   A    
C55   H1    S    
C108  H25   S    
C8    H80   S    
C27   C32   A    
C60   C67   A    
C88   H32   S    
C86   C90   A    
C7    H72   S    
C91   C92   A    
C6    H74   S    
C116  H52   S    
C86   C87   A    
C4    C5    S    
O1    Zn1   S    
C106  H30   S    
C58   C59   A    
C99   C110  A    
C81   H23   S    
C37   O14   A    
C63   C64   A    
C14   H89   S    
C24   O11   A    
C115  H42   S    
O11   Zn2   S    
C51   H14   S    
C71   O22   A    
C29   C30   A    
O14   Zn2   S    
O19   Zn4   S    
C113  H39   S    
C97   C109  S    
C17   H102  S    
C10   H85   S    
C22   H4    S    
C31   C32   A    
C45   C49   S    
C71   O23   A    
C55   C97   S    
C6    H73   S    
C100  C102  A    
C68   C89   S    
C30   H54   S    
C16   H93   S    
C8    C34   S    
C13   C74   S    
C7    H70   S    
C24   O10   A    
C18   H99   S    
C43   C45   A    
C5    H67   S    
C49   O15   A    
C9    H77   S    
C69   O18   A    
O16   Zn2   S    
C5    H64   S    
C33   C73   S    
C55   H36   S    
C12   C14   S    
C82   C83   A    
C82   C84   A    
O9    Zn6   S    
C87   C89   A    
O10   Zn1   S    
C92   H18   S    
C13   C26   A    
C119  H56   S    
C7    H71   S    
C44   C85   S    
C67   H17   S    
C120  H63   S    
C70   O20   A    
O18   Zn3   S    
C39   C40   A    
C18   H100  S    
C52   C53   A    
C75   O6    A    
C64   H16   S    
C118  H57   S    
C117  H49   S    
C3    C120  S    
C114  H46   S    
C66   C77   A    
C95   F4    S    
O23   Zn4   S    
C2    C110  A    
C20   H105  S    
C116  H51   S    
O5    Zn6   S    
C78   C79   A    
C33   C44   S    
O4    Zn2   S    
C9    H78   S    
C46   H2    S    
C8    H79   S    
C24   C109  S    
C80   C81   A    
C2    C66   A    
C70   C105  S    
C120  H62   S    
C104  C111  A    
C19   H106  S    
C108  C111  A    
C43   C50   A    
C114  C115  S    
C6    C7    S    
C23   H11   S    
C94   H26   S    
C11   H81   S    
C31   C118  S    
C98   C100  A    
C20   H104  S    
C79   H20   S    
C14   H88   S    
C73   H22   S    
C76   O8    A    
C61   C73   S    
C97   H34   S    
C29   H43   S    
C19   C20   S    
C36   C38   A    
C76   O9    A    
C15   H96   S    
C50   H12   S    
C85   H29   S    
C64   C65   A    
C96   H27   S    
C117  H48   S    
C38   H98   S    
C22   H3    S    
C38   C39   A    
C73   H13   S    
O22   Zn3   S    
C74   O5    A    
O21   Zn4   S    
C112  H41   S    
C87   C93   A    
C100  C101  A    
C72   O2    A    
C54   H15   S    
C103  C106  A    
C112  C113  S    
C74   O3    A    
C111  H33   S    
C94   C95   A    
C72   C102  S    
C21   H6    S    
C77   C88   A    
C49   O16   A    
C10   C11   S    
C69   O19   A    
C36   H87   S    
C113  H37   S    
C79   C80   A    
O13   Zn1   S    
O2    Zn6   S    
C23   C25   S    
C22   H108  S    
C4    H69   S    
C44   C116  S    
C26   C29   A    
C19   H107  S    
C42   C43   A    
C4    C99   S    
C103  C104  A    
O6    Zn5   S    
C2    C28   A    
C119  H53   S    
C12   H91   S    
C115  H44   S    
C78   H19   S    
C25   H8    S    
C3    H59   S    
C117  H50   S    
C107  H31   S    
C9    H75   S    
O20   Zn3   S    
C23   C44   S    
C25   H7    S    
