data_mof_unit_40583.cif
_audit_creation_date              2012-12-10T20:39:05-0500
_audit_creation_method            fapswitch 2.2
_symmetry_space_group_name_H-M    P1
_symmetry_Int_Tables_number       1
_space_group_crystal_system       triclinic
_cell_length_a                    19.18805
_cell_length_b                    10.949284
_cell_length_c                    10.06217
_cell_angle_alpha                 88.004993
_cell_angle_beta                  90.227796
_cell_angle_gamma                 91.924109
_cell_volume                      2111.53479289

loop_
_atom_site_label
_atom_site_type_symbol
_atom_type_description
_atom_site_fract_x
_atom_site_fract_y
_atom_site_fract_z
_atom_type_partial_charge
C1    C     C_R   0.500360 0.260818 0.501345 0.949312
C2    C     C_R   0.289557 0.503620 0.502916 -0.111766
C3    C     C_R   0.929164 0.492778 0.513564 0.291354
C4    C     C_R   0.069044 0.490183 0.523523 0.354147
C5    C     C_R   0.813934 0.408251 0.574345 -0.094189
C6    C     C_R   0.742073 0.412467 0.572195 -0.213685
C7    C     C_R   0.709403 0.505954 0.500429 -0.153601
C8    C     C_R   0.748939 0.598215 0.429495 0.298494
C9    C     C_R   0.822070 0.590693 0.427993 -0.127243
C10   C     C_R   0.853919 0.497023 0.503816 -0.043662
C11   C     C_R   0.488333 0.055453 0.611989 0.022712
C12   C     C_R   0.365734 0.501573 0.500049 0.930331
C13   C     C_R   0.497756 0.129072 0.499425 -0.078891
C14   C     C_R   0.499939 0.070506 0.377509 -0.185480
C15   C     C_R   0.491290 0.943284 0.370800 0.362343
C16   C     C_R   0.488835 0.870452 0.490839 -0.154975
C17   C     C_R   0.483503 0.932604 0.607700 -0.088122
C18   C     C_3   0.474121 0.914520 0.754148 0.113699
C19   C     C_3   0.481274 0.057724 0.758729 0.118108
C20   C     C_R   0.440585 0.517430 0.069308 0.183038
C21   C     C_R   0.559964 0.491692 0.073896 -0.086500
C22   C     C_R   0.560831 0.495711 0.931941 -0.007398
C23   C     C_R   0.495555 0.738804 0.497253 0.970472
C24   C     C_R   0.440733 0.519083 0.929023 0.238231
C25   C     C_3   0.372174 0.451788 0.924663 -0.530504
C26   C     C_3   0.371949 0.448103 0.076425 0.115438
C27   C     C_R   0.633845 0.502623 0.499998 0.945095
C28   C     C_R   0.256507 0.543184 0.616814 -0.225324
C29   C     C_R   0.184340 0.536409 0.628825 0.467359
C30   C     C_R   0.144480 0.491937 0.521805 -0.070117
C31   C     C_R   0.177183 0.455282 0.406410 -0.172941
C32   C     C_R   0.249258 0.462292 0.396499 -0.104369
H1    H     H_    0.286901 0.580227 0.696533 0.224592
H2    H     H_    0.608313 0.484203 0.128641 0.189856
H3    H     H_    0.330667 0.509412 0.883552 0.237071
H4    H     H_    0.376020 0.362295 0.878051 0.226137
H5    H     H_    0.329975 0.502687 0.117754 0.134175
H6    H     H_    0.146735 0.423198 0.322828 0.195799
H7    H     H_    0.272811 0.434256 0.306280 0.200216
H8    H     H_    0.838519 0.336136 0.632101 0.185290
H9    H     H_    0.711641 0.341987 0.626176 0.201020
H10   H     H_    0.508620 0.123492 0.286683 0.252224
N1    N     N_R   0.035562 0.592594 0.552563 -0.064173
N2    N     N_R   0.966589 0.593669 0.548286 -0.090689
N3    N     N_R   0.962485 0.389755 0.485189 -0.129659
N4    N     N_R   0.031673 0.388713 0.489380 -0.131957
N5    N     N_R   0.499530 0.499140 0.142800 -0.101183
N6    N     N_R   0.499530 0.499180 0.857150 -0.135456
O1    O     O_R   0.500010 0.316790 0.614690 -0.575945
O2    O     O_R   0.500000 0.316760 0.385350 -0.588770
O3    O     O_R   0.398140 0.500000 0.614710 -0.603394
O4    O     O_R   0.398130 0.499970 0.385370 -0.604568
O5    O     O_R   0.500000 0.683240 0.614650 -0.597195
O6    O     O_R   0.499990 0.683210 0.385310 -0.525635
O7    O     O_R   0.601870 0.500030 0.614630 -0.607166
O8    O     O_R   0.601860 0.500000 0.385290 -0.595263
Zn1   Zn    Zn3+2 0.500000 0.500020 0.653130 1.076316
Zn2   Zn    Zn3+2 0.500000 0.499980 0.346870 1.116715
S1    S     S_3+6 0.484607 0.884118 0.210634 0.132041
O9    O     O_2   0.427053 0.787857 0.204551 -0.239788
O10   O     O_2   0.469536 0.983204 0.109251 -0.157002
O11   O     O_3   0.561590 0.823922 0.177923 -0.456242
H11   H     H_    0.595710 0.893812 0.178714 0.397533
S2    S     S_3+6 0.388155 0.846686 0.788573 0.064203
O12   O     O_2   0.333971 0.909361 0.704895 -0.254099
O13   O     O_2   0.387001 0.714410 0.756113 -0.342815
O14   O     O_3   0.368080 0.857524 0.949916 -0.402911
H12   H     H_    0.325372 0.805208 0.963073 0.395855
C33   C     C_2   0.532703 0.843919 0.817320 1.085258
O15   O     O_2   0.591266 0.850182 0.769093 -0.519071
O16   O     O_R   0.519724 0.770058 0.930103 -0.701378
H13   H     H_    0.563765 0.731480 0.964078 0.371280
C34   C     C_2   0.415987 0.120901 0.797430 0.990486
O17   O     O_2   0.393921 0.106316 0.910184 -0.457677
O18   O     O_R   0.377528 0.186808 0.702434 -0.795780
H14   H     H_    0.331539 0.214415 0.738148 0.358428
S3    S     S_3+6 0.560944 0.120363 0.830097 0.052425
O19   O     O_2   0.553225 0.253550 0.850458 -0.336763
O20   O     O_2   0.577465 0.058663 0.961400 -0.243029
O21   O     O_3   0.627898 0.103504 0.725493 -0.514317
H15   H     H_    0.668499 0.144393 0.768388 0.400046
C35   C     C_2   0.630484 0.504371 0.871896 0.983524
O22   O     O_2   0.667984 0.416275 0.878096 -0.593877
O23   O     O_R   0.655977 0.616741 0.818986 -0.751241
H16   H     H_    0.705528 0.612818 0.785167 0.361599
S4    S     S_3+6 0.146550 0.580966 0.779622 0.056616
O24   O     O_2   0.087561 0.493420 0.818887 -0.269635
O25   O     O_2   0.200021 0.582407 0.889189 -0.313697
O26   O     O_3   0.115919 0.722276 0.756988 -0.492566
H17   H     H_    0.093009 0.739627 0.842010 0.402356
S5    S     S_3+6 0.374529 0.293638 0.143372 0.090684
O27   O     O_2   0.364740 0.286963 0.291118 -0.266968
O28   O     O_2   0.316387 0.219222 0.082151 -0.185365
O29   O     O_3   0.451622 0.234302 0.109418 -0.469431
H18   H     H_    0.466535 0.273587 0.024203 0.363121
S6    S     S_3+6 0.707534 0.723441 0.347120 0.072579
O30   O     O_2   0.645748 0.759188 0.426102 -0.270944
O31   O     O_2   0.755626 0.834035 0.330442 -0.239504
O32   O     O_3   0.680675 0.680073 0.196298 -0.524312
H19   H     H_    0.723604 0.657562 0.150018 0.369107
C36   C     C_2   0.865134 0.674473 0.341005 0.998346
O33   O     O_2   0.870696 0.653690 0.223024 -0.594460
O34   O     O_R   0.898652 0.777275 0.393814 -0.721122
H20   H     H_    0.926403 0.827394 0.324510 0.368786

loop_
_geom_bond_atom_site_label_1
_geom_bond_atom_site_label_2
_ccdc_geom_bond_type
C22   N6    A    
C36   O33   D    
C34   O17   D    
C8    S6    S    
O18   H14   S    
C2    C12   S    
O1    Zn1   S    
N6    Zn1   S    
C4    N4    A    
N3    N4    A    
C11   C19   S    
O11   H11   S    
C22   C35   S    
C28   C29   A    
C30   C31   A    
S4    O25   D    
C15   C16   A    
S6    O32   S    
C7    C27   S    
C2    C32   A    
C18   C19   S    
C32   H7    S    
C19   S3    S    
N5    Zn2   S    
C20   C24   A    
C8    C9    A    
C6    H9    S    
S6    O31   D    
O3    Zn1   S    
C9    C10   A    
C14   H10   S    
C18   C33   S    
S1    O9    D    
C36   O34   S    
C21   C22   A    
C34   O18   S    
C33   O15   D    
C12   O4    A    
C23   O5    A    
S3    O20   D    
C3    N2    A    
S1    O10   D    
C33   O16   S    
O14   H12   S    
O2    Zn2   S    
S2    O14   S    
C19   C34   S    
O23   H16   S    
S5    O27   D    
O5    Zn1   S    
S4    O24   D    
C16   C17   A    
C21   H2    S    
C26   S5    S    
S3    O19   D    
C3    N3    A    
C24   N6    A    
N1    N2    A    
C29   C30   A    
C1    O2    A    
S5    O28   D    
O32   H19   S    
S6    O30   D    
C17   C18   S    
C24   C25   S    
C29   S4    S    
O4    Zn2   S    
C25   H3    S    
C28   H1    S    
C16   C23   S    
C35   O23   S    
O7    Zn1   S    
C1    C13   S    
C12   O3    A    
C23   O6    A    
O6    Zn2   S    
S3    O21   S    
C11   C17   A    
S1    O11   S    
C27   O8    A    
C15   S1    S    
C31   C32   A    
O21   H15   S    
S4    O26   S    
C26   H5    S    
C6    C7    A    
C4    N1    A    
C31   H6    S    
S2    O12   D    
C25   C26   S    
C5    C10   A    
C3    C10   S    
S5    O29   S    
C11   C13   A    
C18   S2    S    
C5    C6    A    
C20   C26   S    
O8    Zn2   S    
C27   O7    A    
O29   H18   S    
C20   N5    A    
C7    C8    A    
C25   H4    S    
O16   H13   S    
C9    C36   S    
C35   O22   D    
C5    H8    S    
O34   H20   S    
C14   C15   A    
C2    C28   A    
O26   H17   S    
C13   C14   A    
C1    O1    A    
C4    C30   S    
S2    O13   D    
C21   N5    A    
