data_mof_unit_27570.cif
_audit_creation_date              2013-03-05T15:58:18-0500
_audit_creation_method            fapswitch 2.2
_symmetry_space_group_name_H-M    P1
_symmetry_Int_Tables_number       1
_space_group_crystal_system       triclinic
_cell_length_a                    12.601351
_cell_length_b                    12.996217
_cell_length_c                    15.391543
_cell_angle_alpha                 84.329115
_cell_angle_beta                  98.6651
_cell_angle_gamma                 96.838922
_cell_volume                      2465.75716642

loop_
_atom_site_label
_atom_site_type_symbol
_atom_site_description
_atom_site_fract_x
_atom_site_fract_y
_atom_site_fract_z
_atom_type_partial_charge
O1    O     O_R   0.374950 0.371210 0.521360 -0.567340
O2    O     O_R   0.542050 0.338030 0.492790 -0.589554
C1    C     C_R   0.441983 0.307715 0.507228 1.030312
O3    O     O_R   0.368720 0.526070 0.390200 -0.609986
O4    O     O_R   0.535820 0.492890 0.361630 -0.589856
C2    C     C_R   0.436485 0.514910 0.335726 0.928338
Zn1   Zn    Zn3+2 0.388420 0.522150 0.519080 1.043882
Zn2   Zn    Zn3+2 0.611580 0.477850 0.480920 0.983148
O5    O     O_R   0.457950 0.661970 0.507210 -0.615972
O6    O     O_R   0.625050 0.628790 0.478640 -0.628711
O7    O     O_R   0.464180 0.507110 0.638370 -0.572688
O8    O     O_R   0.631280 0.473930 0.609800 -0.641532
C3    C     C_R   0.555493 0.692599 0.488264 0.870688
C4    C     C_R   0.565397 0.488906 0.664285 0.904787
C5    C     C_R   0.404765 0.538582 0.241298 -0.103255
C6    C     C_R   0.611058 0.500146 0.756837 -0.111206
C7    C     C_R   0.275534 0.592407 0.117627 -0.090118
C8    C     C_R   0.301793 0.566520 0.207534 -0.116538
C9    C     C_R   0.482505 0.541552 0.185117 -0.153922
C10   C     C_R   0.461310 0.577666 0.096504 0.137252
C11   C     C_R   0.353981 0.595212 0.061650 0.060828
C12   C     C_R   0.541848 0.586771 0.040203 -0.111411
C13   C     C_R   0.507259 0.581543 0.949235 -0.062551
C14   C     C_R   0.400339 0.604717 0.914691 0.344342
C15   C     C_R   0.326040 0.613282 0.971303 -0.213687
C16   C     C_R   0.654564 0.599949 0.071158 0.179957
C17   C     C_R   0.729510 0.587488 0.014618 0.238712
C18   C     C_R   0.692974 0.560234 0.927416 -0.063172
C19   C     C_R   0.580255 0.552475 0.896937 -0.005534
C20   C     C_R   0.764888 0.542497 0.868667 0.528431
C21   C     C_R   0.722618 0.515445 0.782977 -0.304100
C22   C     C_R   0.541997 0.510292 0.816561 -0.106263
H1    H     H_    0.245040 0.630797 0.944082 0.215522
H2    H     H_    0.457272 0.485936 0.798721 0.209346
H3    H     H_    0.777156 0.507900 0.736445 0.165411
H4    H     H_    0.194018 0.609350 0.091836 0.202428
H5    H     H_    0.241692 0.567313 0.250312 0.231787
H6    H     H_    0.559094 0.512928 0.210484 0.184776
C23   C     C_R   0.633424 0.939545 0.353939 0.323053
H7    H     H_    0.686565 0.786203 0.370787 0.222981
H8    H     H_    0.599958 0.138734 0.291289 0.179717
C24   C     C_R   0.578141 0.803113 0.462981 -0.136038
C25   C     C_R   0.325368 0.153930 0.563223 0.078024
C26   C     C_R   0.287777 0.047330 0.563545 0.447996
C27   C     C_R   0.336248 0.983032 0.517306 0.424191
C28   C     C_R   0.423740 0.025322 0.471453 -0.188415
C29   C     C_R   0.438967 0.133045 0.451423 -0.018438
C30   C     C_R   0.498233 0.964845 0.446782 0.072071
C31   C     C_R   0.562749 0.004126 0.380493 0.013710
C32   C     C_R   0.554982 0.106689 0.343937 -0.285935
C33   C     C_R   0.492641 0.171558 0.378323 0.487759
C34   C     C_R   0.515292 0.869132 0.492335 -0.215302
C35   C     C_R   0.639445 0.838682 0.395279 -0.199279
C36   C     C_R   0.400389 0.197380 0.505880 -0.255823
H9    H     H_    0.475625 0.842610 0.549454 0.211403
C37   C     C_R   0.141925 0.657844 0.614757 0.305559
H10   H     H_    0.314839 0.670517 0.622682 0.217785
N1    N     N_R   0.239390 0.551900 0.544730 -0.149411
C38   C     C_R   0.757503 0.379236 0.395171 -0.158532
C39   C     C_R   0.850961 0.366521 0.360655 0.378130
C40   C     C_R   0.947942 0.424171 0.392436 0.308735
C41   C     C_R   0.951687 0.485012 0.465426 -0.144860
C42   C     C_R   0.853109 0.501057 0.491607 0.173822
C43   C     C_R   0.048129 0.531716 0.512462 -0.071895
C44   C     C_R   0.044051 0.609061 0.571703 -0.027946
C45   C     C_R   0.942846 0.634792 0.585533 0.439944
C46   C     C_R   0.850153 0.574448 0.551179 -0.283917
C47   C     C_R   0.148806 0.499927 0.506247 0.078209
C48   C     C_R   0.238698 0.631552 0.594591 0.019136
N2    N     N_R   0.759950 0.448600 0.455730 -0.121369
H11   H     H_    0.157737 0.434054 0.471643 0.179958
H12   H     H_    0.680966 0.339576 0.369220 0.163848
H13   H     H_    0.775856 0.588213 0.570567 0.197603
O9    O     O_3   0.875308 0.555373 0.893973 -0.679101
H14   H     H_    0.912580 0.540334 0.845028 0.360500
N3    N     N_R   0.695007 0.972192 0.282917 0.218946
O10   O     O_R   0.647101 0.007200 0.206734 -0.332303
O11   O     O_R   0.792995 0.947386 0.288548 -0.287740
N4    N     N_R   0.288149 0.217192 0.621268 0.220715
O12   O     O_R   0.192128 0.247896 0.602748 -0.369815
O13   O     O_R   0.353203 0.250644 0.688916 -0.360696
O14   O     O_3   0.291020 0.881144 0.513353 -0.702514
H15   H     H_    0.305611 0.855659 0.458148 0.341112
O15   O     O_3   0.205466 0.002129 0.609339 -0.621203
H16   H     H_    0.179211 0.054414 0.640973 0.381400
O16   O     O_3   0.476028 0.268906 0.337239 -0.770799
H17   H     H_    0.512065 0.280418 0.283560 0.325899
O17   O     O_3   0.934872 0.719361 0.631183 -0.679213
H18   H     H_    0.857871 0.726756 0.633267 0.337651
N5    N     N_R   0.145919 0.725859 0.683704 0.294886
O18   O     O_R   0.097611 0.693648 0.751978 -0.290508
O19   O     O_R   0.220390 0.804119 0.690684 -0.249183
N6    N     N_R   0.033846 0.436501 0.339677 0.217928
O20   O     O_R   0.070852 0.529506 0.311431 -0.374819
O21   O     O_R   0.065908 0.356200 0.310931 -0.291004
O22   O     O_3   0.847882 0.305345 0.291677 -0.641719
H19   H     H_    0.773328 0.271614 0.276871 0.333769
N7    N     N_R   0.842416 0.602696 0.047107 0.286917
O23   O     O_R   0.893810 0.523124 0.079004 -0.259738
O24   O     O_R   0.889876 0.696314 0.056098 -0.267230
N8    N     N_R   0.367102 0.627695 0.822783 0.198255
O25   O     O_R   0.423825 0.697328 0.777214 -0.375802
O26   O     O_R   0.280383 0.576894 0.784489 -0.397602
N9    N     N_R   0.694080 0.639243 0.155593 0.220636
O27   O     O_R   0.655977 0.719784 0.178495 -0.328965
O28   O     O_R   0.768551 0.595390 0.209549 -0.327689

loop_
_geom_bond_atom_site_label_1
_geom_bond_atom_site_label_2
_geom_bond_distance
_ccdc_geom_bond_type
C5    C8    1.399057 A    
C17   N7    1.432335 S    
N8    O25   1.301294 A    
C27   O14   1.381178 S    
N9    O28   1.301588 A    
C23   C35   1.404710 A    
C27   C28   1.424502 A    
C6    C21   1.398754 A    
Zn1   O7    1.940639 S    
C37   C48   1.390855 A    
C16   C17   1.409755 A    
N6    O20   1.300172 A    
C13   C19   1.415181 A    
C18   C19   1.422055 A    
C8    H5    1.077348 S    
N3    O11   1.301227 A    
C19   C22   1.398141 A    
C24   C35   1.399501 A    
C45   O17   1.382726 S    
O4    C2    1.311538 A    
C20   O9    1.382002 S    
O7    C4    1.319782 A    
C40   N6    1.433447 S    
C25   N4    1.434354 S    
C37   C44   1.418714 A    
C14   N8    1.426006 S    
O5    C3    1.312585 A    
N9    O27   1.301564 A    
C41   C43   1.419690 A    
C16   N9    1.439875 S    
C2    C5    1.460361 S    
O15   H16   0.987798 S    
C9    C10   1.394781 A    
C13   C14   1.427539 A    
C46   H13   1.064057 S    
C7    H4    1.083948 S    
Zn1   N1    2.063650 S    
C34   H9    1.083082 S    
C38   H12   1.077788 S    
C37   N5    1.438306 S    
C45   C46   1.391644 A    
C38   C39   1.395967 A    
N6    O21   1.301404 A    
O3    Zn1   1.958008 S    
C33   O16   1.381808 S    
C3    C24   1.456406 S    
C32   C33   1.406829 A    
C28   C30   1.408980 A    
C42   C46   1.394060 A    
O9    H14   0.991914 S    
C14   C15   1.392128 A    
O3    C2    1.312432 A    
N4    O13   1.300965 A    
O16   H17   0.991783 S    
C29   C33   1.418195 A    
O14   H15   0.991296 S    
C7    C11   1.400956 A    
C39   C40   1.402991 A    
O1    C1    1.303313 A    
C22   H2    1.078804 S    
C5    C9    1.395883 A    
C25   C26   1.409544 A    
C41   C42   1.406450 A    
C9    H6    1.079605 S    
C25   C36   1.420325 A    
N5    O19   1.300214 A    
C42   N2    1.355095 A    
Zn2   O8    1.958008 S    
O22   H19   0.991898 S    
C10   C11   1.414095 A    
C7    C8    1.390740 A    
C23   N3    1.436220 S    
N3    O10   1.301168 A    
C29   C36   1.412804 A    
C39   O22   1.381245 S    
N1    C47   1.342303 A    
C30   C31   1.417997 A    
C23   C31   1.421319 A    
C10   C12   1.418118 A    
N7    O23   1.301247 A    
N7    O24   1.300836 A    
C21   H3    1.083110 S    
C43   C47   1.399482 A    
H8    C32   1.080177 S    
C26   C27   1.395685 A    
Zn1   O5    1.925218 S    
C11   C15   1.385817 A    
C28   C29   1.400139 A    
O1    Zn1   1.946022 S    
Zn2   O6    1.946020 S    
O2    Zn2   1.925219 S    
O8    C4    1.308015 A    
C26   O15   1.382413 S    
O6    C3    1.309364 A    
O4    Zn2   1.940639 S    
H7    C35   1.083760 S    
N1    C48   1.349736 A    
C6    C22   1.382776 A    
Zn2   N2    2.051166 S    
C43   C44   1.432476 A    
C18   C20   1.424736 A    
O2    C1    1.320414 A    
N5    O18   1.301994 A    
C20   C21   1.407903 A    
C47   H11   1.077201 S    
C1    C36   1.467971 S    
C4    C6    1.468267 S    
C44   C45   1.407489 A    
C40   C41   1.428361 A    
C38   N2    1.353953 A    
N4    O12   1.301204 A    
C30   C34   1.389606 A    
O17   H18   0.991957 S    
N8    O26   1.299408 A    
C31   C32   1.403254 A    
C12   C16   1.424096 A    
C24   C34   1.383407 A    
C17   C18   1.416964 A    
C12   C13   1.408132 A    
H10   C48   1.080060 S    
C15   H1    1.084830 S    
