data_mof_unit_16740.cif
_audit_creation_date              2012-12-10T18:58:13-0500
_audit_creation_method            fapswitch 2.2
_symmetry_space_group_name_H-M    P1
_symmetry_Int_Tables_number       1
_space_group_crystal_system       triclinic
_cell_length_a                    11.045654
_cell_length_b                    10.775111
_cell_length_c                    9.567222
_cell_angle_alpha                 90.604586
_cell_angle_beta                  103.06424
_cell_angle_gamma                 90.53879
_cell_volume                      1109.0580553

loop_
_atom_site_label
_atom_site_type_symbol
_atom_type_description
_atom_site_fract_x
_atom_site_fract_y
_atom_site_fract_z
_atom_type_partial_charge
C1    C     C_R   0.498510 0.262639 0.499046 0.810511
C2    C     C_R   0.492182 0.129513 0.497933 -0.128944
C3    C     C_R   0.401450 0.064985 0.396294 -0.233569
C4    C     C_R   0.396087 0.934564 0.396871 0.125737
C5    C     C_R   0.486481 0.870650 0.499238 -0.146914
C6    C     C_R   0.567454 0.937613 0.606904 0.174735
C7    C     C_3   0.705819 0.931378 0.650383 -0.469894
C8    C     C_3   0.707623 0.071965 0.652873 -0.488678
C9    C     C_R   0.601876 0.540152 0.101274 0.202839
C10   C     C_R   0.404538 0.448298 0.048765 -0.086224
C11   C     C_R   0.404588 0.448143 0.900153 -0.063392
C12   C     C_R   0.262280 0.499180 0.441036 0.708699
C13   C     C_R   0.602544 0.540725 0.954286 0.066410
C14   C     C_3   0.666043 0.667387 0.972567 0.392910
C15   C     C_3   0.664777 0.662826 0.132811 0.121631
C16   C     C_R   0.496235 0.737335 0.499509 0.802720
C17   C     C_R   0.737255 0.498381 0.558698 0.858280
C18   C     C_2   0.125509 0.494509 0.406364 0.237455
C19   C     C_2   0.066869 0.486469 0.514481 -0.188147
C20   C     C_2   0.872578 0.495989 0.592584 -0.428260
C21   C     C_2   0.931869 0.479451 0.486907 -0.055335
C22   C     C_R   0.569213 0.065314 0.607602 0.123377
Cu1   Cu    Cu3+1 0.499990 0.499980 0.640670 0.956096
Cu2   Cu    Cu3+1 0.500010 0.500020 0.359330 0.950283
H1    H     H_    0.879914 0.462674 0.377556 0.260102
H2    H     H_    0.751344 0.113182 0.569887 0.196491
H3    H     H_    0.326252 0.408065 0.083211 0.140079
H4    H     H_    0.326404 0.407512 0.824157 0.136067
H5    H     H_    0.605839 0.733891 0.169472 0.103524
H6    H     H_    0.118493 0.486743 0.625683 0.131853
H7    H     H_    0.923679 0.510090 0.702934 0.148923
H8    H     H_    0.335211 0.115933 0.317170 0.152982
H9    H     H_    0.737834 0.891392 0.758038 0.243989
H10   H     H_    0.747753 0.890241 0.565454 0.181321
H11   H     H_    0.739787 0.112489 0.762503 0.208266
N1    N     N_R   0.500780 0.500930 0.148120 -0.204487
N2    N     N_R   0.500790 0.500890 0.852210 -0.178437
O1    O     O_R   0.500000 0.319640 0.618810 -0.571650
O2    O     O_R   0.500010 0.319680 0.381230 -0.574819
O3    O     O_R   0.320680 0.500000 0.575130 -0.600319
O4    O     O_R   0.320690 0.500040 0.337550 -0.595078
O5    O     O_R   0.499990 0.680320 0.618770 -0.532068
O6    O     O_R   0.500000 0.680360 0.381190 -0.587295
O7    O     O_R   0.679310 0.499960 0.662450 -0.593450
O8    O     O_R   0.679320 0.500000 0.424870 -0.544531
C23   C     C_3   0.795667 0.667169 0.936147 -0.232996
C24   C     C_3   0.877810 0.778859 0.999506 -0.821226
H12   H     H_    0.945634 0.798469 0.932499 0.216435
H13   H     H_    0.821585 0.863121 0.003642 0.261117
H14   H     H_    0.932031 0.759010 0.109249 0.279686
H15   H     H_    0.845803 0.580182 0.972938 0.194152
H16   H     H_    0.782271 0.670450 0.817952 0.194187
O9    O     O_3   0.590689 0.762208 0.900149 -0.729372
H17   H     H_    0.506547 0.754388 0.920177 0.308287
O10   O     O_3   0.782094 0.648949 0.224429 -0.708128
H18   H     H_    0.798851 0.725898 0.283844 0.325531
O11   O     O_3   0.056737 0.497810 0.266011 -0.728633
H19   H     H_    0.113691 0.507271 0.200345 0.327675
C25   C     C_3   0.292273 0.868433 0.290911 -0.380095
C26   C     C_3   0.315656 0.868351 0.139718 -0.793598
H20   H     H_    0.321352 0.964819 0.101753 0.245077
H21   H     H_    0.403452 0.820002 0.137928 0.250587
H22   H     H_    0.238098 0.818970 0.065130 0.231862
H23   H     H_    0.279744 0.771302 0.322864 0.202983
H24   H     H_    0.202991 0.915610 0.289823 0.192681

loop_
_geom_bond_atom_site_label_1
_geom_bond_atom_site_label_2
_ccdc_geom_bond_type
C10   H3    S    
C12   O3    A    
C9    N1    A    
C8    C22   S    
Cu1   Cu2   S    
C2    C22   A    
C12   O4    A    
C23   H16   S    
Cu1   O1    S    
C8    H2    S    
C3    H8    S    
C18   O11   S    
C13   N2    A    
C24   H12   S    
C14   C15   S    
O10   H18   S    
C17   C20   S    
C2    C3    A    
C9    C15   S    
C17   O7    A    
C7    C8    S    
C24   H13   S    
Cu2   N1    S    
O9    H17   S    
C25   H24   S    
Cu2   O4    S    
C7    H9    S    
C16   O6    A    
C25   H23   S    
C6    C7    S    
Cu1   O5    S    
C21   H1    S    
C11   H4    S    
C26   H20   S    
C26   H22   S    
Cu2   O8    S    
C1    O1    A    
C4    C25   S    
C19   C21   S    
C17   O8    A    
C15   H5    S    
C24   H14   S    
O11   H19   S    
C5    C6    A    
C7    H10   S    
C10   C11   A    
C1    O2    A    
Cu1   O3    S    
C6    C22   A    
C16   O5    A    
C25   C26   S    
Cu2   O2    S    
C20   C21   D    
C26   H21   S    
C1    C2    S    
C12   C18   S    
C11   N2    A    
Cu2   O6    S    
C9    C13   A    
C23   C24   S    
C18   C19   D    
C5    C16   S    
C10   N1    A    
C13   C14   S    
Cu1   N2    S    
C19   H6    S    
C14   O9    S    
C23   H15   S    
C20   H7    S    
Cu1   O7    S    
C3    C4    A    
C4    C5    A    
C14   C23   S    
C8    H11   S    
C15   O10   S    
