data_mof_unit_35175.cif
_audit_creation_date              2013-03-05T15:55:18-0500
_audit_creation_method            fapswitch 2.2
_symmetry_space_group_name_H-M    P1
_symmetry_Int_Tables_number       1
_space_group_crystal_system       triclinic
_cell_length_a                    6.936058
_cell_length_b                    16.790193
_cell_length_c                    17.073386
_cell_angle_alpha                 100.327555
_cell_angle_beta                  89.325385
_cell_angle_gamma                 90.770438
_cell_volume                      1955.8496743

loop_
_atom_site_label
_atom_site_type_symbol
_atom_site_description
_atom_site_fract_x
_atom_site_fract_y
_atom_site_fract_z
_atom_type_partial_charge
O1    O     O_R   0.494370 0.415690 0.413450 -0.594808
O2    O     O_R   0.819420 0.429360 0.578420 -0.595325
O3    O     O_R   0.994280 0.584310 0.586550 -0.599420
C1    C     C_R   0.651235 0.414273 0.605699 0.938366
O4    O     O_R   0.823790 0.406230 0.413570 -0.597068
O5    O     O_R   0.998670 0.561000 0.420530 -0.592707
C2    C     C_R   0.654920 0.383419 0.384772 0.950696
O6    O     O_R   0.489970 0.439000 0.579470 -0.589833
O7    O     O_3   0.662300 0.550810 0.502470 -0.278442
V1    V     V_3+5 0.935380 0.490570 0.499540 1.155434
O8    O     O_R   0.328650 0.570640 0.421580 -0.600895
C3    C     C_R   0.162962 0.586205 0.394611 0.937746
O9    O     O_R   0.324290 0.593770 0.586430 -0.598906
C4    C     C_R   0.155151 0.616935 0.615077 0.916425
V2    V     V_3+5 0.435930 0.509430 0.500460 1.151602
O10   O     O_3   0.159140 0.449190 0.497530 -0.266686
C5    C     C_R   0.312093 0.724058 0.717761 -0.141799
H1    H     H_    0.452941 0.705094 0.694063 0.120753
C6    C     C_R   0.300794 0.787846 0.782870 -0.139741
H2    H     H_    0.433556 0.816158 0.807153 0.122940
C7    C     C_R   0.121041 0.814732 0.816005 -0.117197
C8    C     C_R   0.952916 0.776037 0.782111 -0.143726
H3    H     H_    0.812064 0.794994 0.805809 0.119776
C9    C     C_R   0.964215 0.712251 0.717003 -0.138335
H4    H     H_    0.831448 0.683938 0.692727 0.123221
C10   C     C_R   0.143964 0.685359 0.683871 -0.123617
C11   C     C_R   0.171372 0.639047 0.333117 -0.137320
C12   C     C_R   0.093258 0.859678 0.165919 -0.141767
C13   C     C_R   0.895672 0.799575 0.260635 -0.253719
C14   C     C_R   0.919349 0.854589 0.208821 -0.072099
C15   C     C_R   0.244921 0.808309 0.177019 -0.299314
C16   C     C_R   0.220510 0.751542 0.228410 0.227223
C17   C     C_R   0.044320 0.747032 0.270504 0.216799
C18   C     C_R   0.020099 0.690597 0.322178 -0.282605
C19   C     C_R   0.344390 0.643186 0.289427 -0.150483
C20   C     C_R   0.368565 0.698483 0.237841 -0.233382
H5    H     H_    0.886691 0.688679 0.355560 0.141355
H6    H     H_    0.463794 0.604034 0.295961 0.134529
H7    H     H_    0.759816 0.797544 0.292266 0.139482
H8    H     H_    0.504026 0.700145 0.205859 0.126505
H9    H     H_    0.798561 0.892698 0.201539 0.170870
H10   H     H_    0.378630 0.810545 0.143912 0.137870
C21   C     C_R   0.654140 0.364058 0.669296 -0.133646
C22   C     C_R   0.610654 0.136135 0.830854 -0.125214
C23   C     C_R   0.426631 0.179318 0.724549 -0.212629
C24   C     C_R   0.454920 0.125968 0.777418 -0.143717
C25   C     C_R   0.741295 0.200454 0.828931 -0.292213
C26   C     C_R   0.712080 0.255253 0.776248 0.214861
C27   C     C_R   0.552712 0.244944 0.723906 0.209058
C28   C     C_R   0.523501 0.299740 0.671220 -0.279053
C29   C     C_R   0.809874 0.374229 0.722731 -0.145154
C30   C     C_R   0.838162 0.320880 0.775602 -0.220327
H11   H     H_    0.404890 0.290321 0.629666 0.140551
H12   H     H_    0.913380 0.423091 0.722410 0.128075
H13   H     H_    0.304182 0.169847 0.684982 0.134885
H14   H     H_    0.960616 0.330349 0.815167 0.127444
H15   H     H_    0.351423 0.077101 0.777730 0.130799
H16   H     H_    0.859918 0.209866 0.870479 0.134030
C31   C     C_R   0.791343 0.257351 0.302902 -0.250557
H17   H     H_    0.912141 0.262637 0.343247 0.172081
C32   C     C_R   0.779558 0.190130 0.240664 0.390401
C33   C     C_R   0.621537 0.182110 0.187305 -0.302630
C34   C     C_R   0.474979 0.240235 0.201210 -0.088852
H18   H     H_    0.352508 0.236022 0.161844 0.147129
C35   C     C_R   0.484827 0.305005 0.265440 -0.108934
H19   H     H_    0.368897 0.348383 0.274324 0.122190
C36   C     C_R   0.644036 0.314719 0.316535 -0.184418
O11   O     O_R   0.774880 0.061150 0.920630 -0.594826
O12   O     O_R   0.440980 0.093710 0.086500 -0.579652
O13   O     O_R   0.266190 0.938890 0.079390 -0.589146
C37   C     C_R   0.609762 0.115330 0.116614 0.997293
O14   O     O_R   0.445420 0.070740 0.921670 -0.602795
O15   O     O_R   0.270660 0.915760 0.913380 -0.604501
C38   C     C_R   0.613599 0.085883 0.894421 0.920402
O16   O     O_R   0.770400 0.084270 0.086640 -0.567745
O17   O     O_3   0.602590 0.949210 0.997500 -0.286471
V3    V     V_3+5 0.329470 0.009420 0.000470 1.183466
O18   O     O_R   0.940650 0.906250 0.913470 -0.605240
C39   C     C_R   0.109816 0.883128 0.884823 0.898562
O19   O     O_R   0.936210 0.929220 0.078300 -0.592126
C40   C     C_R   0.101926 0.913184 0.104925 1.017961
V4    V     V_3+5 0.828930 0.990510 0.999490 1.182365
O20   O     O_3   0.105680 0.050790 0.002500 -0.266047
N1    N     N_R   0.921979 0.128205 0.236279 0.232873
O21   O     O_R   0.101120 0.147844 0.252347 -0.420332
O22   O     O_R   0.867392 0.053262 0.232773 -0.430598

loop_
_geom_bond_atom_site_label_1
_geom_bond_atom_site_label_2
_geom_bond_distance
_ccdc_geom_bond_type
C34   C35   1.400729 A    
C15   H10   1.084137 S    
C18   H5    1.084184 S    
O12   V3    2.002637 S    
C19   C20   1.396903 A    
C1    O6    1.309575 A    
C23   C24   1.398018 A    
C33   C34   1.407147 A    
C5    C10   1.406269 A    
C16   C20   1.397889 A    
C6    C7    1.408981 A    
C9    C10   1.408974 A    
O5    C3    1.309873 A    
V3    O20   1.706508 S    
O11   C38   1.309573 A    
V2    O10   2.154800 S    
C13   C17   1.396987 A    
O12   C37   1.304780 A    
O13   C40   1.310346 A    
O14   V3    1.991427 S    
C31   C36   1.402274 A    
O8    V2    1.990999 S    
N1    O21   1.300942 A    
C15   C16   1.413842 A    
C35   C36   1.404949 A    
C14   H9    1.082666 S    
O1    V2    2.003252 S    
O7    V1    2.155057 S    
C22   C25   1.405023 A    
C31   H17   1.083532 S    
O9    C4    1.302821 A    
O13   V3    1.988665 S    
C13   H7    1.083743 S    
C22   C24   1.410911 A    
C17   C18   1.412950 A    
C11   C18   1.404250 A    
C31   C32   1.406854 A    
C28   H11   1.084063 S    
C3    C11   1.491332 S    
C29   C30   1.398034 A    
C20   H8    1.083697 S    
C19   H6    1.083324 S    
C9    H4    1.082759 S    
O14   C38   1.289757 A    
O17   V4    1.705916 S    
O4    C2    1.301669 A    
O18   C39   1.302811 A    
C11   C19   1.413038 A    
V4    O20   2.154792 S    
C4    C10   1.490600 S    
O2    C1    1.289754 A    
C13   C14   1.395787 A    
O18   V4    2.004145 S    
C25   C26   1.415178 A    
C23   C27   1.399013 A    
C7    C39   1.490589 S    
C5    H1    1.082746 S    
O15   C39   1.297344 A    
C21   C28   1.405014 A    
O17   V3    2.155014 S    
C22   C38   1.489812 S    
O3    C4    1.297312 A    
O19   V4    1.990937 S    
C26   C27   1.418851 A    
C35   H19   1.083192 S    
O6    V2    1.988560 S    
O9    V2    2.004197 S    
C24   H15   1.083602 S    
C8    C9    1.400765 A    
O2    V1    1.991331 S    
C12   C40   1.492531 S    
O1    C2    1.296786 A    
C12   C15   1.405035 A    
N1    O22   1.300381 A    
O19   C40   1.290276 A    
C32   N1    1.435434 S    
O5    V1    1.988683 S    
O8    C3    1.290232 A    
O16   V4    2.005030 S    
C1    C21   1.489786 S    
C29   H12   1.083603 S    
O11   V4    1.989098 S    
C16   C17   1.418471 A    
C6    H2    1.082759 S    
C12   C14   1.413414 A    
O7    V2    1.706617 S    
O4    V1    2.002702 S    
O3    V1    2.002406 S    
V1    O10   1.706409 S    
C25   H16   1.084060 S    
C37   O16   1.296842 A    
C21   C29   1.410901 A    
C5    C6    1.400815 A    
C33   C37   1.495056 S    
C32   C33   1.423006 A    
C2    C36   1.487094 S    
C34   H18   1.083109 S    
C26   C30   1.399026 A    
C23   H13   1.083675 S    
C27   C28   1.415159 A    
O15   V3    2.002233 S    
C8    H3    1.082746 S    
C7    C8    1.406257 A    
C30   H14   1.083673 S    
