data_mof_unit_57203.cif
_audit_creation_date              2012-12-11T15:55:51-0500
_audit_creation_method            fapswitch 2.2
_symmetry_space_group_name_H-M    P1
_symmetry_Int_Tables_number       1
_space_group_crystal_system       triclinic
_cell_length_a                    6.938467
_cell_length_b                    14.599953
_cell_length_c                    16.088834
_cell_angle_alpha                 89.94314
_cell_angle_beta                  90.13223
_cell_angle_gamma                 90.038769
_cell_volume                      1629.81415897

loop_
_atom_site_label
_atom_site_type_symbol
_atom_type_description
_atom_site_fract_x
_atom_site_fract_y
_atom_site_fract_z
_atom_type_partial_charge
O1    O     O_R   0.505680 0.583900 0.413320 -0.526717
O2    O     O_R   0.176010 0.594950 0.586080 -0.514641
O3    O     O_R   0.005680 0.416100 0.586680 -0.547603
C1    C     C_R   0.345459 0.617048 0.615356 0.816637
O4    O     O_R   0.175960 0.594930 0.413930 -0.511232
O5    O     O_R   0.005640 0.416080 0.413300 -0.547053
C2    C     C_R   0.344782 0.617083 0.385180 0.841339
O6    O     O_R   0.505720 0.583920 0.586700 -0.527048
O7    O     O_3   0.339190 0.441320 0.500000 -0.379799
V1    V     V_3+5 0.064350 0.510890 0.500000 1.695890
O8    O     O_R   0.675920 0.405050 0.413920 -0.525294
C3    C     C_R   0.844574 0.381385 0.386486 0.798187
O9    O     O_R   0.675960 0.405070 0.586070 -0.529719
C4    C     C_R   0.844918 0.382478 0.614464 0.729763
V2    V     V_3+5 0.564340 0.489110 0.500000 1.673926
O10   O     O_3   0.839370 0.558680 0.500000 -0.336832
C5    C     C_R   0.012320 0.313693 0.738601 0.098791
C6    C     C_R   0.853384 0.316636 0.684805 -0.111996
C7    C     C_R   0.702250 0.254525 0.700096 -0.048147
H1    H     H_    0.579441 0.252223 0.658778 0.169736
C8    C     C_R   0.713522 0.190933 0.765913 -0.126002
H2    H     H_    0.600291 0.141613 0.774253 0.184103
C9    C     C_R   0.876847 0.185728 0.817230 -0.060577
C10   C     C_R   0.026518 0.247227 0.801104 0.049356
C11   C     C_3   0.229443 0.225636 0.777968 0.113567
C12   C     C_3   0.218024 0.303283 0.715209 0.138004
H3    H     H_    0.332364 0.236616 0.830028 0.151654
H4    H     H_    0.239012 0.282848 0.649277 0.144753
C13   C     C_R   0.019834 0.252502 0.196801 0.390871
C14   C     C_R   0.007187 0.314412 0.262817 -0.144594
H5    H     H_    0.117062 0.366802 0.268898 0.202842
C15   C     C_R   0.853653 0.311624 0.319240 -0.255797
C16   C     C_R   0.710724 0.243467 0.309542 0.357026
C17   C     C_R   0.720403 0.181154 0.242780 0.371518
C18   C     C_R   0.876921 0.184163 0.185520 -0.286600
C19   C     C_R   0.214962 0.754852 0.693644 0.373347
C20   C     C_R   0.225119 0.817434 0.759584 -0.120712
H6    H     H_    0.114611 0.869476 0.765177 0.176180
C21   C     C_R   0.378693 0.815653 0.816271 -0.134452
C22   C     C_R   0.522241 0.749375 0.806601 -0.144181
H7    H     H_    0.641136 0.746719 0.850300 0.162512
C23   C     C_R   0.512469 0.684269 0.742805 0.193417
C24   C     C_R   0.357619 0.685751 0.684429 -0.175660
C25   C     C_R   0.219749 0.683327 0.250466 0.351533
C26   C     C_R   0.231910 0.746958 0.184758 0.339841
C27   C     C_R   0.381593 0.812946 0.182888 -0.345003
C28   C     C_R   0.521420 0.812380 0.247295 0.370135
C29   C     C_R   0.505360 0.750814 0.314298 0.330661
C30   C     C_R   0.355304 0.685234 0.316287 -0.330907
O11   O     O_R   0.229200 0.915950 0.913350 -0.543966
O12   O     O_R   0.559090 0.905000 0.086080 -0.512508
O13   O     O_R   0.729280 0.083880 0.086680 -0.514898
C31   C     C_R   0.390549 0.882274 0.114606 0.885537
O14   O     O_R   0.558920 0.904980 0.913920 -0.555389
O15   O     O_R   0.729110 0.083860 0.913300 -0.560172
C32   C     C_R   0.389764 0.883291 0.884936 0.731568
O16   O     O_R   0.229360 0.915970 0.086730 -0.515928
O17   O     O_3   0.395680 0.058580 0.000030 -0.363696
V3    V     V_3+5 0.670570 0.989070 0.999990 1.639916
O18   O     O_R   0.058820 0.094950 0.913870 -0.533459
C33   C     C_R   0.889759 0.116457 0.884669 0.709535
O19   O     O_R   0.058990 0.094970 0.086020 -0.510909
C34   C     C_R   0.889743 0.116879 0.115373 0.847416
V4    V     V_3+5 0.170560 0.010930 0.999930 1.667915
O20   O     O_3   0.895590 0.941310 0.999960 -0.362783
Cl1   Cl    Cl    0.532785 0.099163 0.234447 -0.465114
Cl2   Cl    Cl    0.025250 0.770642 0.621835 -0.524838
I1    I     I_    0.737309 0.585058 0.746002 -0.204949
Cl3   Cl    Cl    0.038226 0.597908 0.246557 -0.538230
Cl4   Cl    Cl    0.064589 0.738214 0.101719 -0.511994
Cl5   Cl    Cl    0.719268 0.889132 0.246766 -0.450895
Cl6   Cl    Cl    0.670843 0.760561 0.398055 -0.440714
Cl7   Cl    Cl    0.243757 0.115886 0.727751 -0.656375
Cl8   Cl    Cl    0.350109 0.402565 0.745896 -0.630599
Cl9   Cl    Cl    0.213073 0.268564 0.127176 -0.555852
Cl10  Cl    Cl    0.522382 0.231168 0.383139 -0.523641

loop_
_geom_bond_atom_site_label_1
_geom_bond_atom_site_label_2
_ccdc_geom_bond_type
C25   C30   A    
O15   V3    S    
O11   V4    S    
C4    C6    S    
C7    H1    S    
C1    O6    A    
C17   Cl1   S    
C19   Cl2   S    
C26   C27   A    
O19   C34   A    
C5    C12   S    
C19   C20   A    
C7    C8    A    
C20   H6    S    
C6    C7    A    
O5    C3    A    
C14   H5    S    
V2    O10   S    
C17   C18   A    
O19   V4    S    
O8    V2    S    
C28   C29   A    
C9    C10   A    
O1    V2    S    
O7    V1    S    
C22   C23   A    
O9    C4    A    
C3    C15   S    
C23   I1    S    
C29   Cl6   S    
C11   C12   S    
C16   C17   A    
O14   V3    S    
O17   V4    S    
O14   C32   A    
C5    C10   A    
C10   C11   S    
C2    C30   S    
C21   C22   A    
O4    C2    A    
C31   O16   A    
O17   V3    S    
O11   C32   A    
C15   C16   A    
O18   C33   A    
O12   C31   A    
O2    C1    A    
C13   C14   A    
O13   V3    S    
C16   Cl10  S    
C21   C32   S    
C5    C6    A    
C25   Cl3   S    
C28   Cl5   S    
O3    C4    A    
C22   H7    S    
O6    V2    S    
O9    V2    S    
O12   V3    S    
C23   C24   A    
O2    V1    S    
C25   C26   A    
O16   V4    S    
C27   C28   A    
C29   C30   A    
C26   Cl4   S    
O1    C2    A    
O13   C34   A    
O5    V1    S    
O8    C3    A    
C13   Cl9   S    
C1    C24   S    
C11   H3    S    
C13   C18   A    
C12   H4    S    
O18   V4    S    
V4    O20   S    
C8    C9    A    
O7    V2    S    
O4    V1    S    
C20   C21   A    
O3    V1    S    
V1    O10   S    
V3    O20   S    
C14   C15   A    
O15   C33   A    
C27   C31   S    
C12   Cl8   S    
C11   Cl7   S    
C9    C33   S    
C19   C24   A    
C18   C34   S    
C8    H2    S    
