data_mof_unit_64559.cif
_audit_creation_date              2012-12-10T18:41:17-0500
_audit_creation_method            fapswitch 2.2
_symmetry_space_group_name_H-M    P1
_symmetry_Int_Tables_number       1
_space_group_crystal_system       triclinic
_cell_length_a                    15.132554
_cell_length_b                    13.894135
_cell_length_c                    10.89811
_cell_angle_alpha                 90.183842
_cell_angle_beta                  92.263501
_cell_angle_gamma                 90.735199
_cell_volume                      2289.37633479

loop_
_atom_site_label
_atom_site_type_symbol
_atom_type_description
_atom_site_fract_x
_atom_site_fract_y
_atom_site_fract_z
_atom_type_partial_charge
C1    C     C_R   0.330339 0.499260 0.497805 0.870992
C2    C     C_R   0.451456 0.103813 0.410220 0.252890
C3    C     C_R   0.552245 0.208282 0.584722 0.201858
C4    C     C_R   0.447821 0.206312 0.415478 0.203369
C5    C     C_R   0.499998 0.053415 0.500198 0.016747
C6    C     C_R   0.426996 0.891309 0.540946 0.104753
C7    C     C_R   0.572872 0.893179 0.459070 0.110242
C8    C     C_R   0.428636 0.789958 0.539783 0.061545
C9    C     C_R   0.571024 0.791783 0.459598 0.067057
C10   C     C_R   0.499993 0.944834 0.500206 0.134493
C11   C     C_R   0.500854 0.500077 0.262680 0.836241
C12   C     C_R   0.670624 0.500630 0.502294 0.870844
C13   C     C_R   0.498277 0.500245 0.737334 0.826102
C14   C     C_R   0.496237 0.584918 0.062598 -0.000626
C15   C     C_R   0.493731 0.585013 0.938237 -0.006067
C16   C     C_R   0.500393 0.499978 0.130083 -0.064356
C17   C     C_R   0.496517 0.500178 0.869965 -0.070816
C18   C     C_R   0.501737 0.412606 0.064052 -0.152155
C19   C     C_R   0.499918 0.412714 0.935390 -0.152329
C20   C     C_3   0.484868 0.691974 0.929880 0.201746
C21   C     C_3   0.498115 0.692360 0.072682 0.204868
C22   C     C_R   0.093342 0.503732 0.381570 0.392241
C23   C     C_R   0.192068 0.475196 0.602178 -0.184027
C24   C     C_R   0.913830 0.574904 0.536434 0.407524
C25   C     C_R   0.185671 0.508530 0.383351 0.173212
C26   C     C_R   0.821723 0.579183 0.542342 0.170952
C27   C     C_R   0.234507 0.496375 0.494192 -0.252572
C28   C     C_R   0.768146 0.500212 0.501789 -0.275998
C29   C     C_R   0.808581 0.416576 0.460042 -0.168158
C30   C     C_R   0.100420 0.468086 0.602941 0.454669
C31   C     C_R   0.899937 0.409428 0.457468 0.414734
C32   C     C_R   0.050144 0.484244 0.492372 -0.222445
C33   C     C_R   0.953331 0.489389 0.495011 -0.212373
C34   C     C_R   0.548575 0.105691 0.590091 0.256414
Cu1   Cu    Cu3+1 0.500000 0.596430 0.500000 1.020482
Cu2   Cu    Cu3+1 0.500000 0.403570 0.500000 1.014163
H1    H     H_    0.504721 0.344164 0.111144 0.181112
H2    H     H_    0.998675 0.324613 0.423302 0.354028
H3    H     H_    0.596394 0.092291 0.756732 0.359106
H4    H     H_    0.403332 0.088261 0.243693 0.358535
H5    H     H_    0.501310 0.344266 0.887869 0.183594
H6    H     H_    0.372243 0.750343 0.571582 0.174651
H7    H     H_    0.626871 0.753394 0.426657 0.177122
H8    H     H_    0.230636 0.463847 0.686774 0.186857
H9    H     H_    0.768832 0.355150 0.428806 0.214471
H10   H     H_    0.983954 0.513608 0.279106 0.349712
H11   H     H_    0.025152 0.649682 0.552367 0.349907
H12   H     H_    0.999217 0.434114 0.701365 0.350772
I1    I     I_    0.313539 0.958904 0.607768 -0.163074
I2    I     I_    0.350704 0.271728 0.296062 -0.234959
I3    I     I_    0.686524 0.963766 0.392964 -0.144656
I4    I     I_    0.582473 0.766345 0.826828 -0.156596
I5    I     I_    0.396477 0.756028 0.178243 -0.150974
I6    I     I_    0.354605 0.722866 0.854634 -0.214237
I7    I     I_    0.626478 0.736142 0.147062 -0.230393
I8    I     I_    0.248980 0.530834 0.214673 -0.141417
I9    I     I_    0.771833 0.706709 0.621765 -0.115211
I10   I     I_    0.649514 0.276901 0.704918 -0.260834
N1    N     N_R   0.500000 0.258690 0.500000 -0.239416
N2    N     N_R   0.500000 0.741330 0.500000 -0.207419
O1    O     O_R   0.371460 0.581430 0.500010 -0.580202
O2    O     O_3   0.962626 0.655627 0.573704 -0.645262
O3    O     O_3   0.063340 0.447044 0.713801 -0.657452
O4    O     O_3   0.933347 0.323266 0.416965 -0.663914
O5    O     O_3   0.593872 0.054121 0.679943 -0.658691
O6    O     O_3   0.406149 0.050475 0.320415 -0.662401
O7    O     O_R   0.628540 0.581430 0.499990 -0.575238
O8    O     O_R   0.371470 0.418560 0.500010 -0.550631
O9    O     O_R   0.628530 0.418560 0.499990 -0.564764
O10   O     O_R   0.499990 0.581450 0.319660 -0.562552
O11   O     O_R   0.500010 0.581450 0.680340 -0.562037
O12   O     O_R   0.500010 0.418580 0.319660 -0.578532
O13   O     O_R   0.499990 0.418580 0.680340 -0.577074
O14   O     O_3   0.048500 0.519688 0.270452 -0.648149

loop_
_geom_bond_atom_site_label_1
_geom_bond_atom_site_label_2
_ccdc_geom_bond_type
C7    C10   A    
C30   C32   A    
C12   O9    A    
Cu1   Cu2   S    
C25   I8    S    
Cu2   N1    S    
H11   O2    S    
C11   O10   A    
C22   C32   A    
C12   C28   S    
C14   C21   S    
C28   C29   A    
C18   H1    S    
C8    H6    S    
C1    O8    A    
C7    C9    A    
C18   C19   A    
Cu1   O10   S    
C22   C25   A    
C31   C33   A    
C23   C27   A    
Cu1   O11   S    
H4    O6    S    
C30   O3    S    
H3    O5    S    
C34   O5    S    
H2    O4    S    
C15   C20   S    
C12   O7    A    
C9    H7    S    
C23   C30   A    
C20   I6    S    
C21   I7    S    
C11   O12   A    
H12   O3    S    
C6    C8    A    
C13   O11   A    
C3    C34   A    
C23   H8    S    
C29   H9    S    
Cu1   N2    S    
C2    C4    A    
C11   C16   S    
Cu1   O7    S    
C5    C34   A    
Cu1   O1    S    
C16   C18   A    
C13   O13   A    
C14   C16   A    
C2    C5    A    
C22   O14   S    
H10   O14   S    
Cu2   O9    S    
C15   C17   A    
C24   O2    S    
C31   O4    S    
C24   C26   A    
C2    O6    S    
C1    O1    A    
C6    C10   A    
Cu2   O8    S    
C25   C27   A    
C26   C28   A    
C24   C33   A    
C13   C17   S    
C9    N2    A    
C32   C33   S    
C7    I3    S    
C5    C10   S    
C20   I4    S    
C8    N2    A    
C21   I5    S    
C4    N1    A    
C17   C19   A    
C6    I1    S    
C26   I9    S    
Cu2   O13   S    
C3    I10   S    
C19   H5    S    
C20   C21   S    
C29   C31   A    
C4    I2    S    
C1    C27   S    
C14   C15   A    
Cu2   O12   S    
C3    N1    A    
