data_mof_unit_52548.cif
_audit_creation_date              2012-10-26T20:16:24-0400
_audit_creation_method            fapswitch 2.2
_symmetry_space_group_name_H-M    P1
_symmetry_Int_Tables_number       1
_space_group_crystal_system       triclinic
_cell_length_a                    10.779915
_cell_length_b                    15.85073
_cell_length_c                    17.088848
_cell_angle_alpha                 95.469571
_cell_angle_beta                  91.644963
_cell_angle_gamma                 92.771594
_cell_volume                      2901.63825506

loop_
_atom_site_label
_atom_site_type_symbol
_atom_type_description
_atom_site_fract_x
_atom_site_fract_y
_atom_site_fract_z
_atom_type_partial_charge
C1    C     C_R   0.497617 0.490369 0.348247 0.588301
C2    C     C_R   0.523537 0.473313 0.096546 0.191485
C3    C     C_R   0.560466 0.407432 0.139521 0.112172
C4    C     C_R   0.262567 0.500102 0.503116 0.542241
C5    C     C_R   0.549406 0.413889 0.221068 -0.173365
C6    C     C_R   0.605639 0.509545 0.861296 0.152915
C7    C     C_R   0.608226 0.508101 0.779615 -0.065623
C8    C     C_R   0.490456 0.515085 0.898511 0.233095
C9    C     C_R   0.498172 0.513461 0.735554 0.024734
C10   C     C_R   0.384984 0.521105 0.772500 -0.105575
C11   C     C_R   0.381500 0.522409 0.853783 -0.056472
C12   C     C_R   0.065140 0.454214 0.564196 -0.023988
C13   C     C_R   0.418813 0.749261 0.473875 0.040192
C14   C     C_R   0.415045 0.838370 0.473292 -0.091693
C15   C     C_R   0.511175 0.891531 0.511158 0.170247
C16   C     C_R   0.500798 0.509707 0.650783 0.550566
C17   C     C_R   0.606198 0.853416 0.548457 -0.080519
C18   C     C_R   0.608816 0.764896 0.548755 0.376201
C19   C     C_R   0.549417 0.155643 0.532626 -0.105662
C20   C     C_R   0.560875 0.244744 0.535759 0.038269
C21   C     C_R   0.457938 0.109270 0.482323 0.219023
C22   C     C_R   0.396163 0.244838 0.441549 0.045224
C23   C     C_R   0.129104 0.500482 0.509482 0.021168
C24   C     C_R   0.380862 0.155861 0.436660 0.073283
C25   C     C_R   0.737625 0.500076 0.503555 0.538713
C26   C     C_R   0.128617 0.411053 0.620311 -0.161366
C27   C     C_R   0.065094 0.364321 0.673502 0.214210
C28   C     C_R   0.933772 0.363149 0.673219 0.253196
C29   C     C_R   0.870616 0.409221 0.619838 -0.151671
C30   C     C_R   0.934391 0.453777 0.564183 -0.030169
C31   C     C_R   0.064972 0.548439 0.459008 -0.114193
C32   C     C_R   0.937286 0.547670 0.458498 -0.089015
C33   C     C_R   0.871551 0.500024 0.509486 0.030793
C34   C     C_R   0.501593 0.486149 0.261527 -0.027149
C35   C     C_R   0.463238 0.552871 0.217974 0.229260
C36   C     C_R   0.476968 0.546111 0.136885 -0.075836
Cu1   Cu    Cu3+1 0.493970 0.415220 0.496180 0.970905
Cu2   Cu    Cu3+1 0.506030 0.584780 0.503820 1.104921
H1    H     H_    0.113753 0.585090 0.418335 0.156777
H2    H     H_    0.228788 0.414473 0.624209 0.165326
H3    H     H_    0.337777 0.864772 0.443866 0.169489
H4    H     H_    0.343537 0.709963 0.444996 0.179854
H5    H     H_    0.770909 0.410430 0.622786 0.160843
H6    H     H_    0.889199 0.583355 0.416982 0.160194
H7    H     H_    0.696048 0.503962 0.750560 0.145355
H8    H     H_    0.221560 0.660197 0.321810 0.355210
H9    H     H_    0.804012 0.629675 0.662773 0.352179
H10   H     H_    0.300170 0.269631 0.662635 0.346126
H11   H     H_    0.845076 0.286593 0.860291 0.394143
H12   H     H_    0.580073 0.362402 0.252981 0.169187
H13   H     H_    0.299699 0.525932 0.738484 0.126992
H14   H     H_    0.449901 0.598238 0.104799 0.200329
H15   H     H_    0.293506 0.528883 0.882257 0.174198
H16   H     H_    0.630280 0.279387 0.574823 0.174784
H17   H     H_    0.611527 0.123836 0.569633 0.174611
H18   H     H_    0.680729 0.894481 0.576938 0.181897
H19   H     H_    0.335986 0.279921 0.406280 0.160570
I1    I     I_    0.240168 0.094454 0.359619 -0.219082
I2    I     I_    0.779033 0.511120 0.923673 -0.149192
I3    I     I_    0.633810 0.296826 0.083058 -0.152382
N1    N     N_2   0.533212 0.464973 0.013282 -0.146414
N2    N     N_2   0.481298 0.521666 0.980841 -0.234028
N3    N     N_R   0.515100 0.712130 0.509560 -0.242434
N4    N     N_2   0.519602 0.982579 0.515343 -0.216834
N5    N     N_2   0.441395 0.017889 0.475925 -0.172854
N6    N     N_R   0.484890 0.287850 0.490450 -0.257457
O1    O     O_R   0.494360 0.420530 0.382500 -0.516543
O2    O     O_2   0.333272 0.690618 0.196635 -0.258873
O3    O     O_3   0.280723 0.614186 0.319886 -0.553481
O4    O     O_2   0.838835 0.711424 0.535963 -0.289852
O5    O     O_2   0.798487 0.802514 0.654014 -0.257247
O6    O     O_3   0.720013 0.647202 0.648448 -0.502931
O7    O     O_2   0.154953 0.359911 0.820345 -0.188064
O8    O     O_2   0.104137 0.222673 0.745444 -0.167084
O9    O     O_3   0.303800 0.307813 0.712141 -0.495448
O10   O     O_2   0.710578 0.327096 0.733458 -0.311381
O11   O     O_2   0.849769 0.210940 0.709712 -0.219463
O12   O     O_R   0.504550 0.563720 0.388950 -0.423405
O13   O     O_3   0.899727 0.322134 0.829615 -0.415418
O14   O     O_R   0.314550 0.428390 0.496780 -0.518206
O15   O     O_R   0.324740 0.571580 0.503230 -0.511638
O16   O     O_R   0.495450 0.436280 0.611050 -0.495635
O17   O     O_R   0.505640 0.579470 0.617500 -0.448470
O18   O     O_R   0.675260 0.428420 0.496770 -0.524310
O19   O     O_R   0.685450 0.571610 0.503220 -0.431032
O20   O     O_2   0.487790 0.702600 0.305123 -0.249323
S1    S     S_3+6 0.391689 0.644099 0.259811 0.031451
S2    S     S_3+6 0.744299 0.731128 0.597066 0.063454
S3    S     S_3+6 0.155678 0.311669 0.740323 0.091922
S4    S     S_3+6 0.844020 0.303750 0.736371 0.064773

loop_
_geom_bond_atom_site_label_1
_geom_bond_atom_site_label_2
_ccdc_geom_bond_type
Cu2   O17   S    
C35   C36   A    
O4    S2    D    
C22   H19   S    
C12   C23   A    
C26   C27   A    
Cu1   Cu2   S    
C7    H7    S    
O8    S3    D    
C20   N6    A    
C28   C29   A    
C19   C21   A    
C9    C16   S    
C4    O14   A    
C18   N3    A    
C2    C36   A    
C7    C9    A    
C34   C35   A    
C22   N6    A    
O13   S4    S    
C35   S1    S    
C4    O15   A    
C19   C20   A    
H8    O3    S    
C25   O18   A    
C15   N4    S    
Cu1   O18   S    
C9    C10   A    
C36   H14   S    
C2    N1    S    
C12   C30   A    
C3    I3    S    
C13   C14   A    
Cu1   N6    S    
C1    O12   A    
H10   O9    S    
C11   H15   S    
C10   H13   S    
C16   O16   A    
C13   H4    S    
O6    S2    S    
C1    C34   S    
Cu1   O14   S    
O11   S4    D    
Cu2   O19   S    
C20   H16   S    
C4    C23   S    
O20   S1    D    
C6    C8    A    
Cu2   O12   S    
C16   O17   A    
C18   S2    S    
H11   O13   S    
C12   C26   A    
C23   C31   A    
C29   C30   A    
C31   C32   A    
C13   N3    A    
C5    C34   A    
C25   O19   A    
C17   C18   A    
C32   H6    S    
C17   H18   S    
C14   H3    S    
Cu2   O15   S    
C22   C24   A    
Cu1   O16   S    
O10   S4    D    
Cu2   N3    S    
C19   H17   S    
C15   C17   A    
C30   C33   A    
C21   N5    S    
C6    I2    S    
C3    C5    A    
O3    S1    S    
C6    C7    A    
C32   C33   A    
C2    C3    A    
O7    S3    D    
N4    N5    D    
C26   H2    S    
C8    C11   A    
Cu1   O1    S    
C1    O1    A    
C31   H1    S    
C27   S3    S    
N1    N2    D    
C5    H12   S    
H9    O6    S    
C10   C11   A    
O9    S3    S    
O5    S2    D    
C24   I1    S    
C21   C24   A    
C8    N2    S    
C27   C28   A    
O2    S1    D    
C14   C15   A    
C28   S4    S    
C29   H5    S    
C25   C33   S    
