data_mof_unit_5149.cif
_audit_creation_date              2013-03-05T15:45:31-0500
_audit_creation_method            fapswitch 2.2
_symmetry_space_group_name_H-M    P1
_symmetry_Int_Tables_number       1
_space_group_crystal_system       triclinic
_cell_length_a                    11.570556
_cell_length_b                    11.217442
_cell_length_c                    18.83673
_cell_angle_alpha                 89.237382
_cell_angle_beta                  88.64959
_cell_angle_gamma                 60.231379
_cell_volume                      2121.63503255

loop_
_atom_site_label
_atom_site_type_symbol
_atom_site_description
_atom_site_fract_x
_atom_site_fract_y
_atom_site_fract_z
_atom_type_partial_charge
O1    O     O_R   0.507430 0.255570 0.581420 -0.428185
O2    O     O_R   0.280190 0.527390 0.578910 -0.424874
C1    C     C_R   0.241607 0.647744 0.610728 0.656524
O3    O     O_R   0.260310 0.739740 0.584580 -0.436923
O4    O     O_R   0.532250 0.695150 0.573830 -0.418368
C2    C     C_R   0.651581 0.614578 0.601901 0.654516
O5    O     O_R   0.744930 0.503430 0.576380 -0.409339
O6    O     O_R   0.699250 0.276390 0.571950 -0.413889
C3    C     C_R   0.616395 0.241896 0.605501 0.636582
O7    O     O_R   0.499020 0.256400 0.419850 -0.460065
O8    O     O_R   0.272400 0.528160 0.429140 -0.478481
C4    C     C_R   0.230786 0.646633 0.398862 0.584095
O9    O     O_R   0.251910 0.740570 0.423020 -0.450159
O10   O     O_R   0.524460 0.695920 0.424060 -0.473215
C5    C     C_R   0.641436 0.618367 0.391545 0.586191
O11   O     O_R   0.736530 0.504260 0.414810 -0.439852
O12   O     O_R   0.691460 0.277160 0.422180 -0.453799
C6    C     C_R   0.610113 0.240721 0.394276 0.577632
Cr1   Cr    Cr6+3 0.392930 0.397900 0.502230 1.238611
Cr2   Cr    Cr6+3 0.398240 0.708600 0.501260 1.245202
Cr3   Cr    Cr6+3 0.708800 0.393470 0.496460 1.260135
O13   O     O_3   0.499990 0.499990 0.499980 -0.411016
C7    C     C_3   0.610823 0.821013 0.773428 0.373735
C8    C     C_3   0.584750 0.792331 0.695990 0.308669
C9    C     C_3   0.857243 0.629834 0.761223 0.281334
C10   C     C_3   0.666306 0.573375 0.807397 0.378460
C11   C     C_3   0.718543 0.680074 0.808416 -0.095591
C12   C     C_3   0.686473 0.636602 0.674391 -0.139811
C13   C     C_3   0.836652 0.608872 0.677039 0.307984
C14   C     C_3   0.676452 0.524695 0.728433 0.286670
C15   C     C_R   0.764129 0.125425 0.705885 0.309165
C16   C     C_R   0.785795 0.122935 0.778822 0.276157
C17   C     C_R   0.679616 0.177443 0.828427 0.044021
C18   C     C_R   0.549500 0.246180 0.801595 0.264828
C19   C     C_R   0.530848 0.235150 0.728946 0.262103
C20   C     C_R   0.637878 0.197231 0.680634 0.033518
C21   C     C_R   0.205991 0.568828 0.726953 0.228386
C22   C     C_R   0.196015 0.572317 0.799599 -0.039615
H1    H     H_    0.183303 0.495405 0.827183 0.257063
C23   C     C_R   0.188005 0.679180 0.837345 0.025076
C24   C     C_R   0.199921 0.783505 0.800419 0.320567
C25   C     C_R   0.184600 0.797704 0.725014 0.243507
C26   C     C_R   0.200890 0.676910 0.687095 0.053996
C27   C     C_R   0.726151 0.527811 0.270286 0.136911
C28   C     C_R   0.708721 0.545466 0.197564 0.215284
C29   C     C_R   0.650175 0.677588 0.169013 0.016344
C30   C     C_R   0.582589 0.794357 0.214709 0.224862
C31   C     C_R   0.593124 0.777741 0.289190 0.197551
C32   C     C_R   0.660304 0.643556 0.316627 -0.059142
C33   C     C_R   0.544940 0.300271 0.272236 -0.095525
H2    H     H_    0.470134 0.402001 0.289746 0.106614
C34   C     C_R   0.557709 0.268651 0.200463 0.245255
C35   C     C_R   0.656549 0.139132 0.178456 0.053028
C36   C     C_R   0.738045 0.040332 0.228583 0.196289
C37   C     C_R   0.725465 0.070450 0.300799 0.237971
C38   C     C_R   0.630159 0.202143 0.321493 0.006922
C39   C     C_R   0.220512 0.741547 0.278224 0.149801
C40   C     C_R   0.233338 0.715942 0.205274 0.222592
C41   C     C_R   0.170388 0.648527 0.176785 0.050431
C42   C     C_R   0.142257 0.563096 0.221582 0.229860
C43   C     C_R   0.155440 0.566472 0.295243 0.169321
C44   C     C_R   0.189430 0.660227 0.324332 -0.048499
O14   O     O_R   0.089490 0.825610 0.930610 -0.425976
O15   O     O_R   0.818370 0.054540 0.929880 -0.436286
C45   C     C_R   0.700126 0.106900 0.898682 0.633254
O16   O     O_R   0.605870 0.077310 0.915530 -0.410193
O17   O     O_R   0.646440 0.806700 0.917570 -0.423092
C46   C     C_R   0.739115 0.698238 0.884711 0.677748
O18   O     O_R   0.837200 0.593290 0.915250 -0.406328
O19   O     O_R   0.065330 0.635370 0.931590 -0.472542
C47   C     C_R   0.122988 0.705789 0.908513 0.621572
O20   O     O_R   0.068300 0.828790 0.091860 -0.416475
O21   O     O_R   0.798730 0.057480 0.079370 -0.462996
C48   C     C_R   0.676947 0.100281 0.104191 0.616088
O22   O     O_R   0.584680 0.080480 0.076790 -0.429031
O23   O     O_R   0.626790 0.809640 0.067050 -0.450118
C49   C     C_R   0.696589 0.691671 0.097506 0.634736
O24   O     O_R   0.816010 0.596460 0.076500 -0.422871
O25   O     O_R   0.045680 0.638310 0.081070 -0.457962
C50   C     C_R   0.098206 0.703985 0.109888 0.650961
Cr4   Cr    Cr6+3 0.937620 0.938540 0.007640 1.268049
Cr5   Cr    Cr6+3 0.625150 0.937450 0.994520 1.271908
Cr6   Cr    Cr6+3 0.937990 0.625080 0.001190 1.252822
O26   O     O_3   0.833590 0.833690 0.001120 -0.371476
Cl1   Cl    Cl    0.663711 0.938381 0.777236 -0.498123
N1    N     N_R   0.791189 0.382463 0.719290 0.098846
O27   O     O_R   0.881898 0.315936 0.765721 -0.139037
O28   O     O_R   0.812363 0.319326 0.660023 -0.230908
Cl2   Cl    Cl    0.983749 0.471578 0.799043 -0.338172
Cl3   Cl    Cl    0.962036 0.438700 0.645713 -0.213433
Cl4   Cl    Cl    0.884986 0.022447 0.643479 -0.301590
Cl5   Cl    Cl    0.944422 0.045371 0.808024 -0.353435
Cl6   Cl    Cl    0.412198 0.310485 0.860887 -0.431611
Cl7   Cl    Cl    0.422441 0.173195 0.709290 -0.225495
Cl8   Cl    Cl    0.200558 0.435757 0.687721 -0.307840
Cl9   Cl    Cl    0.228807 0.898645 0.851621 -0.233161
Cl10  Cl    Cl    0.460925 0.934184 0.823129 -0.201720
N2    N     N_R   0.156800 0.930638 0.691552 0.185702
O29   O     O_R   0.136010 0.959287 0.624509 -0.163649
O30   O     O_R   0.158553 0.027309 0.728063 -0.066265
N3    N     N_R   0.824502 0.394637 0.295626 0.146517
O31   O     O_R   0.817783 0.285587 0.280841 -0.271752
O32   O     O_R   0.934319 0.379150 0.321409 -0.139551
Cl11  Cl    Cl    0.769097 0.399598 0.141357 -0.373554
Cl12  Cl    Cl    0.481324 0.961077 0.179905 -0.349364
N4    N     N_R   0.546991 0.894164 0.337039 0.116425
O33   O     O_R   0.608992 0.881594 0.395840 -0.235123
O34   O     O_R   0.445623 0.013787 0.322796 -0.173631
Cl13  Cl    Cl    0.457277 0.394062 0.138591 -0.501636
N5    N     N_R   0.850735 0.918177 0.205448 0.075197
O35   O     O_R   0.965208 0.902951 0.221754 -0.292219
O36   O     O_R   0.839597 0.813210 0.186909 -0.376165
N6    N     N_R   0.810778 0.968136 0.351651 0.138710
O37   O     O_R   0.855867 0.001866 0.405921 -0.211028
O38   O     O_R   0.850011 0.838801 0.341910 -0.226024
N7    N     N_R   0.213672 0.865278 0.303386 0.152296
O39   O     O_R   0.303361 0.897061 0.284609 -0.207247
O40   O     O_R   0.107614 0.955629 0.337598 -0.153833
Cl14  Cl    Cl    0.426050 0.810361 0.698859 -0.393010
Cl15  Cl    Cl    0.306785 0.787838 0.148339 -0.388051
Cl16  Cl    Cl    0.086845 0.453565 0.188201 -0.325685
N8    N     N_R   0.126539 0.480354 0.340522 0.139265
O41   O     O_R   0.037804 0.534135 0.391509 -0.197790
O42   O     O_R   0.197788 0.347401 0.335132 -0.176034
N9    N     N_R   0.577069 0.894753 0.641545 0.165170
O43   O     O_R   0.664143 0.935577 0.636411 -0.227913
O44   O     O_R   0.478754 0.950416 0.597385 -0.153643
N10   N     N_R   0.909149 0.724951 0.772858 0.076455
O45   O     O_R   0.907466 0.768785 0.836211 -0.355478
O46   O     O_R   0.926231 0.793802 0.722518 -0.257584
N11   N     N_R   0.862199 0.691004 0.621957 0.171252
O47   O     O_R   0.982454 0.670558 0.613479 -0.203886
O48   O     O_R   0.795920 0.724692 0.563196 -0.222422
Cl17  Cl    Cl    0.732006 0.437295 0.873926 -0.350000
Cl18  Cl    Cl    0.503157 0.645879 0.845220 -0.391943
Cl19  Cl    Cl    0.533684 0.507525 0.708065 -0.626042

loop_
_geom_bond_atom_site_label_1
_geom_bond_atom_site_label_2
_geom_bond_distance
_ccdc_geom_bond_type
C27   C32   1.429940 A    
O25   Cr6   2.028944 S    
C37   C38   1.388423 A    
O11   Cr3   2.082010 S    
C23   C47   1.480642 S    
O21   C48   1.318254 A    
C19   C20   1.406013 A    
C18   Cl6   1.758252 S    
N10   O45   1.292777 A    
C17   C45   1.494741 S    
C39   C44   1.416236 A    
O4    Cr2   2.039064 S    
C13   N11   1.497754 S    
C35   C36   1.409042 A    
C34   C35   1.390812 A    
C1    C26   1.491913 S    
C10   C11   1.586744 S    
N3    O31   1.297889 A    
O14   Cr4   2.125151 S    
O18   Cr6   2.150604 S    
C12   C13   1.607985 S    
C9    N10   1.481864 S    
C25   N2    1.494199 S    
O4    C2    1.336187 A    
N1    O28   1.282122 A    
C24   Cl9   1.785260 S    
N4    O33   1.301622 A    
C5    O11   1.284665 A    
N2    O29   1.297206 A    
N7    O39   1.294555 A    
C36   N5    1.408056 S    
C18   C19   1.406954 A    
C24   C25   1.432496 A    
N5    O35   1.292666 A    
C11   C46   1.495211 S    
C36   C37   1.392781 A    
O24   Cr6   2.109716 S    
C31   N4    1.455773 S    
Cr6   O26   2.031792 S    
N7    O40   1.301337 A    
O6    C3    1.342195 A    
C30   Cl12  1.768570 S    
C3    C20   1.479789 S    
C33   C34   1.388081 A    
C7    C8    1.565843 S    
O19   C47   1.326085 A    
C10   Cl18  1.777661 S    
C7    C11   1.594237 S    
C14   N1    1.493628 S    
O20   Cr4   2.128680 S    
C6    C38   1.421916 S    
C41   C42   1.418324 A    
N3    O32   1.299318 A    
Cr3   O13   2.096976 S    
C42   Cl16  1.771402 S    
O21   Cr4   2.001207 S    
C13   Cl3   1.826604 S    
O6    Cr3   1.961148 S    
C39   N7    1.436652 S    
N5    O36   1.299507 A    
C9    C13   1.646203 S    
C22   H1    1.070715 S    
C2    C12   1.490819 S    
O1    Cr1   2.111567 S    
C48   O22   1.311478 A    
O17   C46   1.306321 A    
O10   Cr2   1.991712 S    
Cr1   O13   2.062191 S    
O1    C3    1.285278 A    
O23   C49   1.293409 A    
O23   Cr5   1.960741 S    
N1    O27   1.292877 A    
C46   O18   1.300334 A    
C37   N6    1.448960 S    
C33   H2    1.084409 S    
C40   C41   1.402338 A    
C49   O24   1.313994 A    
C33   C38   1.408167 A    
C42   C43   1.402502 A    
C21   C26   1.394246 A    
C21   C22   1.370003 A    
C10   Cl17  1.822141 S    
C28   Cl11  1.778349 S    
O16   Cr5   2.081101 S    
C4    C44   1.475360 S    
C30   C31   1.412980 A    
O7    Cr1   2.115476 S    
C27   N3    1.439790 S    
O8    Cr1   1.997231 S    
C40   Cl15  1.771277 S    
O12   C6    1.319215 A    
O19   Cr6   1.994201 S    
C31   C32   1.404769 A    
C7    Cl10  1.806921 S    
Cr2   O13   2.031512 S    
C10   C14   1.572939 S    
Cr5   O26   2.099909 S    
N9    O43   1.298646 A    
C25   C26   1.465459 A    
N8    O42   1.301307 A    
C1    O3    1.248021 A    
Cr4   O26   2.064914 S    
C27   C28   1.386542 A    
N6    O37   1.300695 A    
C19   Cl7   1.757211 S    
C29   C30   1.431542 A    
C23   C24   1.416462 A    
C8    Cl14  1.744261 S    
O9    Cr2   2.160533 S    
O2    Cr1   1.995827 S    
C15   C20   1.364952 A    
C9    Cl2   1.799088 S    
C15   C16   1.399821 A    
C8    C12   1.599093 S    
C15   Cl4   1.739640 S    
O14   C47   1.272800 A    
N11   O48   1.302740 A    
N10   O46   1.287622 A    
C41   C50   1.478256 S    
C29   C49   1.473812 S    
O8    C4    1.296384 A    
O22   Cr5   2.116834 S    
C2    O5    1.267464 A    
C9    C11   1.652676 S    
N2    O30   1.300651 A    
C16   C17   1.404081 A    
C12   C14   1.652418 S    
O2    C1    1.338520 A    
N8    O41   1.301678 A    
O20   C50   1.306473 A    
O5    Cr3   2.133932 S    
O15   C45   1.338998 A    
C14   Cl19  1.805785 S    
C22   C23   1.363934 A    
C39   C40   1.396909 A    
C16   Cl5   1.696291 S    
N4    O34   1.300256 A    
C34   Cl13  1.756302 S    
O7    C6    1.289906 A    
C17   C18   1.410441 A    
C5    C32   1.468035 S    
C43   C44   1.413223 A    
O12   Cr3   2.005490 S    
O15   Cr4   2.001039 S    
C21   Cl8   1.703831 S    
O25   C50   1.295210 A    
O3    Cr2   2.115473 S    
C28   C29   1.394163 A    
C4    O9    1.284888 A    
O17   Cr5   1.998457 S    
C45   O16   1.319335 A    
C7    Cl1   1.708100 S    
N9    O44   1.304341 A    
O10   C5    1.330319 A    
C43   N8    1.434533 S    
C8    N9    1.500417 S    
N11   O47   1.299139 A    
N6    O38   1.301445 A    
C35   C48   1.449517 S    
