data_mof_unit_66278.cif
_audit_creation_date              2012-12-10T19:21:06-0500
_audit_creation_method            fapswitch 2.2
_symmetry_space_group_name_H-M    P1
_symmetry_Int_Tables_number       1
_space_group_crystal_system       monoclinic
_cell_length_a                    25.828564
_cell_length_b                    34.553222
_cell_length_c                    21.630171
_cell_angle_alpha                 90.0
_cell_angle_beta                  126.925724
_cell_angle_gamma                 90.0
_cell_volume                      15431.959039

loop_
_atom_site_label
_atom_site_type_symbol
_atom_type_description
_atom_site_fract_x
_atom_site_fract_y
_atom_site_fract_z
_atom_type_partial_charge
Br1   Br    Br    0.744520 0.221225 0.707925 -0.466258
Br2   Br    Br    0.255711 0.778124 0.291996 -0.468441
Br3   Br    Br    0.178706 0.166981 0.290722 -0.494649
Br4   Br    Br    0.821687 0.833076 0.709255 -0.483044
Br5   Br    Br    0.321243 0.666989 0.709273 -0.494216
Br6   Br    Br    0.678250 0.333086 0.290739 -0.483515
Br7   Br    Br    0.755495 0.721269 0.292065 -0.465769
Br8   Br    Br    0.244300 0.278160 0.707995 -0.468929
C1    C     C_R   0.999997 0.021609 0.000046 0.104699
C2    C     C_R   0.603278 0.368292 0.920391 -0.122372
C3    C     C_R   0.374804 0.236822 0.664810 -0.225662
C4    C     C_R   0.850696 0.250141 0.704556 -0.081718
C5    C     C_R   0.149307 0.749826 0.295434 -0.081240
C6    C     C_R   0.147330 0.248742 0.295309 -0.076583
C7    C     C_R   0.852668 0.751236 0.704696 -0.078135
C8    C     C_R   0.352673 0.748738 0.704689 -0.077494
C9    C     C_R   0.647334 0.251233 0.295301 -0.077222
C10   C     C_R   0.649303 0.750140 0.295442 -0.081772
C11   C     C_R   0.350693 0.249826 0.704565 -0.081190
C12   C     C_R   0.785914 0.236794 0.661884 0.272208
C13   C     C_R   0.605609 0.631126 0.935456 -0.114054
C14   C     C_R   0.214212 0.762931 0.338095 0.272885
C15   C     C_R   0.184478 0.215700 0.337616 0.273201
C16   C     C_R   0.815670 0.784310 0.662375 0.271870
C17   C     C_R   0.315504 0.715702 0.662382 0.273159
C18   C     C_R   0.684307 0.284313 0.337622 0.271905
C19   C     C_R   0.714094 0.736812 0.338112 0.272293
C20   C     C_R   0.285796 0.262946 0.661901 0.272793
C21   C     C_R   0.747530 0.236184 0.581397 -0.194762
C22   C     C_R   0.252619 0.763538 0.418584 -0.194533
C23   C     C_R   0.225758 0.217011 0.418138 -0.190467
C24   C     C_R   0.396875 0.368202 0.079821 -0.114184
C25   C     C_R   0.774383 0.782993 0.581857 -0.191221
C26   C     C_R   0.274226 0.717012 0.581860 -0.190063
C27   C     C_R   0.725597 0.282996 0.418140 -0.191629
C28   C     C_R   0.752482 0.736203 0.418599 -0.194533
C29   C     C_R   0.247392 0.263555 0.581412 -0.194762
C30   C     C_R   0.772004 0.249155 0.542331 0.067204
C31   C     C_R   0.228034 0.750784 0.457655 0.066973
C32   C     C_R   0.230036 0.250425 0.457501 0.067976
C33   C     C_R   0.769939 0.749529 0.542509 0.068160
C34   C     C_R   0.269970 0.750421 0.542496 0.067702
C35   C     C_R   0.867483 0.166407 0.063505 -0.141449
C36   C     C_R   0.730066 0.249525 0.457488 0.068433
C37   C     C_R   0.728000 0.749158 0.457666 0.067094
C38   C     C_R   0.271970 0.250787 0.542343 0.067081
C39   C     C_R   0.046378 0.042191 0.067740 -0.195962
C40   C     C_R   0.941392 0.958282 0.954707 -0.197439
C41   C     C_R   0.953617 0.042194 0.932369 -0.193450
C42   C     C_R   0.058603 0.958285 0.045250 -0.197562
C43   C     C_R   0.546359 0.542195 0.067643 -0.193417
C44   C     C_R   0.441401 0.458285 0.954695 -0.197609
C45   C     C_R   0.453647 0.542192 0.932248 -0.195920
C46   C     C_R   0.130265 0.831814 0.929046 -0.141446
C47   C     C_R   0.558604 0.458282 0.045349 -0.197496
C48   C     C_R   0.046826 0.082442 0.067443 -0.194545
C49   C     C_R   0.941498 0.918034 0.953788 -0.171301
C50   C     C_R   0.953169 0.082439 0.932680 -0.205923
C51   C     C_R   0.058502 0.918037 0.046096 -0.190331
C52   C     C_R   0.546808 0.582441 0.067332 -0.205738
C53   C     C_R   0.441503 0.418037 0.953848 -0.190496
C54   C     C_R   0.453196 0.582443 0.932546 -0.194351
C55   C     C_R   0.558497 0.418034 0.046268 -0.171470
C56   C     C_R   1.000000 0.102710 0.000055 -0.000822
C57   C     C_R   0.132384 0.166427 0.936258 -0.135491
C58   C     C_R   0.000000 0.897614 0.999947 -0.003582
C59   C     C_R   0.500000 0.602711 0.999945 -0.000847
C60   C     C_R   0.499999 0.397614 0.000053 -0.003444
C61   C     C_R   0.104760 0.249416 0.210373 0.820995
C62   C     C_R   0.895241 0.750581 0.789629 0.822017
C63   C     C_R   0.894046 0.250275 0.789574 0.820274
C64   C     C_R   0.105954 0.749718 0.210423 0.821976
C65   C     C_R   0.605954 0.750274 0.210426 0.821064
C66   C     C_R   0.394045 0.249718 0.789577 0.821192
C67   C     C_R   0.395241 0.749415 0.789626 0.821693
C68   C     C_R   0.869644 0.831894 0.070835 -0.134075
C69   C     C_R   0.604759 0.250580 0.210370 0.821328
C70   C     C_R   0.999999 0.144912 0.000024 0.783808
C71   C     C_R   0.000002 0.855201 0.999977 0.789609
C72   C     C_R   0.500001 0.644913 0.999976 0.783704
C73   C     C_R   0.499998 0.355201 0.000023 0.789676
C74   C     C_R   0.000002 0.355126 0.000002 0.786436
C75   C     C_R   1.000000 0.644880 1.000000 0.785666
C76   C     C_R   0.500000 0.855120 1.000000 0.786133
C77   C     C_R   0.500002 0.144873 0.000002 0.786002
C78   C     C_R   0.989478 0.458164 0.937306 -0.167489
C79   C     C_R   0.367650 0.666438 0.063707 -0.135452
C80   C     C_R   0.972501 0.541863 0.029807 -0.167599
C81   C     C_R   0.010542 0.458163 0.062714 -0.166870
C82   C     C_R   0.027511 0.541864 0.970205 -0.168126
C83   C     C_R   0.527543 0.958135 0.970244 -0.167626
C84   C     C_R   0.510524 0.041835 0.062704 -0.167493
C85   C     C_R   0.472469 0.958136 0.029768 -0.167066
C86   C     C_R   0.489496 0.041834 0.937316 -0.168112
C87   C     C_R   0.989948 0.417893 0.937573 -0.173286
C88   C     C_R   0.972940 0.582134 0.030329 -0.176195
C89   C     C_R   0.010069 0.417892 0.062443 -0.177118
C90   C     C_R   0.630383 0.331898 0.929115 -0.134164
C91   C     C_R   0.027064 0.582135 0.969674 -0.177276
C92   C     C_R   0.527097 0.917864 0.969714 -0.176232
C93   C     C_R   0.510053 0.082107 0.062434 -0.178329
C94   C     C_R   0.472907 0.917865 0.030289 -0.175144
C95   C     C_R   0.489965 0.082105 0.937582 -0.174483
C96   C     C_R   0.000006 0.397504 0.000006 -0.008164
C97   C     C_R   0.000001 0.602514 0.000000 -0.005875
C98   C     C_R   0.500001 0.897485 0.000000 -0.007125
C99   C     C_R   0.500006 0.102495 0.000006 -0.007538
C100  C     C_R   0.000010 0.478679 0.000010 0.104487
C101  C     C_R   0.632485 0.666417 0.936529 -0.141432
C102  C     C_R   0.000008 0.521348 0.000008 0.105305
C103  C     C_R   0.500008 0.978651 0.000008 0.104339
C104  C     C_R   0.500011 0.021319 0.000010 0.105168
C105  C     C_2   0.755233 0.084955 0.878966 0.407280
C106  C     C_2   0.241612 0.921314 0.095471 0.392367
C107  C     C_2   0.244476 0.084928 0.120747 0.414592
C108  C     C_2   0.758172 0.921263 0.904116 0.397110
C109  C     C_2   0.255389 0.584835 0.879471 0.412902
C110  C     C_2   0.741686 0.421192 0.096105 0.399337
C111  C     C_2   0.744898 0.584866 0.120825 0.405696
C112  C     C_R   0.999997 0.978866 0.000010 0.125752
C113  C     C_R   0.369706 0.331819 0.070999 -0.141517
C114  C     C_2   0.258523 0.421243 0.904301 0.394500
C115  C     C_R   0.803350 0.175697 0.001623 0.076680
C116  C     C_R   0.194538 0.824122 0.992622 0.079263
C117  C     C_R   0.196529 0.175682 0.998150 0.082172
C118  C     C_R   0.805390 0.824150 0.007274 0.084135
C119  C     C_R   0.303473 0.675674 0.001878 0.082331
C120  C     C_R   0.694605 0.324142 0.992743 0.083813
C121  C     C_R   0.696649 0.675689 0.998351 0.076829
C122  C     C_R   0.305465 0.324113 0.007358 0.078953
C123  C     C_R   0.766179 0.148836 0.941523 -0.089201
C124  C     C_R   0.500003 0.521610 0.999954 0.104581
C125  C     C_R   0.231254 0.853490 0.047098 -0.094558
C126  C     C_R   0.233660 0.148797 0.058217 -0.101952
C127  C     C_R   0.768627 0.853478 0.952711 -0.104807
C128  C     C_R   0.266290 0.648755 0.941894 -0.104104
C129  C     C_R   0.731317 0.353445 0.047392 -0.102675
C130  C     C_R   0.733870 0.648795 0.058370 -0.091339
C131  C     C_R   0.268798 0.353456 0.952794 -0.092428
C132  C     C_R   0.793194 0.113274 0.942370 0.039188
C133  C     C_R   0.203982 0.890188 0.038385 0.036581
C134  C     C_R   0.206579 0.113257 0.057349 0.042260
C135  C     C_R   0.500003 0.478866 0.999990 0.125833
C136  C     C_R   0.795841 0.890183 0.961311 0.040641
C137  C     C_R   0.293349 0.613204 0.942776 0.042299
C138  C     C_R   0.704081 0.390141 0.038810 0.040531
C139  C     C_R   0.706876 0.613222 0.057510 0.039174
C140  C     C_R   0.296091 0.390145 0.961489 0.036524
C141  C     C_R   0.857522 0.104685 0.004282 -0.207906
C142  C     C_R   0.139871 0.897349 0.974256 -0.230156
C143  C     C_R   0.142239 0.104705 0.995428 -0.203305
C144  C     C_R   0.859933 0.897397 0.025429 -0.228469
C145  C     C_R   0.357725 0.604676 0.004622 -0.203282
C146  C     C_R   0.894377 0.131124 0.064571 -0.113953
C147  C     C_R   0.640027 0.397372 0.974615 -0.228391
C148  C     C_R   0.642514 0.604656 0.995670 -0.207911
C149  C     C_R   0.360165 0.397324 0.025693 -0.230054
C150  C     C_R   0.220553 0.715160 0.996516 -0.234580
C151  C     C_R   0.779593 0.284532 0.003609 -0.232239
C152  C     C_R   0.779531 0.715183 0.003658 -0.238517
C153  C     C_R   0.220409 0.284517 0.996374 -0.235626
C154  C     C_R   0.720465 0.215181 0.996326 -0.237642
C155  C     C_R   0.279587 0.784515 0.003608 -0.236476
C156  C     C_R   0.279452 0.215158 0.003500 -0.233680
C157  C     C_R   0.103111 0.868204 0.920213 -0.114316
C158  C     C_R   0.720411 0.784530 0.996407 -0.233111
C159  C     C_R   0.195287 0.750699 0.998160 -0.032727
C160  C     C_R   0.804859 0.249054 0.002020 -0.033112
C161  C     C_R   0.804745 0.750722 0.001913 -0.034750
C162  C     C_R   0.195112 0.249039 0.997912 -0.035165
C163  C     C_R   0.695257 0.250719 0.998090 -0.035507
C164  C     C_R   0.304890 0.749036 0.002090 -0.034391
C165  C     C_R   0.304711 0.250696 0.001837 -0.033446
C166  C     C_R   0.695139 0.749051 0.997977 -0.032377
C167  C     C_R   0.224070 0.785858 0.000245 0.016731
C168  C     C_R   0.105436 0.131159 0.935156 -0.120716
C169  C     C_R   0.775643 0.213883 0.998919 0.013851
C170  C     C_R   0.775923 0.785878 0.999760 0.012372
C171  C     C_R   0.224277 0.213864 0.000917 0.010027
C172  C     C_R   0.724082 0.285875 0.000256 0.011764
C173  C     C_R   0.275729 0.713861 0.999102 0.010683
C174  C     C_R   0.275925 0.285855 0.999737 0.016141
C175  C     C_R   0.724351 0.713880 0.001063 0.014486
C176  C     C_R   0.835665 0.262916 0.584379 -0.163020
C177  C     C_R   0.164247 0.737242 0.415613 -0.161992
C178  C     C_R   0.192513 0.282874 0.415730 -0.164252
C179  C     C_R   0.896732 0.868295 0.079569 -0.122507
C180  C     C_R   0.807310 0.717039 0.584299 -0.164126
C181  C     C_R   0.307514 0.782864 0.584268 -0.164201
C182  C     C_R   0.692721 0.217028 0.415697 -0.164170
C183  C     C_R   0.664328 0.762899 0.415621 -0.162628
C184  C     C_R   0.335748 0.237228 0.584387 -0.162389
C185  C     C_R   0.139792 0.249713 0.999496 0.785658
C186  C     C_R   0.860140 0.750213 0.000415 0.783497
C187  C     C_R   0.860198 0.249721 0.000481 0.796689
C188  C     C_R   0.139875 0.750198 0.999619 0.795042
C189  C     C_R   0.639801 0.749719 0.999517 0.796020
C190  C     C_R   0.394580 0.631162 0.064817 -0.120815
C191  C     C_R   0.360124 0.250196 0.000380 0.795730
C192  C     C_R   0.360209 0.749711 0.000506 0.784853
C193  C     C_R   0.639861 0.250211 0.999587 0.784318
C194  C     C_R   0.874703 0.263337 0.664799 -0.225707
C195  C     C_R   0.125189 0.736838 0.335190 -0.224094
C196  C     C_R   0.151576 0.282051 0.335308 -0.225260
C197  C     C_R   0.848265 0.717876 0.664720 -0.223716
C198  C     C_R   0.348449 0.782041 0.664688 -0.223979
C199  C     C_R   0.651764 0.217865 0.335276 -0.224984
C200  C     C_R   0.625287 0.763319 0.335200 -0.224128
H1    H     H_    0.980060 0.473210 0.887572 0.141873
H2    H     H_    0.075739 0.726711 0.304018 0.179947
H3    H     H_    0.780311 0.949298 0.911772 0.048814
H4    H     H_    0.277423 0.557709 0.881134 0.054081
H5    H     H_    0.719535 0.449223 0.088452 0.048062
H6    H     H_    0.722925 0.557715 0.119170 0.053693
H7    H     H_    0.280714 0.449269 0.912039 0.048488
H8    H     H_    0.123720 0.307711 0.304317 0.175086
H9    H     H_    0.876008 0.692190 0.695731 0.176906
H10   H     H_    0.376323 0.807696 0.695678 0.177064
H11   H     H_    0.624042 0.192173 0.304264 0.174928
H12   H     H_    0.575929 0.773611 0.304035 0.180049
H13   H     H_    0.424246 0.226682 0.695982 0.179753
H14   H     H_    0.697765 0.226455 0.549067 0.172105
H15   H     H_    0.302475 0.773089 0.450911 0.171761
H16   H     H_    0.253378 0.191477 0.450229 0.172200
H17   H     H_    0.949905 0.526818 0.051842 0.142152
H18   H     H_    0.746891 0.808556 0.549758 0.172099
H19   H     H_    0.246589 0.691483 0.549769 0.172504
H20   H     H_    0.753069 0.308564 0.450239 0.171789
H21   H     H_    0.802255 0.726489 0.450927 0.172173
H22   H     H_    0.197542 0.273119 0.549084 0.171694
H23   H     H_    0.081879 0.027288 0.121282 0.147372
H24   H     H_    0.895283 0.973171 0.920557 0.128362
H25   H     H_    0.918120 0.027297 0.878816 0.145181
H26   H     H_    0.104708 0.973179 0.079415 0.127873
H27   H     H_    0.581835 0.527299 0.121206 0.145182
H28   H     H_    0.019961 0.473209 0.112449 0.141683
H29   H     H_    0.395296 0.473178 0.920485 0.127851
H30   H     H_    0.418166 0.527290 0.878695 0.147388
H31   H     H_    0.604713 0.473170 0.079543 0.128338
H32   H     H_    0.083032 0.097736 0.120202 0.187620
H33   H     H_    0.895642 0.902938 0.917778 0.181888
H34   H     H_    0.916961 0.097729 0.879923 0.166460
H35   H     H_    0.104361 0.902944 0.082064 0.175252
H36   H     H_    0.582997 0.597731 0.120098 0.166467
H37   H     H_    0.395647 0.402944 0.917835 0.175095
H38   H     H_    0.417010 0.597737 0.879777 0.187638
H39   H     H_    0.050109 0.526819 0.948171 0.142075
H40   H     H_    0.604349 0.402939 0.082323 0.181749
H41   H     H_    0.981548 0.402727 0.888460 0.166810
H42   H     H_    0.951281 0.597313 0.053425 0.164323
H43   H     H_    0.018469 0.402725 0.111556 0.163892
H44   H     H_    0.048719 0.597315 0.946574 0.164092
H45   H     H_    0.548779 0.902684 0.946647 0.165188
H46   H     H_    0.518439 0.097274 0.111540 0.163561
H47   H     H_    0.451221 0.902686 0.053352 0.165458
H48   H     H_    0.481578 0.097271 0.888476 0.166505
H49   H     H_    0.879267 0.077518 0.005928 0.137158
H50   H     H_    0.550165 0.973180 0.948241 0.142536
H51   H     H_    0.118189 0.925515 0.966081 0.138632
H52   H     H_    0.120444 0.077556 0.993763 0.135616
H53   H     H_    0.881568 0.925571 0.033523 0.135952
H54   H     H_    0.379507 0.577520 0.006292 0.135581
H55   H     H_    0.618379 0.425540 0.966530 0.135969
H56   H     H_    0.620782 0.577483 0.994019 0.137123
H57   H     H_    0.381858 0.425485 0.033858 0.138647
H58   H     H_    0.944010 0.124313 0.112069 0.142060
H59   H     H_    0.053581 0.873924 0.871068 0.150128
H60   H     H_    0.055795 0.124374 0.887648 0.132192
H61   H     H_    0.519928 0.026789 0.112430 0.141558
H62   H     H_    0.946243 0.874059 0.128709 0.138669
H63   H     H_    0.444246 0.624393 0.112272 0.132127
H64   H     H_    0.553792 0.374067 0.871196 0.138691
H65   H     H_    0.555952 0.624331 0.888008 0.142007
H66   H     H_    0.446380 0.373934 0.129019 0.150136
H67   H     H_    0.896768 0.186635 0.110627 0.118209
H68   H     H_    0.101417 0.809756 0.885825 0.119016
H69   H     H_    0.103131 0.186672 0.889159 0.115024
H70   H     H_    0.898523 0.809868 0.114124 0.115654
H71   H     H_    0.396940 0.686704 0.110753 0.114890
H72   H     H_    0.449849 0.973182 0.051773 0.142664
H73   H     H_    0.601543 0.309887 0.885772 0.115786
H74   H     H_    0.603163 0.686665 0.889458 0.118106
H75   H     H_    0.398516 0.309776 0.114274 0.119119
H76   H     H_    0.716772 0.156012 0.893664 0.177130
H77   H     H_    0.280834 0.847621 0.096156 0.176652
H78   H     H_    0.283080 0.155943 0.106078 0.172724
H79   H     H_    0.719057 0.847573 0.903671 0.172606
H80   H     H_    0.216842 0.655881 0.894087 0.172516
H81   H     H_    0.780860 0.347525 0.096489 0.172912
H82   H     H_    0.783304 0.655953 0.106178 0.176936
H83   H     H_    0.480094 0.026788 0.887590 0.141763
H84   H     H_    0.219246 0.347573 0.903681 0.176941
H85   H     H_    0.198335 0.688322 0.995666 0.155961
H86   H     H_    0.801599 0.311340 0.003875 0.157823
H87   H     H_    0.801780 0.688346 0.004573 0.154744
H88   H     H_    0.198435 0.311326 0.996164 0.156434
H89   H     H_    0.698214 0.188343 0.995399 0.156976
H90   H     H_    0.301558 0.811323 0.003803 0.154218
H91   H     H_    0.301672 0.188319 0.004365 0.158194
H92   H     H_    0.698406 0.811336 0.996155 0.155612
H93   H     H_    0.855334 0.272997 0.554941 0.156745
H94   H     H_    0.924053 0.273645 0.695964 0.179852
H95   H     H_    0.144498 0.727328 0.445058 0.157360
H96   H     H_    0.195366 0.308972 0.445394 0.154088
H97   H     H_    0.804329 0.690900 0.554653 0.154410
H98   H     H_    0.304679 0.808957 0.554603 0.154530
H99   H     H_    0.695723 0.190884 0.445344 0.153973
H100  H     H_    0.644653 0.772965 0.445059 0.156845
H101  H     H_    0.355492 0.227302 0.554943 0.157262
H102  H     H_    0.777221 0.057811 0.880617 0.053214
H103  H     H_    0.219431 0.949345 0.087730 0.049220
H104  H     H_    0.222426 0.057809 0.119088 0.053589
O1    O     O_3   0.000000 0.250000 0.000000 -0.495732
O2    O     O_R   0.406930 0.227260 0.045480 -0.646112
O3    O     O_R   0.406930 0.772740 0.045480 -0.646357
O4    O     O_R   0.593070 0.227260 0.954520 -0.645103
O5    O     O_R   0.117100 0.227270 0.173460 -0.594127
O6    O     O_R   0.882900 0.772730 0.826540 -0.593845
O7    O     O_R   0.882900 0.227270 0.826540 -0.596266
O8    O     O_R   0.117100 0.772730 0.173460 -0.595269
O9    O     O_R   0.617100 0.727270 0.173460 -0.596654
O10   O     O_R   0.382900 0.272730 0.826540 -0.594882
O11   O     O_R   0.382900 0.727270 0.826540 -0.594291
O12   O     O_3   0.000000 0.750000 0.000000 -0.495473
O13   O     O_R   0.617100 0.272730 0.173460 -0.593680
O14   O     O_R   0.053120 0.163270 0.045480 -0.621312
O15   O     O_R   0.946880 0.836730 0.954520 -0.623278
O16   O     O_R   0.946880 0.163270 0.954520 -0.635646
O17   O     O_R   0.053120 0.836730 0.045480 -0.639018
O18   O     O_R   0.553120 0.663270 0.045480 -0.635593
O19   O     O_R   0.446880 0.336730 0.954520 -0.639046
O20   O     O_R   0.446880 0.663270 0.954520 -0.621247
O21   O     O_R   0.553120 0.336730 0.045480 -0.623317
O22   O     O_R   0.007620 0.336730 0.954520 -0.641844
O23   O     O_3   0.500000 0.750000 0.000000 -0.495872
O24   O     O_R   0.992380 0.663270 0.045480 -0.641325
O25   O     O_R   0.992380 0.336730 0.045480 -0.644325
O26   O     O_R   0.007620 0.663270 0.954520 -0.644880
O27   O     O_R   0.507620 0.836730 0.954520 -0.644582
O28   O     O_R   0.492380 0.163270 0.045480 -0.644659
O29   O     O_R   0.492380 0.836730 0.045480 -0.641061
O30   O     O_R   0.507620 0.163270 0.954520 -0.642164
O31   O     O_R   0.056370 0.272740 0.173460 -0.651202
O32   O     O_R   0.943630 0.727260 0.826540 -0.649674
O33   O     O_R   0.943630 0.272740 0.826540 -0.649808
O34   O     O_3   0.500000 0.250000 0.000000 -0.495329
O35   O     O_R   0.056370 0.727260 0.173460 -0.648194
O36   O     O_R   0.556370 0.772740 0.173460 -0.647813
O37   O     O_R   0.443630 0.227260 0.826540 -0.650180
O38   O     O_R   0.443630 0.772740 0.826540 -0.649572
O39   O     O_R   0.556370 0.227260 0.173460 -0.651294
O40   O     O_R   0.138550 0.227260 0.045470 -0.622106
O41   O     O_R   0.861450 0.772740 0.954530 -0.623340
O42   O     O_R   0.861450 0.227260 0.954530 -0.607350
O43   O     O_R   0.138550 0.772740 0.045470 -0.607848
O44   O     O_R   0.638550 0.727260 0.045470 -0.607034
O45   O     O_R   0.093070 0.272740 0.954520 -0.644683
O46   O     O_R   0.361450 0.272740 0.954530 -0.608131
O47   O     O_R   0.361450 0.727260 0.954530 -0.621804
O48   O     O_R   0.638550 0.272740 0.045470 -0.623611
O49   O     O_2   0.699143 0.091506 0.824203 -0.539107
O50   O     O_2   0.297622 0.916115 0.151761 -0.542402
O51   O     O_2   0.300579 0.091441 0.175513 -0.541506
O52   O     O_2   0.702175 0.916019 0.847830 -0.543896
O53   O     O_2   0.199249 0.591324 0.824780 -0.542231
O54   O     O_2   0.797642 0.415928 0.152476 -0.542799
O55   O     O_2   0.801024 0.591392 0.175515 -0.539728
O56   O     O_R   0.906930 0.727260 0.045480 -0.646744
O57   O     O_2   0.202554 0.416024 0.847927 -0.541423
O58   O     O_R   0.906930 0.272740 0.045480 -0.645655
O59   O     O_R   0.093070 0.727260 0.954520 -0.647729
O60   O     O_R   0.593070 0.772740 0.954520 -0.647303
Zn1   Zn    Zn3+2 0.989110 0.282490 0.064980 0.974267
Zn2   Zn    Zn3+2 0.924120 0.782490 0.935020 1.018390
Zn3   Zn    Zn3+2 0.924120 0.217510 0.935020 1.020148
Zn4   Zn    Zn3+2 0.075880 0.782490 0.064980 1.021895
Zn5   Zn    Zn3+2 0.575880 0.717510 0.064980 1.020215
Zn6   Zn    Zn3+2 0.424120 0.282490 0.935020 1.021855
Zn7   Zn    Zn3+2 0.424120 0.717510 0.935020 1.017036
Zn8   Zn    Zn3+2 0.575880 0.282490 0.064980 1.018356
Zn9   Zn    Zn3+2 0.010890 0.717510 0.935020 0.973958
Zn10  Zn    Zn3+2 0.010890 0.282490 0.935020 0.972878
Zn11  Zn    Zn3+2 0.989110 0.717510 0.064980 0.972945
Zn12  Zn    Zn3+2 0.489110 0.782490 0.064980 0.973406
Zn13  Zn    Zn3+2 0.510890 0.217510 0.935020 0.972376
Zn14  Zn    Zn3+2 0.510890 0.782490 0.935020 0.974222
Zn15  Zn    Zn3+2 0.489110 0.217510 0.064980 0.973972
Zn16  Zn    Zn3+2 0.075880 0.217510 0.064980 1.016974

loop_
_geom_bond_atom_site_label_1
_geom_bond_atom_site_label_2
_ccdc_geom_bond_type
C144  H53   S    
C93   C99   A    
O23   Zn12  S    
C192  O47   A    
C8    C67   S    
C26   C34   A    
C188  O43   A    
O42   Zn3   S    
C40   C112  A    
C116  C167  S    
C32   C38   S    
C58   C71   S    
C116  C125  A    
C60   C73   S    
C81   H28   S    
C44   C53   A    
C51   C58   A    
O19   Zn6   S    
C189  O44   A    
C193  O4    A    
C114  H7    S    
C43   H27   S    
C94   H47   S    
C61   O5    A    
C153  C174  A    
C154  C169  A    
C123  C132  A    
C186  O56   A    
O43   Zn4   S    
C37   C183  A    
C154  C163  A    
C65   O36   A    
C117  C171  S    
C195  H2    S    
C120  C172  S    
C114  C140  S    
C83   C92   A    
C17   C26   A    
O1    Zn3   S    
C147  H55   S    
C108  O52   D    
C121  C175  S    
O39   Zn15  S    
C95   H48   S    
O34   Zn6   S    
C144  C179  A    
O37   Zn13  S    
C186  O41   A    
C150  C159  A    
C21   H14   S    
C178  H96   S    
C180  C197  A    
C158  C166  A    
C192  O3    A    
C77   O28   A    
C129  C138  A    
C119  C128  A    
O27   Zn14  S    
O1    Zn10  S    
O13   Zn8   S    
O23   Zn7   S    
C185  O40   A    
C75   C97   S    
C67   O38   A    
C15   C23   A    
C134  C143  A    
C166  C175  A    
C74   O22   A    
C181  C198  A    
C62   O32   A    
C82   H39   S    
C4    C12   A    
C156  C165  A    
C45   C124  A    
C155  C164  A    
O12   Zn11  S    
C156  C171  A    
Br5   C17   S    
C40   H24   S    
O24   Zn11  S    
C4    C63   S    
C165  C174  A    
C194  H94   S    
C114  O57   D    
Br8   C20   S    
C6    C61   S    
C75   O26   A    
C42   C51   A    
C46   C157  A    
O22   Zn10  S    
C8    C17   A    
Br1   C12   S    
C143  C168  A    
O15   Zn2   S    
C177  H95   S    
C24   C113  A    
C48   H32   S    
C109  H4    S    
C78   C100  A    
C105  H102  S    
C162  C185  S    
C5    C64   S    
C92   C98   A    
O59   Zn9   S    
C181  H98   S    
C49   C58   A    
O16   Zn3   S    
C126  H78   S    
C118  C170  S    
C110  H5    S    
C78   C87   A    
C168  H60   S    
C18   C27   A    
C46   H68   S    
C81   C89   A    
C83   H50   S    
C74   C96   S    
C95   C99   A    
C79   C190  A    
O46   Zn6   S    
C69   O39   A    
C103  C104  S    
C34   C181  A    
C78   H1    S    
C113  C122  A    
C155  C167  A    
C3    H13   S    
C90   H73   S    
C40   C49   A    
C89   H43   S    
O23   Zn5   S    
C197  H9    S    
O35   Zn11  S    
C42   C112  A    
C67   O11   A    
C12   C21   A    
C3    C184  A    
C108  H3    S    
C32   C178  A    
O25   Zn1   S    
O41   Zn2   S    
C30   C176  A    
C81   C100  A    
C50   H34   S    
C63   O7    A    
C148  H56   S    
C164  C173  A    
C64   O8    A    
C52   C59   A    
C156  H91   S    
C47   C55   A    
C21   C30   A    
C48   C56   A    
C75   O24   A    
C4    C194  A    
C35   C146  A    
C185  O45   A    
C36   C182  A    
C105  O49   D    
O36   Zn12  S    
C133  C142  A    
C50   C56   A    
C131  C140  A    
C47   C135  A    
O58   Zn1   S    
C106  C133  S    
C1    C41   A    
C62   O6    A    
C182  H99   S    
C145  C190  A    
C187  O42   A    
O3    Zn12  S    
O23   Zn14  S    
C72   O18   A    
C183  H100  S    
O26   Zn9   S    
Br2   C14   S    
C145  H54   S    
C142  H51   S    
O45   Zn10  S    
C11   C20   A    
C141  H49   S    
O34   Zn15  S    
C7    C16   A    
C10   C65   S    
C101  C121  A    
C153  H88   S    
C71   O15   A    
C35   C115  A    
C82   C91   A    
C159  C167  A    
C24   C149  A    
C7    C62   S    
C55   C60   A    
C166  C189  S    
C33   C37   S    
C70   O14   A    
O20   Zn7   S    
C56   C70   S    
C86   H83   S    
C150  H85   S    
C13   H65   S    
C2    C147  A    
C13   C101  A    
C66   O10   A    
O30   Zn13  S    
C158  H92   S    
C22   H15   S    
C196  H8    S    
O28   Zn15  S    
O8    Zn4   S    
O40   Zn16  S    
C162  C171  A    
C180  H97   S    
C136  C144  A    
Br6   C18   S    
C20   C29   A    
C86   C104  A    
C100  C102  S    
C22   C31   A    
C164  C192  S    
C140  C149  A    
C150  C173  A    
C23   H16   S    
C182  C199  A    
O18   Zn5   S    
O60   Zn14  S    
C111  H6    S    
C1    C112  S    
C43   C52   A    
C113  H75   S    
C93   H46   S    
C132  C141  A    
C39   C48   A    
C117  C126  A    
C88   C97   A    
C80   C88   A    
C165  C191  S    
C68   C118  A    
C63   O33   A    
C88   H42   S    
C115  C169  S    
C74   O25   A    
O47   Zn7   S    
C3    C11   A    
O10   Zn6   S    
C72   O20   A    
Br4   C16   S    
C54   H38   S    
C35   H67   S    
C111  C139  S    
C160  C169  A    
Br7   C19   S    
C23   C32   A    
C109  C137  S    
C42   H26   S    
O56   Zn11  S    
C49   H33   S    
O5    Zn16  S    
O34   Zn13  S    
C138  C147  A    
C28   H21   S    
C160  C187  S    
C76   C98   S    
C152  C161  A    
C158  C170  A    
C14   C22   A    
C151  C172  A    
C152  C175  A    
C176  H93   S    
C80   C102  A    
C124  C135  S    
C90   C120  A    
C107  C134  S    
C73   O19   A    
C2    H64   S    
O34   Zn8   S    
C122  C131  A    
C131  H84   S    
C187  O58   A    
C31   C34   S    
C52   H36   S    
C44   C135  A    
C27   H20   S    
C9    C199  A    
C25   H18   S    
C152  H87   S    
C84   C104  A    
C33   C180  A    
O4    Zn13  S    
C141  C146  A    
C30   C36   S    
O32   Zn9   S    
C126  C134  A    
O7    Zn3   S    
O2    Zn15  S    
C9    C69   S    
C109  O53   D    
C79   H71   S    
C77   O30   A    
C129  H81   S    
C139  C148  A    
C111  O55   D    
C7    C197  A    
C68   C179  A    
C70   O16   A    
C84   C93   A    
C85   C103  A    
C86   C95   A    
C1    C39   A    
C125  H77   S    
C57   C168  A    
C57   H69   S    
C9    C18   A    
C92   H45   S    
C46   C116  A    
C115  C123  A    
C11   C66   S    
C59   C72   S    
C38   C184  A    
C91   H44   S    
O11   Zn7   S    
C85   C94   A    
C43   C124  A    
C161  C186  S    
O48   Zn8   S    
C19   C28   A    
C149  H57   S    
C125  C133  A    
C16   C25   A    
C25   C33   A    
C177  C195  A    
C107  H104  S    
C130  H82   S    
O21   Zn8   S    
C101  H74   S    
C66   O37   A    
C5    C14   A    
C89   C96   A    
C5    C195  A    
C73   O21   A    
C64   O35   A    
C29   C38   A    
C200  H12   S    
C159  C188  S    
O1    Zn16  S    
Br3   C15   S    
C151  H86   S    
C87   H41   S    
C79   C119  A    
C198  H10   S    
C55   H40   S    
O38   Zn14  S    
C54   C59   A    
C184  H101  S    
C10   C200  A    
O31   Zn1   S    
C8    C198  A    
C39   H23   S    
C188  O59   A    
C53   H37   S    
C151  C160  A    
C51   H35   S    
C83   C103  A    
C2    C90   A    
C85   H72   S    
C41   H25   S    
O12   Zn2   S    
C13   C148  A    
C121  C130  A    
C189  O60   A    
O9    Zn5   S    
C128  C137  A    
C137  C145  A    
C76   O27   A    
C106  O50   D    
O17   Zn4   S    
C108  C136  S    
C110  O54   D    
C123  H76   S    
C143  H52   S    
O33   Zn10  S    
C29   H22   S    
C91   C97   A    
C176  C194  A    
C106  H103  S    
C110  C138  S    
C179  H62   S    
C122  C174  S    
C155  H90   S    
C142  C157  A    
C193  O48   A    
C41   C50   A    
C6    C196  A    
C71   O17   A    
C57   C117  A    
C6    C15   A    
C163  C193  S    
C120  C129  A    
O44   Zn5   S    
C45   C54   A    
C80   H17   S    
C130  C139  A    
O14   Zn16  S    
C105  C132  S    
C178  C196  A    
C28   C37   A    
C27   C36   A    
C154  H89   S    
C190  H63   S    
C44   H29   S    
C153  C162  A    
C127  C136  A    
C119  C173  S    
C163  C172  A    
C127  H79   S    
C82   C102  A    
C191  O2    A    
C128  H80   S    
C161  C170  A    
C87   C96   A    
O1    Zn1   S    
C69   O13   A    
C10   C19   A    
C146  H58   S    
C45   H30   S    
C118  C127  A    
C65   O9    A    
C199  H11   S    
C61   O31   A    
C68   H70   S    
C107  O51   D    
C26   H19   S    
O12   Zn4   S    
C84   H61   S    
C53   C60   A    
C191  O46   A    
C94   C98   A    
C183  C200  A    
O6    Zn2   S    
C24   H66   S    
C31   C177  A    
C76   O29   A    
C157  H59   S    
O29   Zn12  S    
C47   H31   S    
C77   C99   S    
O12   Zn9   S    
