data_mof_unit_62009.cif
_audit_creation_date              2012-12-11T16:00:50-0500
_audit_creation_method            fapswitch 2.2
_symmetry_space_group_name_H-M    P1
_symmetry_Int_Tables_number       1
_space_group_crystal_system       triclinic
_cell_length_a                    6.958887
_cell_length_b                    17.270177
_cell_length_c                    18.602033
_cell_angle_alpha                 107.150697
_cell_angle_beta                  90.349081
_cell_angle_gamma                 90.685756
_cell_volume                      2135.94124006

loop_
_atom_site_label
_atom_site_type_symbol
_atom_type_description
_atom_site_fract_x
_atom_site_fract_y
_atom_site_fract_z
_atom_type_partial_charge
O1    O     O_R   0.505810 0.442350 0.559500 -0.516366
O2    O     O_R   0.167990 0.405060 0.411070 -0.539905
O3    O     O_R   0.005550 0.557650 0.440500 -0.525277
C1    C     C_R   0.337526 0.381605 0.383074 0.766511
O4    O     O_R   0.175580 0.432840 0.557140 -0.527630
O5    O     O_R   0.013190 0.585620 0.587600 -0.535343
C2    C     C_R   0.344529 0.415826 0.580510 0.735316
O6    O     O_R   0.498170 0.414380 0.412400 -0.536987
O7    O     O_3   0.341790 0.550090 0.509830 -0.368170
V1    V     V_3+5 0.063870 0.490710 0.498180 1.442587
O8    O     O_R   0.683930 0.594940 0.588930 -0.532761
C3    C     C_R   0.854493 0.618144 0.616748 0.811637
O9    O     O_R   0.676340 0.567160 0.442860 -0.529774
C4    C     C_R   0.845253 0.584219 0.419537 0.707743
V2    V     V_3+5 0.564820 0.509290 0.501820 1.456977
O10   O     O_3   0.836770 0.449910 0.490170 -0.366161
C5    C     C_1   0.856408 0.636398 0.367647 -0.198477
C6    C     C_1   0.867675 0.679063 0.324169 0.016012
C7    C     C_1   0.882111 0.729298 0.272328 0.019466
C8    C     C_1   0.894507 0.771546 0.228514 0.024512
C9    C     C_1   0.908935 0.821651 0.176559 0.033959
C10   C     C_1   0.920200 0.864097 0.132890 -0.164376
C11   C     C_3   0.713985 0.775339 0.774306 0.520882
C12   C     C_3   0.793579 0.774700 0.696882 0.018597
C13   C     C_3   0.871607 0.688696 0.686642 -0.378823
C14   C     C_3   0.791685 0.689798 0.763794 0.536274
C15   C     C_3   0.982597 0.726658 0.801529 0.593049
C16   C     C_3   0.066087 0.725191 0.724166 -0.212295
C17   C     C_3   0.986157 0.811463 0.734879 0.059079
C18   C     C_3   0.905629 0.812384 0.812453 -0.366966
H1    H     H_    0.211751 0.704491 0.703706 0.201078
C19   C     C_3   0.558340 0.276611 0.284005 -0.201265
C20   C     C_3   0.473902 0.189796 0.267893 0.536129
H2    H     H_    0.699993 0.297435 0.311073 0.167453
C21   C     C_3   0.419224 0.188953 0.187358 -0.335911
C22   C     C_3   0.499159 0.275744 0.203470 0.605132
C23   C     C_3   0.301174 0.311989 0.231952 -0.268835
C24   C     C_3   0.221097 0.224611 0.216678 0.569503
C25   C     C_3   0.276057 0.224496 0.296989 -0.012908
C26   C     C_3   0.357378 0.311289 0.312434 -0.298872
H3    H     H_    0.228585 0.361776 0.216478 0.177970
C27   C     C_1   0.354974 0.363625 0.632424 -0.172989
C28   C     C_1   0.366629 0.320953 0.675887 0.033965
C29   C     C_1   0.382051 0.270691 0.727687 0.025503
C30   C     C_1   0.395389 0.228426 0.771454 0.020446
C31   C     C_1   0.410807 0.178307 0.823376 0.018902
C32   C     C_1   0.422437 0.135867 0.867039 -0.186541
O11   O     O_R   0.278780 0.085730 0.087540 -0.523689
O12   O     O_R   0.601620 0.067180 0.942850 -0.531141
O13   O     O_R   0.763750 0.914350 0.912410 -0.519665
C33   C     C_R   0.432751 0.084005 0.919249 0.701849
O14   O     O_R   0.608970 0.094960 0.088920 -0.503849
O15   O     O_R   0.771150 0.942330 0.059520 -0.526856
C34   C     C_R   0.439349 0.118553 0.116823 0.809840
O16   O     O_R   0.271380 0.057750 0.940430 -0.535419
O17   O     O_3   0.435070 0.949970 0.990140 -0.353093
V3    V     V_3+5 0.713090 0.009280 0.001830 1.596074
O18   O     O_R   0.100340 0.932730 0.057200 -0.528084
C35   C     C_R   0.931416 0.915948 0.080708 0.729303
O19   O     O_R   0.092990 0.904950 0.911140 -0.522092
C36   C     C_R   0.922438 0.881896 0.883209 0.780767
V4    V     V_3+5 0.212100 0.990570 0.998260 1.574560
O20   O     O_3   0.940260 0.050030 0.009860 -0.351731
C37   C     C_3   0.678559 0.796443 0.635511 -0.268172
C38   C     C_3   0.630661 0.886320 0.657137 -0.745849
H4    H     H_    0.542372 0.903456 0.708654 0.249371
H5    H     H_    0.760985 0.925190 0.667473 0.225582
H6    H     H_    0.551600 0.898773 0.609939 0.209804
H7    H     H_    0.760473 0.779348 0.582279 0.152560
H8    H     H_    0.543401 0.759975 0.625295 0.179447
F1    F     F_    0.044871 0.199134 0.182495 -0.634524
C39   C     C_3   0.145867 0.196145 0.350373 -0.294112
C40   C     C_3   0.084913 0.107489 0.317271 -0.616286
H9    H     H_    0.002175 0.098695 0.264170 0.266419
H10   H     H_    0.212741 0.068009 0.305905 0.235167
H11   H     H_    0.992042 0.089115 0.357916 0.216019
H12   H     H_    0.223880 0.203985 0.404380 0.168440
H13   H     H_    0.015781 0.234355 0.361771 0.194425
F2    F     F_    0.532217 0.800053 0.800174 -0.652544
F3    F     F_    0.691002 0.626987 0.778922 -0.608365
F4    F     F_    0.078891 0.701715 0.855843 -0.595293
C41   C     C_3   0.102908 0.882393 0.723613 -0.267496
C42   C     C_3   0.153244 0.869673 0.641286 -0.756808
H14   H     H_    0.240804 0.814623 0.619882 0.232489
H15   H     H_    0.023959 0.863050 0.605229 0.230685
H16   H     H_    0.233722 0.923582 0.636307 0.212259
H17   H     H_    0.021353 0.939235 0.745251 0.145684
H18   H     H_    0.237129 0.889328 0.757533 0.212046
F5    F     F_    0.564930 0.127618 0.286686 -0.685002
F6    F     F_    0.616186 0.302297 0.155513 -0.624771

loop_
_geom_bond_atom_site_label_1
_geom_bond_atom_site_label_2
_ccdc_geom_bond_type
O18   V4    S    
C40   H9    S    
C21   C22   S    
C1    O6    A    
O15   C35   A    
C30   C31   S    
C13   C16   S    
O11   C34   A    
C14   C15   S    
C17   C18   S    
C19   C22   S    
C16   C17   S    
C23   C24   S    
C23   C26   S    
O5    C3    A    
C24   C25   S    
C2    C27   S    
C41   H17   S    
O16   V4    S    
O12   V3    S    
O17   V3    S    
O19   V4    S    
C6    C7    S    
C11   C14   S    
C12   C17   S    
C39   H13   S    
C24   F1    S    
O8    V2    S    
C1    C26   S    
O12   C33   A    
C11   C12   S    
O1    V2    S    
C37   H8    S    
O7    V1    S    
C12   C37   S    
O9    C4    A    
C15   C18   S    
C23   H3    S    
C40   H10   S    
C4    C5    S    
O14   C34   A    
V3    O20   S    
C11   C18   S    
C15   F4    S    
C21   C24   S    
C12   C13   S    
C25   C26   S    
O4    C2    A    
O15   V3    S    
C32   C33   S    
C38   H5    S    
O18   C35   A    
C14   F3    S    
O19   C36   A    
C19   H2    S    
O2    C1    A    
C28   C29   S    
C39   H12   S    
C20   F5    S    
O11   V4    S    
C42   H14   S    
C25   C39   S    
C38   H6    S    
V4    O20   S    
C5    C6    T    
C20   C25   S    
C37   H7    S    
O3    C4    A    
C42   H15   S    
C38   H4    S    
O6    V2    S    
O9    V2    S    
C40   H11   S    
O17   V4    S    
C27   C28   T    
O2    V1    S    
C10   C35   S    
C29   C30   T    
C22   F6    S    
C31   C32   T    
C22   C23   S    
O1    C2    A    
O13   V3    S    
C16   H1    S    
C39   C40   S    
O5    V1    S    
O8    C3    A    
C3    C13   S    
C19   C20   S    
C7    C8    T    
C13   C14   S    
O4    V1    S    
O3    V1    S    
V1    O10   S    
C37   C38   S    
C41   H18   S    
C20   C21   S    
C33   O16   A    
C19   C26   S    
O7    V2    S    
O14   V3    S    
C17   C41   S    
C42   H16   S    
C8    C9    S    
C41   C42   S    
C18   C36   S    
C15   C16   S    
O13   C36   A    
C11   F2    S    
C9    C10   T    
V2    O10   S    
C21   C34   S    
