data_mof_unit_58269.cif
_audit_creation_date              2012-12-11T14:36:25-0500
_audit_creation_method            fapswitch 2.2
_symmetry_space_group_name_H-M    P1
_symmetry_Int_Tables_number       1
_space_group_crystal_system       triclinic
_cell_length_a                    13.498712
_cell_length_b                    13.496082
_cell_length_c                    27.500627
_cell_angle_alpha                 90.883913
_cell_angle_beta                  90.197772
_cell_angle_gamma                 60.018772
_cell_volume                      4339.08799598

loop_
_atom_site_label
_atom_site_type_symbol
_atom_type_description
_atom_site_fract_x
_atom_site_fract_y
_atom_site_fract_z
_atom_type_partial_charge
C1    C     C_R   0.620978 0.102061 0.569763 0.552018
C2    C     C_1   0.649059 0.705649 0.658585 -0.029569
C3    C     C_3   0.074574 0.142246 0.735014 -0.130144
C4    C     C_R   0.599524 0.779872 0.568845 0.549458
C5    C     C_3   0.163352 0.066364 0.773713 -0.145746
C6    C     C_1   0.088760 0.204347 0.900538 0.019484
C7    C     C_1   0.225836 0.140155 0.616857 0.005050
C8    C     C_3   0.040537 0.250066 0.767337 -0.149204
C9    C     C_3   0.129786 0.173900 0.805120 0.046330
C10   C     C_3   0.133006 0.267554 0.741986 -0.074566
C11   C     C_3   0.166835 0.159811 0.710559 0.015555
C12   C     C_1   0.630882 0.732839 0.616547 0.003163
C13   C     C_3   0.220728 0.191170 0.780160 0.306084
C14   C     C_3   0.256048 0.083554 0.748381 -0.051537
C15   C     C_1   0.110642 0.186476 0.857793 0.001688
C16   C     C_R   0.277454 0.122120 0.569604 0.551022
C17   C     C_1   0.194018 0.150685 0.658513 -0.029746
C18   C     C_3   0.617819 0.285907 0.738574 -0.115232
C19   C     C_3   0.562863 0.243535 0.776455 -0.021597
C20   C     C_1   0.695827 0.210113 0.901496 0.016563
C21   C     C_1   0.640171 0.136849 0.616681 0.015649
C22   C     C_3   0.729715 0.233328 0.768743 -0.111018
C23   C     C_3   0.608486 0.624569 0.771895 0.264923
C24   C     C_3   0.674555 0.190499 0.805747 0.019197
C25   C     C_3   0.776267 0.118795 0.739828 -0.152147
C26   C     C_3   0.664630 0.171782 0.710501 0.031730
C27   C     C_3   0.721699 0.076129 0.777690 -0.087373
C28   C     C_R   0.621947 0.098846 0.430956 0.544068
C29   C     C_3   0.610688 0.129573 0.747810 0.290874
C30   C     C_1   0.682673 0.200394 0.858639 -0.008290
C31   C     C_1   0.653502 0.156788 0.658273 -0.005842
C32   C     C_R   0.736124 0.702126 0.359931 -0.137532
C33   C     C_R   0.748431 0.683770 0.309626 0.016199
C34   C     C_3   0.679960 0.654901 0.805782 0.041578
C35   C     C_R   0.763386 0.662052 0.207840 0.015974
C36   C     C_R   0.853280 0.659189 0.234693 -0.132848
C37   C     C_R   0.845507 0.670779 0.285332 -0.135233
C38   C     C_R   0.773296 0.641767 0.157651 -0.136156
C39   C     C_R   0.684437 0.638865 0.132146 -0.004158
C40   C     C_R   0.602065 0.775387 0.430487 0.544852
C41   C     C_R   0.554995 0.704065 0.356755 -0.129094
C42   C     C_R   0.562470 0.693188 0.306663 0.013655
C43   C     C_R   0.658698 0.684598 0.282792 0.065454
C44   C     C_R   0.471818 0.697608 0.280043 -0.132202
C45   C     C_3   0.561483 0.740684 0.746769 -0.051947
C46   C     C_R   0.475512 0.695333 0.229602 -0.132871
C47   C     C_R   0.571825 0.684229 0.205538 0.013472
C48   C     C_R   0.664404 0.677795 0.232035 0.065025
C49   C     C_R   0.580323 0.670931 0.155507 -0.129208
C50   C     C_R   0.636451 0.718198 0.383052 -0.003298
C51   C     C_R   0.216768 0.054714 0.357829 -0.134050
C52   C     C_R   0.277453 0.120719 0.431214 0.545840
C53   C     C_R   0.189366 0.069121 0.308402 0.014532
C54   C     C_R   0.149180 0.095399 0.207792 0.015299
C55   C     C_R   0.172955 0.993021 0.230068 -0.125951
C56   C     C_3   0.662976 0.683926 0.710907 0.022191
C57   C     C_R   0.193918 0.979610 0.280029 -0.125076
C58   C     C_R   0.125178 0.111373 0.158065 -0.132500
C59   C     C_R   0.099948 0.215268 0.136742 -0.002066
C60   C     C_R   0.178750 0.250714 0.363874 -0.128456
C61   C     C_R   0.155608 0.264934 0.314542 0.013540
C62   C     C_R   0.162698 0.173314 0.286415 0.062559
C63   C     C_R   0.132184 0.367174 0.292502 -0.125373
C64   C     C_3   0.708839 0.567476 0.735413 -0.099340
C65   C     C_R   0.118079 0.377975 0.242449 -0.124155
C66   C     C_R   0.124262 0.287819 0.214217 0.012177
C67   C     C_3   0.634056 0.771087 0.781159 -0.106561
C68   C     C_R   0.145479 0.185362 0.236114 0.062335
C69   C     C_R   0.105153 0.300546 0.164610 -0.126699
C70   C     C_R   0.216759 0.143805 0.384970 -0.004703
C71   C     C_R   0.569992 0.237573 0.363236 -0.133757
C72   C     C_R   0.575362 0.256191 0.313574 0.015709
C73   C     C_R   0.585674 0.289357 0.213365 0.013012
C74   C     C_R   0.511696 0.381190 0.243809 -0.126647
C75   C     C_R   0.505669 0.364421 0.293540 -0.127436
C76   C     C_3   0.781297 0.598185 0.769868 -0.151284
C77   C     C_R   0.598272 0.306093 0.164198 -0.133878
C78   C     C_3   0.735249 0.714987 0.744473 -0.098595
C79   C     C_R   0.677581 0.213952 0.135134 -0.003447
C80   C     C_R   0.720346 0.039379 0.352175 -0.126471
C81   C     C_R   0.723238 0.055185 0.302700 0.010107
C82   C     C_R   0.650426 0.163735 0.283115 0.062550
C83   C     C_R   0.795847 0.962876 0.272418 -0.125878
C84   C     C_R   0.796689 0.977771 0.222605 -0.125795
C85   C     C_R   0.727120 0.085948 0.202860 0.013434
C86   C     C_R   0.653482 0.179576 0.233034 0.062630
C87   C     C_R   0.735673 0.103275 0.153873 -0.127505
C88   C     C_1   0.697157 0.608035 0.900284 0.018765
C89   C     C_1   0.688574 0.634040 0.858148 -0.001075
C90   C     C_R   0.641288 0.128603 0.382395 -0.000762
C91   C     C_R   0.047879 0.236704 0.949432 0.548794
C92   C     C_R   0.711571 0.562866 0.948221 0.545661
C93   C     C_R   0.722966 0.225842 0.950488 0.546342
C94   C     C_R   0.047171 0.246008 0.088752 0.549526
C95   C     C_R   0.707471 0.575903 0.086113 0.545070
C96   C     C_R   0.718287 0.234355 0.089305 0.548535
Cl1   Cl    Cl    0.315165 0.224769 0.812130 -0.586922
Cl2   Cl    Cl    0.534877 0.057189 0.732291 -0.632648
Cl3   Cl    Cl    0.522982 0.565698 0.790915 -0.635839
Cr1   Cr    Cr6+3 0.417550 0.169090 0.500530 1.031888
Cr2   Cr    Cr6+3 0.669180 0.913420 0.499920 1.026717
Cr3   Cr    Cr6+3 0.413260 0.917540 0.499520 1.025836
Cr4   Cr    Cr6+3 0.909170 0.177380 0.020380 1.028353
Cr5   Cr    Cr6+3 0.912710 0.429210 0.018220 1.032142
Cr6   Cr    Cr6+3 0.657170 0.432570 0.019030 1.043715
H1    H     H_    0.871863 0.540147 0.779959 0.120377
H2    H     H_    0.738764 0.483955 0.716490 0.114096
H3    H     H_    0.799917 0.711443 0.380358 0.116631
H4    H     H_    0.929406 0.647912 0.216546 0.092764
H5    H     H_    0.915225 0.669596 0.305460 0.093303
H6    H     H_    0.510180 0.672041 0.135664 0.129960
H7    H     H_    0.404582 0.699062 0.209467 0.096152
H8    H     H_    0.397350 0.704788 0.298219 0.092638
H9    H     H_    0.478832 0.713950 0.374476 0.128753
H10   H     H_    0.121336 0.045401 0.136540 0.121086
H11   H     H_    0.245443 0.972166 0.374152 0.123509
H12   H     H_    0.121137 0.350040 0.728698 0.132240
H13   H     H_    0.175972 0.923240 0.208843 0.101774
H14   H     H_    0.787797 0.752448 0.732489 0.141145
H15   H     H_    0.213968 0.899289 0.296446 0.099198
H16   H     H_    0.085566 0.381210 0.148551 0.130910
H17   H     H_    0.101736 0.456962 0.225838 0.098811
H18   H     H_    0.127393 0.437698 0.313807 0.100570
H19   H     H_    0.176725 0.320385 0.384896 0.129265
H20   H     H_    0.508591 0.306302 0.386552 0.116652
H21   H     H_    0.459260 0.466001 0.229238 0.106576
H22   H     H_    0.447636 0.436263 0.316391 0.103372
H23   H     H_    0.951606 0.318208 0.775744 0.108082
H24   H     H_    0.795466 0.031753 0.131230 0.128680
H25   H     H_    0.603729 0.854156 0.800506 0.172199
H26   H     H_    0.853982 0.905536 0.199734 0.105024
H27   H     H_    0.852014 0.879312 0.287303 0.105937
H28   H     H_    0.774780 0.954483 0.366430 0.131611
H29   H     H_    0.470742 0.798199 0.736802 0.132465
H30   H     H_    0.175620 0.983952 0.787285 0.134356
H31   H     H_    0.014158 0.122530 0.715599 0.116005
H32   H     H_    0.344691 0.014758 0.740219 0.171426
H33   H     H_    0.552942 0.391724 0.149652 0.127015
H34   H     H_    0.475642 0.295800 0.791869 0.205712
H35   H     H_    0.576082 0.371373 0.721593 0.169376
H36   H     H_    0.763040 0.989983 0.794095 0.126785
H37   H     H_    0.863619 0.067730 0.724258 0.114401
H38   H     H_    0.778919 0.276722 0.778057 0.132956
H39   H     H_    0.853180 0.618922 0.139426 0.120317
O1    O     O_R   0.301710 0.195650 0.554160 -0.501525
O2    O     O_R   0.635520 0.542770 0.964420 -0.488771
O3    O     O_R   0.665950 0.325030 0.970100 -0.483539
O4    O     O_R   0.522390 0.158990 0.550460 -0.489756
O5    O     O_R   0.816620 0.158530 0.074540 -0.518970
O6    O     O_R   0.004460 0.188870 0.069750 -0.498920
O7    O     O_R   0.025800 0.341780 0.072300 -0.520553
O8    O     O_R   0.807650 0.528950 0.067500 -0.503345
O9    O     O_R   0.633420 0.550490 0.071810 -0.523236
O10   O     O_R   0.664000 0.332180 0.069640 -0.501347
O11   O     O_3   0.826350 0.346390 0.019210 -0.252249
O12   O     O_R   0.658900 0.818120 0.449760 -0.503968
O13   O     O_R   0.694390 0.003530 0.554040 -0.505290
O14   O     O_R   0.657700 0.819660 0.549320 -0.491653
O15   O     O_R   0.501930 0.803280 0.552920 -0.505342
O16   O     O_R   0.318170 0.023580 0.549580 -0.494597
O17   O     O_R   0.303010 0.193990 0.446760 -0.521348
O18   O     O_R   0.523600 0.157450 0.450900 -0.500704
O19   O     O_R   0.695690 0.001860 0.446640 -0.524561
O20   O     O_R   0.503220 0.801620 0.445520 -0.524595
O21   O     O_R   0.319370 0.022040 0.450020 -0.503537
O22   O     O_3   0.499990 0.000010 0.499990 -0.244811
O23   O     O_R   0.818720 0.150820 0.967160 -0.511069
O24   O     O_R   0.006410 0.181720 0.970200 -0.499528
O25   O     O_R   0.027890 0.334070 0.964920 -0.494637
O26   O     O_R   0.809600 0.521790 0.967960 -0.501173

loop_
_geom_bond_atom_site_label_1
_geom_bond_atom_site_label_2
_ccdc_geom_bond_type
C23   Cl3   S    
C20   C93   S    
C63   C65   A    
C1    C21   S    
C23   C45   S    
C46   H7    S    
C27   C29   S    
C41   C42   A    
Cr6   O9    S    
C35   C36   A    
C18   C26   S    
C24   C27   S    
C41   H9    S    
C9    C15   S    
C2    C12   T    
C79   C87   A    
C81   C82   A    
C28   O18   A    
C47   C49   A    
C20   C30   T    
C85   C86   A    
Cr4   O23   S    
C21   C31   T    
C45   H29   S    
C29   Cl2   S    
C83   C84   A    
Cr5   O7    S    
C36   C37   A    
C76   C78   S    
C18   C19   S    
C38   C39   A    
C11   C14   S    
C66   C69   A    
C54   C68   A    
C66   C68   A    
Cr6   O2    S    
C6    C91   S    
Cr6   O3    S    
C56   C78   S    
Cr1   O22   S    
C3    H31   S    
C73   C74   A    
C61   C63   A    
C9    C13   S    
Cr4   O6    S    
C6    C15   T    
C54   C55   A    
C8    H23   S    
C4    O14   A    
C88   C92   S    
C45   C56   S    
C92   O26   A    
C8    C9    S    
C7    C17   T    
C22   C25   S    
C22   H38   S    
C45   C67   S    
C56   C64   S    
C93   O3    A    
Cr1   O17   S    
C59   C94   S    
C69   H16   S    
C4    C12   S    
C5    C14   S    
C43   C48   A    
C52   O17   A    
C49   H6    S    
C88   C89   T    
C85   C87   A    
Cr6   O10   S    
Cr2   O13   S    
Cr4   O24   S    
Cr3   O22   S    
C13   C14   S    
C80   C90   A    
Cr2   O22   S    
C67   C78   S    
C42   C44   A    
C72   C75   A    
C35   C48   A    
C81   C83   A    
C44   C46   A    
C77   C79   A    
C96   O10   A    
C74   C75   A    
C91   O25   A    
C92   O2    A    
C33   C43   A    
C91   O24   A    
Cr2   O19   S    
C35   C38   A    
C3    C11   S    
C77   H33   S    
C3    C8    S    
Cr3   O16   S    
C53   C57   A    
Cr2   O12   S    
C58   C59   A    
C82   C86   A    
C33   C37   A    
C80   H28   S    
C60   C61   A    
C95   O9    A    
C34   C67   S    
C5    C9    S    
C52   O21   A    
C53   C62   A    
C40   O12   A    
C47   C48   A    
C14   H32   S    
C60   C70   A    
Cr1   O1    S    
C23   C34   S    
C39   C95   S    
C64   C76   S    
C25   C26   S    
C65   H17   S    
C84   C85   A    
C18   H35   S    
C32   C50   A    
C37   H5    S    
C59   C69   A    
C57   H15   S    
Cr4   O11   S    
C23   C64   S    
C51   C70   A    
Cr2   O14   S    
Cr3   O21   S    
C55   C57   A    
C58   H10   S    
C22   C24   S    
C67   H25   S    
C60   H19   S    
C42   C43   A    
C19   C29   S    
C41   C50   A    
C64   H2    S    
Cr5   O26   S    
C54   C58   A    
C5    H30   S    
C46   C47   A    
C7    C16   S    
C76   H1    S    
C39   C49   A    
C18   C22   S    
C38   H39   S    
C8    C10   S    
C71   H20   S    
C80   C81   A    
C3    C5    S    
C10   C13   S    
C11   C17   S    
Cr3   O15   S    
C44   H8    S    
C63   H18   S    
C40   O20   A    
C79   C96   S    
C25   C27   S    
C84   H26   S    
C51   H11   S    
C62   C68   A    
C32   C33   A    
Cr5   O8    S    
C1    O13   A    
C19   C24   S    
C94   O7    A    
C34   C89   S    
C83   H27   S    
C10   H12   S    
C2    C56   S    
C25   H37   S    
C87   H24   S    
C74   H21   S    
C71   C90   A    
Cr6   O11   S    
Cr1   O4    S    
C40   C50   S    
C96   O5    A    
C27   H36   S    
C78   H14   S    
C75   H22   S    
Cr5   O11   S    
C13   Cl1   S    
C61   C62   A    
C24   C30   S    
C73   C86   A    
Cr1   O18   S    
C52   C70   S    
C10   C11   S    
Cr4   O5    S    
C4    O15   A    
C94   O6    A    
C26   C31   S    
C71   C72   A    
C16   O16   A    
C93   O23   A    
C26   C29   S    
Cr3   O20   S    
C65   C66   A    
C32   H3    S    
C36   H4    S    
C73   C77   A    
C16   O1    A    
C1    O4    A    
C28   C90   S    
C95   O8    A    
C51   C53   A    
C19   H34   S    
C72   C82   A    
C28   O19   A    
C34   C76   S    
Cr5   O25   S    
C55   H13   S    
