data_mof_unit_15527.cif
_audit_creation_date              2012-12-10T20:02:26-0500
_audit_creation_method            fapswitch 2.2
_symmetry_space_group_name_H-M    P1
_symmetry_Int_Tables_number       1
_space_group_crystal_system       triclinic
_cell_length_a                    10.88003
_cell_length_b                    14.852256
_cell_length_c                    14.369877
_cell_angle_alpha                 88.36685
_cell_angle_beta                  91.816958
_cell_angle_gamma                 91.273097
_cell_volume                      2319.43314742

loop_
_atom_site_label
_atom_site_type_symbol
_atom_type_description
_atom_site_fract_x
_atom_site_fract_y
_atom_site_fract_z
_atom_type_partial_charge
C1    C     C_R   0.501683 0.327483 0.501012 0.897294
C2    C     C_R   0.475481 0.824822 0.425487 0.079268
C3    C     C_R   0.523694 0.231680 0.502479 -0.058465
C4    C     C_R   0.526003 0.769273 0.496679 -0.053773
C5    C     C_R   0.606870 0.199452 0.439280 -0.323768
C6    C     C_R   0.603261 0.806122 0.566266 -0.324173
C7    C     C_R   0.631243 0.107921 0.437004 0.223755
C8    C     C_R   0.627047 0.898433 0.568273 0.224941
C9    C     C_R   0.575442 0.049670 0.502903 0.091891
C10   C     C_R   0.578131 0.953136 0.495258 0.092330
C11   C     C_R   0.427949 0.439252 0.107640 -0.314059
C12   C     C_R   0.503262 0.672623 0.498829 0.894834
C13   C     C_R   0.536404 0.571620 0.896033 -0.338099
C14   C     C_R   0.431736 0.437243 0.205359 0.205367
C15   C     C_R   0.539225 0.573081 0.797392 0.222582
C16   C     C_R   0.260257 0.502428 0.497864 0.860177
C17   C     C_R   0.739901 0.498609 0.500977 0.848580
C18   C     C_R   0.574175 0.559879 0.205734 0.278138
C19   C     C_R   0.458366 0.424668 0.795563 0.249016
C20   C     C_R   0.592121 0.550428 0.108414 0.080907
C21   C     C_R   0.467289 0.417063 0.895191 0.083398
C22   C     C_R   0.509594 0.494143 0.055419 0.031241
C23   C     C_R   0.872781 0.497425 0.500753 -0.092221
C24   C     C_R   0.505893 0.493085 0.948046 0.074927
C25   C     C_R   0.196716 0.621676 0.196790 0.056467
C26   C     C_R   0.810592 0.382539 0.796196 0.053753
C27   C     C_R   0.164409 0.604280 0.289261 -0.166901
C28   C     C_R   0.842809 0.397896 0.703793 -0.178083
C29   C     C_R   0.105688 0.523057 0.314527 0.089793
C30   C     C_R   0.894823 0.480754 0.676165 0.099658
C31   C     C_R   0.080421 0.458809 0.246313 -0.356607
C32   C     C_R   0.914236 0.548730 0.740109 -0.307731
C33   C     C_R   0.116346 0.472862 0.153570 0.239227
C34   C     C_R   0.127619 0.505018 0.493678 -0.101001
C35   C     C_R   0.883123 0.534662 0.832774 0.239726
C36   C     C_R   0.172619 0.557112 0.128369 0.158372
C37   C     C_R   0.832464 0.450470 0.861599 0.137089
C38   C     C_R   0.929588 0.504710 0.414591 -0.255476
C39   C     C_R   0.070240 0.498527 0.578878 -0.268608
C40   C     C_3   0.819780 0.039306 0.389606 -0.820512
C41   C     C_3   0.808474 0.975843 0.633326 -0.823598
C42   C     C_3   0.636349 0.719836 0.223154 -0.817613
C43   C     C_3   0.269719 0.354270 0.737266 -0.747638
C44   C     C_3   0.816035 0.561196 0.114324 -0.707907
C45   C     C_R   0.944520 0.492912 0.583259 0.035368
C46   C     C_3   0.522995 0.275782 0.976667 -0.815825
C47   C     C_3   0.111525 0.408605 0.991940 -0.792571
C48   C     C_3   0.857780 0.685294 0.888670 -0.831154
C49   C     C_R   0.056338 0.509461 0.409309 0.047363
C50   C     C_R   0.492651 0.081770 0.565708 -0.247390
C51   C     C_R   0.504696 0.916259 0.423961 -0.253710
C52   C     C_R   0.463151 0.172111 0.563907 0.081395
H1    H     H_    0.360441 0.396323 0.074866 0.213858
H2    H     H_    0.462402 0.959772 0.370737 0.150664
H3    H     H_    0.651073 0.245447 0.390144 0.163946
H4    H     H_    0.644632 0.763304 0.619879 0.165110
H5    H     H_    0.160475 0.637555 0.013195 0.187206
H6    H     H_    0.299721 0.593205 0.033711 0.202997
H7    H     H_    0.858312 0.375108 0.979605 0.190215
H8    H     H_    0.717416 0.416438 0.963576 0.221091
H9    H     H_    0.704532 0.117712 0.305471 0.223835
H10   H     H_    0.868355 0.021070 0.326212 0.236794
H11   H     H_    0.809703 0.977209 0.433442 0.260559
H12   H     H_    0.557201 0.633214 0.931878 0.146246
H13   H     H_    0.876439 0.090648 0.427242 0.235511
H14   H     H_    0.687168 0.893990 0.706853 0.220818
H15   H     H_    0.850437 0.996681 0.701033 0.235472
H16   H     H_    0.801308 0.037114 0.587930 0.259794
H17   H     H_    0.869429 0.926505 0.602238 0.237055
H18   H     H_    0.298434 0.397074 0.292607 0.222813
H19   H     H_    0.322820 0.322478 0.210512 0.162919
H20   H     H_    0.672987 0.639423 0.729930 0.194090
H21   H     H_    0.587237 0.707363 0.792678 0.142493
H22   H     H_    0.718050 0.608185 0.292776 0.234912
H23   H     H_    0.182199 0.655089 0.340905 0.142288
H24   H     H_    0.724074 0.738637 0.189669 0.225951
H25   H     H_    0.627001 0.764606 0.282726 0.264109
H26   H     H_    0.558433 0.731125 0.172662 0.225568
H27   H     H_    0.438311 0.291410 0.763457 0.213133
H28   H     H_    0.229529 0.294495 0.774339 0.196727
H29   H     H_    0.240212 0.351010 0.662890 0.266471
H30   H     H_    0.231682 0.415851 0.766845 0.222088
H31   H     H_    0.697123 0.655275 0.052633 0.225094
H32   H     H_    0.891022 0.563909 0.064494 0.280126
H33   H     H_    0.809672 0.491395 0.144207 0.231383
H34   H     H_    0.830352 0.344585 0.654159 0.132358
H35   H     H_    0.843722 0.608537 0.169669 0.210136
H36   H     H_    0.354350 0.301314 0.910475 0.233734
H37   H     H_    0.480019 0.219813 0.017885 0.238240
H38   H     H_    0.588594 0.311747 0.023824 0.257052
H39   H     H_    0.571472 0.246289 0.918680 0.248363
H40   H     H_    0.208936 0.757852 0.199012 0.180474
H41   H     H_    0.344949 0.703476 0.201179 0.205451
H42   H     H_    0.826369 0.247992 0.811657 0.182131
H43   H     H_    0.683520 0.282977 0.782344 0.189093
H44   H     H_    0.038214 0.348709 0.112641 0.214123
H45   H     H_    0.034746 0.395965 0.266404 0.149056
H46   H     H_    0.083718 0.344583 0.958281 0.221336
H47   H     H_    0.207782 0.423632 0.973612 0.260812
H48   H     H_    0.052171 0.462561 0.963723 0.266162
H49   H     H_    0.013519 0.610406 0.900564 0.219295
H50   H     H_    0.757561 0.674519 0.893225 0.251760
H51   H     H_    0.888957 0.729626 0.946097 0.240099
H52   H     H_    0.878915 0.719715 0.821224 0.228338
H53   H     H_    0.281728 0.173665 0.585588 0.174657
H54   H     H_    0.370316 0.171365 0.683137 0.177249
H55   H     H_    0.416658 0.813462 0.292576 0.179017
H56   H     H_    0.959161 0.611435 0.718578 0.155369
H57   H     H_    0.303943 0.818411 0.369312 0.166323
H58   H     H_    0.875401 0.508664 0.350078 0.163077
H59   H     H_    0.123221 0.496097 0.643935 0.176301
H60   H     H_    0.443551 0.035090 0.611425 0.147676
N1    N     N_R   0.500000 0.499980 0.252470 -0.132391
N2    N     N_2   0.403091 0.353410 0.745049 -0.247972
N3    N     N_2   0.700834 0.587252 0.067967 -0.280277
N4    N     N_2   0.428208 0.335071 0.940694 -0.331352
N5    N     N_3   0.256517 0.704952 0.171260 -0.493062
N6    N     N_3   0.761316 0.296467 0.824696 -0.490587
N7    N     N_2   0.099279 0.398887 0.091776 -0.315184
N8    N     N_2   0.919580 0.600275 0.898621 -0.295741
N9    N     N_3   0.362271 0.200669 0.616263 -0.455838
N10   N     N_3   0.389025 0.789932 0.358010 -0.458547
N11   N     N_R   0.500000 0.500020 0.747530 -0.111483
N12   N     N_3   0.205427 0.578690 0.034463 -0.474118
N13   N     N_3   0.810207 0.432417 0.957789 -0.434660
N14   N     N_2   0.700621 0.074736 0.363065 -0.306686
N15   N     N_2   0.688132 0.935756 0.648214 -0.306451
N16   N     N_3   0.366888 0.367488 0.255918 -0.409019
N17   N     N_3   0.583330 0.652072 0.749188 -0.414950
N18   N     N_2   0.638859 0.627253 0.257419 -0.255739
O1    O     O_R   0.500010 0.369070 0.579480 -0.582757
O2    O     O_R   0.499990 0.630930 0.420520 -0.577560
O3    O     O_R   0.500010 0.369060 0.420520 -0.611025
O4    O     O_R   0.499990 0.630940 0.579480 -0.605601
O5    O     O_R   0.316760 0.500010 0.579480 -0.608600
O6    O     O_R   0.683240 0.499990 0.420520 -0.645475
O7    O     O_R   0.316760 0.500000 0.420520 -0.625440
O8    O     O_R   0.683240 0.500000 0.579480 -0.612956
Zn1   Zn    Zn3+2 0.500000 0.500010 0.606140 0.975578
Zn2   Zn    Zn3+2 0.500000 0.499990 0.393860 0.958904

loop_
_geom_bond_atom_site_label_1
_geom_bond_atom_site_label_2
_ccdc_geom_bond_type
C23   C45   A    
C27   C29   A    
C41   N15   S    
C30   C45   S    
C16   O7    A    
O6    Zn2   S    
C14   N16   S    
H20   N17   S    
C41   H15   S    
C46   H37   S    
C29   C49   S    
O5    Zn1   S    
C19   N11   A    
C17   C23   S    
C47   H46   S    
C15   N11   A    
H8    N13   S    
C35   C37   A    
C43   N2    S    
C11   C14   A    
C1    O3    A    
H57   N10   S    
C48   H52   S    
N11   Zn1   S    
C33   C36   A    
C40   H10   S    
H14   N15   S    
H44   N7    S    
C16   C34   S    
O2    Zn2   S    
C44   N3    S    
C47   H47   S    
C50   C52   A    
C31   C33   A    
C17   O8    A    
C4    C12   S    
C44   H35   S    
C9    C10   S    
C11   H1    S    
C39   C45   A    
C39   H59   S    
C40   N14   S    
C12   O4    A    
C35   N8    S    
H41   N5    S    
C21   N4    S    
C27   H23   S    
C10   C51   A    
C18   N1    A    
C41   H16   S    
C37   N13   S    
C2    N10   S    
H43   N6    S    
O7    Zn2   S    
H21   N17   S    
C34   C39   A    
C32   C35   A    
H31   N3    S    
C4    C6    A    
C2    C51   A    
O4    Zn1   S    
C5    C7    A    
C6    C8    A    
C46   H39   S    
C19   N2    S    
C44   H32   S    
C43   H28   S    
C48   H51   S    
C47   H48   S    
C13   C24   A    
C1    C3    S    
H36   N4    S    
C2    C4    A    
H40   N5    S    
C52   N9    S    
C8    N15   S    
C15   N17   S    
C48   H50   S    
C17   O6    A    
C50   H60   S    
N1    Zn2   S    
H53   N9    S    
C42   N18   S    
C40   H11   S    
H9    N14   S    
O3    Zn2   S    
C20   C22   A    
C33   N7    S    
C40   H13   S    
C13   C15   A    
C28   H34   S    
C43   H29   S    
C22   C24   S    
H19   N16   S    
C18   N18   S    
C38   H58   S    
C21   C24   A    
C44   H33   S    
C23   C38   A    
C38   C49   A    
C47   N7    S    
C48   N8    S    
C41   H17   S    
H18   N16   S    
C7    C9    A    
C34   C49   A    
C12   O2    A    
C36   N12   S    
H49   N8    S    
C42   H24   S    
C5    H3    S    
C9    C50   A    
C26   N6    S    
C6    H4    S    
H6    N12   S    
C3    C5    A    
C25   N5    S    
C20   N3    S    
C3    C52   A    
C26   C37   A    
C42   H26   S    
C46   H38   S    
C25   C27   A    
C14   N1    A    
C11   C22   A    
C26   C28   A    
C46   N4    S    
C51   H2    S    
H22   N18   S    
C29   C31   A    
H7    N13   S    
H5    N12   S    
C30   C32   A    
H42   N6    S    
C13   H12   S    
C1    O1    A    
H54   N9    S    
C28   C30   A    
C18   C20   A    
C31   H45   S    
C7    N14   S    
O1    Zn1   S    
O8    Zn1   S    
C25   C36   A    
C42   H25   S    
C8    C10   A    
C32   H56   S    
H27   N2    S    
C43   H30   S    
H55   N10   S    
C16   O5    A    
C19   C21   A    
