data_mof_unit_24805.cif
_audit_creation_date              2012-12-11T20:55:34-0500
_audit_creation_method            fapswitch 2.2
_symmetry_space_group_name_H-M    P1
_symmetry_Int_Tables_number       1
_space_group_crystal_system       triclinic
_cell_length_a                    8.275997
_cell_length_b                    19.119966
_cell_length_c                    22.800654
_cell_angle_alpha                 99.732409
_cell_angle_beta                  89.97731
_cell_angle_gamma                 91.876162
_cell_volume                      3554.02256754

loop_
_atom_site_label
_atom_site_type_symbol
_atom_type_description
_atom_site_fract_x
_atom_site_fract_y
_atom_site_fract_z
_atom_type_partial_charge
Ba1   Ba    Ba6+2 0.157290 0.533910 0.474710 1.644845
Ba2   Ba    Ba6+2 0.652900 0.466090 0.525240 1.643463
C1    C     C_3   0.430623 0.794219 0.291050 -0.348976
C2    C     C_R   0.989327 0.271924 0.479597 0.055426
C3    C     C_R   0.137784 0.188465 0.551120 -0.155242
C4    C     C_3   0.931286 0.721378 0.351746 0.384243
C5    C     C_R   0.205517 0.254761 0.544980 0.001250
C6    C     C_R   0.672827 0.812054 0.450581 -0.161187
C7    C     C_R   0.603951 0.746051 0.457390 0.009249
C8    C     C_R   0.860589 0.801863 0.529166 -0.149102
C9    C     C_R   0.821950 0.728118 0.521186 0.054462
C10   C     C_R   0.020480 0.153895 0.509981 0.001544
C11   C     C_R   0.120560 0.298807 0.514861 -0.245643
C12   C     C_3   0.426670 0.732196 0.325469 0.362018
C13   C     C_R   0.793839 0.845807 0.490568 -0.000938
C14   C     C_R   0.686921 0.702187 0.488100 -0.245528
C15   C     C_R   0.225024 0.034190 0.545357 -0.077351
C16   C     C_3   0.935435 0.792625 0.330396 -0.366449
C17   C     C_R   0.314382 0.981230 0.564037 0.071378
C18   C     C_R   0.271914 0.911060 0.542108 -0.060303
C19   C     C_R   0.132087 0.895434 0.508205 -0.100548
C20   C     C_R   0.014598 0.946644 0.507325 0.010778
C21   C     C_R   0.067441 0.020066 0.520343 0.021494
C22   C     C_R   0.851200 0.924558 0.492025 -0.010476
C23   C     C_3   0.483507 0.684096 0.620103 0.308664
C24   C     C_R   0.745123 0.979538 0.482372 0.039858
C25   C     C_R   0.799634 0.052934 0.492949 0.011003
C26   C     C_R   0.963150 0.075027 0.508644 -0.012185
C27   C     C_R   0.581833 0.965160 0.463751 -0.074179
C28   C     C_3   0.820772 0.373883 0.341719 0.300109
C29   C     C_R   0.485843 0.017257 0.447980 -0.083712
C30   C     C_R   0.533562 0.087501 0.464237 -0.063449
C31   C     C_R   0.682448 0.104348 0.491813 -0.085525
C32   C     C_R   0.644883 0.522533 0.334660 -0.303410
C33   C     C_R   0.379381 0.557706 0.946086 -0.024444
C34   C     C_3   0.488907 0.764423 0.638094 -0.379353
C35   C     C_R   0.327829 0.554747 0.886774 0.585762
C36   C     C_R   0.243480 0.432244 0.880831 0.581045
C37   C     C_R   0.295662 0.433204 0.939967 -0.022265
C38   C     C_R   0.364077 0.496397 0.972657 -0.051948
C39   C     C_R   0.446526 0.620570 0.979349 -0.077488
C40   C     C_3   0.817503 0.354138 0.274227 -0.359909
C41   C     C_R   0.497736 0.622601 0.037896 -0.075497
C42   C     C_R   0.483953 0.561756 0.064965 -0.017470
C43   C     C_R   0.417305 0.498377 0.032208 -0.053767
C44   C     C_R   0.282520 0.372339 0.967022 -0.076758
C45   C     C_3   0.881615 0.283284 0.649449 0.361352
C46   C     C_R   0.336819 0.374086 0.025320 -0.073982
C47   C     C_R   0.404397 0.436958 0.058642 -0.025087
C48   C     C_R   0.459310 0.439770 0.117736 0.590232
C49   C     C_R   0.534258 0.563331 0.124243 0.580805
C50   C     C_2   0.065213 0.474455 0.772902 -0.069885
C51   C     C_3   0.020575 0.481513 0.709570 -0.056561
C52   C     C_3   0.998345 0.631294 0.659679 0.299588
C53   C     C_1   0.302961 0.509893 0.693637 0.016615
C54   C     C_2   0.344813 0.508049 0.749337 -0.092492
C55   C     C_2   0.219476 0.489856 0.792501 0.213186
C56   C     C_3   0.872281 0.211125 0.669200 -0.361636
C57   C     C_R   0.715434 0.538450 0.234607 -0.100249
C58   C     C_R   0.753407 0.546736 0.295313 -0.025957
C59   C     C_R   0.502622 0.485882 0.313745 0.029015
C60   C     C_R   0.460964 0.479213 0.253240 -0.098946
C61   C     C_R   0.565914 0.506563 0.212909 0.200232
C62   C     C_2   0.169067 0.477320 0.670674 -0.285172
C63   C     C_3   0.036921 0.660474 0.724716 -0.360695
C64   C     C_3   0.320692 0.317474 0.394506 0.317023
C65   C     C_3   0.318927 0.237009 0.377612 -0.377887
C66   C     C_3   0.377840 0.663199 0.284669 -0.294770
C67   C     C_3   0.388814 0.297259 0.680175 0.306518
C68   C     C_3   0.461756 0.000265 0.602757 -0.407278
C69   C     C_3   0.451217 0.282990 0.739546 -0.358482
C70   C     C_R   0.955218 0.197585 0.470640 -0.150781
H1    H     H_    0.736030 0.306878 0.260519 0.139490
H2    H     H_    0.401363 0.333118 0.433718 0.082778
H3    H     H_    0.311760 0.799317 0.269979 0.117038
H4    H     H_    0.235024 0.219458 0.339586 0.126129
H5    H     H_    0.278366 0.212087 0.415812 0.057575
H6    H     H_    0.442426 0.219133 0.364958 0.128827
H7    H     H_    0.552424 0.727274 0.340362 -0.037278
H8    H     H_    0.523930 0.786056 0.255708 0.100322
H9    H     H_    0.608043 0.666576 0.609312 0.018156
H10   H     H_    0.405440 0.670402 0.579924 0.074193
H11   H     H_    0.567969 0.780319 0.677766 0.130912
H12   H     H_    0.773028 0.398537 0.253948 0.070677
H13   H     H_    0.537807 0.789478 0.600995 0.055177
H14   H     H_    0.365175 0.783527 0.648594 0.124838
H15   H     H_    0.461405 0.844459 0.321723 0.099667
H16   H     H_    0.849553 0.790920 0.292727 0.114303
H17   H     H_    0.786388 0.284003 0.615243 0.100196
H18   H     H_    0.001908 0.291213 0.630343 -0.053695
H19   H     H_    0.756511 0.204401 0.692525 0.141925
H20   H     H_    0.878000 0.168193 0.629973 0.069107
H21   H     H_    0.974472 0.206465 0.699709 0.118782
H22   H     H_    0.261480 0.276790 0.674736 -0.021160
H23   H     H_    0.941225 0.341978 0.257458 0.129549
H24   H     H_    0.393791 0.355653 0.681086 0.045874
H25   H     H_    0.372587 0.308183 0.775873 0.135222
H26   H     H_    0.576040 0.305495 0.747704 0.157549
H27   H     H_    0.008087 0.725760 0.392260 0.085748
H28   H     H_    0.450854 0.224927 0.739701 0.112030
H29   H     H_    0.871600 0.175539 0.435424 0.076144
H30   H     H_    0.173258 0.167203 0.589854 0.061473
H31   H     H_    0.630724 0.835570 0.413877 0.056671
H32   H     H_    0.946990 0.823221 0.563596 0.079170
H33   H     H_    0.162680 0.353201 0.516104 0.061326
H34   H     H_    0.111057 0.613045 0.636867 0.023227
H35   H     H_    0.641435 0.648582 0.488607 0.065182
H36   H     H_    0.290089 0.083422 0.548070 0.076757
H37   H     H_    0.350317 0.869193 0.549367 0.100152
H38   H     H_    0.805161 0.708275 0.363039 -0.077247
H39   H     H_    0.110991 0.842426 0.484717 0.129459
H40   H     H_    0.517209 0.916457 0.465141 0.076318
H41   H     H_    0.365038 0.003665 0.430565 0.077162
H42   H     H_    0.449899 0.128372 0.459403 0.098483
H43   H     H_    0.706195 0.157789 0.513350 0.128177
H44   H     H_    0.324898 0.325965 0.044343 0.123792
H45   H     H_    0.908991 0.586323 0.656818 0.036619
H46   H     H_    0.230948 0.322908 0.943044 0.121758
H47   H     H_    0.548433 0.672184 0.061929 0.123160
H48   H     H_    0.801875 0.556802 0.204474 0.117328
H49   H     H_    0.459788 0.668560 0.960196 0.124312
H50   H     H_    0.901830 0.835512 0.366915 0.068984
H51   H     H_    0.468547 0.520607 0.764167 0.108430
H52   H     H_    0.970929 0.463918 0.803671 0.098767
H53   H     H_    0.347230 0.452992 0.237796 0.122601
H54   H     H_    0.676550 0.528081 0.381295 0.081545
H55   H     H_    0.166643 0.447958 0.625503 0.065456
H56   H     H_    0.118497 0.708283 0.727860 0.147685
H57   H     H_    0.058823 0.805240 0.315584 0.141005
H58   H     H_    0.696747 0.385312 0.357628 0.013760
H59   H     H_    0.901569 0.421597 0.354334 0.059862
H60   H     H_    0.358767 0.620227 0.311256 0.123088
H61   H     H_    0.265863 0.668926 0.259473 0.156341
H62   H     H_    0.476103 0.648203 0.252763 0.112119
H63   H     H_    0.544381 0.037028 0.583523 0.130258
H64   H     H_    0.423906 0.027233 0.647373 0.122157
H65   H     H_    0.529105 0.952423 0.608203 0.113138
H66   H     H_    0.098127 0.620734 0.746119 0.082167
H67   H     H_    0.923651 0.675200 0.749204 0.119143
H68   H     H_    0.196905 0.334569 0.405655 0.000781
N1    N     N_R   0.262640 0.492273 0.854583 -0.428121
N2    N     N_R   0.520004 0.502988 0.150635 -0.423536
O1    O     O_2   0.108070 0.674980 0.540650 -0.456712
O2    O     O_2   0.688186 0.445169 0.697660 -0.482680
O3    O     O_3   0.860387 0.336299 0.698945 -0.595800
O4    O     O_3   0.861930 0.586170 0.535430 -0.486220
O5    O     O_3   0.451480 0.461630 0.428900 -0.493700
O6    O     O_2   0.599240 0.538720 0.642170 -0.458942
O7    O     O_3   0.421491 0.652910 0.667323 -0.634346
O8    O     O_2   0.529028 0.247472 0.518852 -0.507698
O9    O     O_3   0.485467 0.262526 0.634335 -0.599698
O10   O     O_2   0.339781 0.608020 0.863817 -0.594389
O11   O     O_2   0.182403 0.377845 0.852536 -0.603480
O12   O     O_3   0.375155 0.347329 0.345923 -0.626449
O13   O     O_2   0.454852 0.385642 0.139619 -0.596477
O14   O     O_2   0.589617 0.618917 0.152495 -0.616619
O15   O     O_3   0.366390 0.628250 0.433820 -0.465719
O16   O     O_2   0.287008 0.751686 0.487961 -0.505287
O17   O     O_3   0.932231 0.685628 0.634650 -0.636100
O18   O     O_3   0.315505 0.745735 0.372714 -0.589510
O19   O     O_2   0.211060 0.461230 0.357810 -0.458642
O20   O     O_3   0.958150 0.591500 0.402390 -0.487969
O21   O     O_2   0.087769 0.540550 0.296624 -0.487542
O22   O     O_3   0.989642 0.669615 0.306426 -0.593994
O23   O     O_2   0.702240 0.324970 0.459330 -0.461725
O24   O     O_3   0.948380 0.413820 0.464520 -0.491412
O25   O     O_3   0.443920 0.371740 0.566130 -0.462829
O26   O     O_3   0.877661 0.316326 0.365138 -0.631807
O27   O     O_3   0.358830 0.538360 0.571050 -0.480095
O28   O     O_3   0.852160 0.408490 0.597560 -0.488218
P1    P     P_3+3 0.933470 0.664380 0.557030 0.981947
P2    P     P_3+3 0.383600 0.440030 0.365120 0.993127
P3    P     P_3+3 0.947789 0.585853 0.324944 0.957235
P4    P     P_3+3 0.876840 0.335610 0.442930 0.982101
P5    P     P_3+3 0.855735 0.418893 0.675600 0.971005
P6    P     P_3+3 0.395127 0.719050 0.436364 0.931516
P7    P     P_3+3 0.417543 0.560495 0.645693 0.959355
P8    P     P_3+3 0.413639 0.282197 0.567221 0.920595

loop_
_geom_bond_atom_site_label_1
_geom_bond_atom_site_label_2
_ccdc_geom_bond_type
C68   H64   S    
C53   C54   D    
C45   O3    S    
C9    P1    S    
C57   H48   S    
C53   P7    S    
C27   H40   S    
C17   C18   A    
C65   H5    S    
C67   H24   S    
C50   H52   S    
O20   P3    S    
C25   C31   A    
O26   P4    S    
C69   H25   S    
C24   C25   A    
O6    P7    D    
O17   P1    S    
C10   C26   S    
C68   H65   S    
C66   H61   S    
C33   C35   A    
C56   H21   S    
C22   C24   A    
C8    C13   A    
C36   C37   A    
C51   C62   S    
C70   H29   S    
C34   H11   S    
Ba2   O6    S    
C28   H59   S    
C64   H2    S    
C54   C55   S    
C44   H46   S    
C7    P6    S    
C23   O7    S    
Ba1   Ba2   S    
C39   H49   S    
C2    C11   A    
C67   C69   S    
C14   H35   S    
C15   C17   A    
C52   O17   S    
O19   P2    D    
O3    P5    S    
C6    C7    A    
C1    H3    S    
C56   H19   S    
Ba2   O24   S    
C46   H44   S    
C32   C58   A    
C64   C65   S    
C10   C70   A    
Ba1   O19   S    
C57   C58   A    
C2    P4    S    
C19   C20   A    
C23   H9    S    
C58   P3    S    
O18   P6    S    
Ba1   O4    S    
C65   H6    S    
C1    H8    S    
O27   P7    S    
C19   H39   S    
O28   P5    S    
C38   C43   A    
C4    C16   S    
C69   H26   S    
C44   C46   A    
C49   O14   D    
C31   H43   S    
C42   C43   A    
O24   P4    S    
C52   H34   S    
C1    H15   S    
C40   H23   S    
C67   O9    S    
C63   H56   S    
C40   H12   S    
C3    C10   A    
C11   H33   S    
C67   H22   S    
C8    C9    A    
C15   H36   S    
C37   C38   A    
C52   C63   S    
O9    P8    S    
O15   P6    S    
C34   H14   S    
O23   P4    D    
C28   H58   S    
Ba1   P1    S    
C32   C59   A    
C16   H16   S    
C5    P8    S    
C12   O18   S    
C66   H60   S    
C4    H38   S    
C64   O12   S    
C41   C42   A    
C54   H51   S    
C60   C61   A    
Ba1   O1    S    
C9    C14   A    
C29   C30   A    
C43   C47   A    
C48   O13   D    
C32   H54   S    
C62   H55   S    
C53   C62   D    
O7    P7    S    
O12   P2    S    
O22   P3    S    
C59   P2    S    
C15   C21   A    
C21   C26   A    
Ba2   O23   S    
C1    C12   S    
C35   N1    Am   
C16   H50   S    
C37   C44   A    
C63   H66   S    
C42   C49   A    
O16   P6    D    
C46   C47   A    
Ba2   O28   S    
Ba1   O20   S    
C45   H17   S    
C6    C13   A    
C68   H63   S    
C36   N1    Am   
C20   C22   A    
Ba1   O5    S    
C35   O10   D    
O21   P3    D    
C2    C70   A    
C50   C51   S    
C51   P5    S    
C3    C5    A    
C49   N2    Am   
C3    H30   S    
C13   C22   S    
C40   H1    S    
C23   C34   S    
C7    C14   A    
C39   C41   A    
C4    O22   S    
C16   H57   S    
C60   H53   S    
C34   H13   S    
Ba2   O4    S    
C69   H28   S    
Ba1   P2    S    
C57   C61   A    
C55   N1    S    
C4    H27   S    
C66   H62   S    
C33   C38   A    
Ba2   O5    S    
O1    P1    D    
Ba1   O15   S    
C27   C29   A    
O8    P8    D    
C30   C31   A    
C45   C56   S    
C8    H32   S    
C23   H10   S    
Ba1   O24   S    
O2    P5    D    
Ba1   O27   S    
C45   H18   S    
C61   N2    S    
C59   C60   A    
C33   C39   A    
C6    H31   S    
C12   H7    S    
C50   C55   D    
Ba2   O27   S    
C28   O26   S    
C18   H37   S    
C63   H67   S    
C5    C11   A    
O25   P8    S    
C64   H68   S    
C18   C19   A    
O5    P2    S    
C24   C27   A    
C47   C48   A    
C52   H45   S    
C25   C26   A    
C12   C66   S    
C20   C21   A    
C28   C40   S    
C17   C68   S    
C65   H4    S    
C36   O11   D    
C30   H42   S    
O4    P1    S    
C56   H20   S    
Ba2   O25   S    
C29   H41   S    
Ba2   P4    S    
C48   N2    Am   
C41   H47   S    
