data_mof_unit_6191.cif
_audit_creation_date              2012-12-11T16:48:25-0500
_audit_creation_method            fapswitch 2.2
_symmetry_space_group_name_H-M    P1
_symmetry_Int_Tables_number       1
_space_group_crystal_system       triclinic
_cell_length_a                    17.303667
_cell_length_b                    24.378066
_cell_length_c                    14.976204
_cell_angle_alpha                 89.87875
_cell_angle_beta                  125.521273
_cell_angle_gamma                 90.232029
_cell_volume                      5141.69767216

loop_
_atom_site_label
_atom_site_type_symbol
_atom_type_description
_atom_site_fract_x
_atom_site_fract_y
_atom_site_fract_z
_atom_type_partial_charge
C1    C     C_R   0.352575 0.348038 0.908401 -0.159349
C2    C     C_R   0.440066 0.497882 0.636353 0.103057
C3    C     C_R   0.057178 0.847861 0.908188 -0.055127
C4    C     C_R   0.381090 0.315836 0.998202 0.092178
C5    C     C_R   0.615792 0.315747 0.999576 0.072306
C6    C     C_R   0.881543 0.815843 0.997768 0.090679
C7    C     C_R   0.116766 0.816048 0.000207 0.067119
C8    C     C_R   0.958064 0.996448 0.284254 0.061410
C9    C     C_R   0.940132 0.997842 0.636385 0.099066
C10   C     C_R   0.186227 0.497199 0.649035 0.240910
C11   C     C_R   0.825085 0.498946 0.278326 0.208850
C12   C     C_R   0.703717 0.999466 0.630959 0.204568
C13   C     C_R   0.326030 0.996970 0.310496 0.242685
C14   C     C_2   0.985884 0.460806 0.357589 0.467962
C15   C     C_2   0.083256 0.466431 0.457357 0.455034
C16   C     C_2   0.481133 0.965080 0.361890 0.460581
C17   C     C_R   0.643874 0.347243 0.090034 -0.134979
C18   C     C_2   0.583821 0.960490 0.446937 0.454619
C19   C     C_2   0.926558 0.503154 0.329144 -0.392191
C20   C     C_2   0.097111 0.495399 0.542364 -0.446913
C21   C     C_2   0.428118 0.994975 0.383460 -0.452777
C22   C     C_2   0.628835 0.003408 0.513967 -0.398984
C23   C     C_R   0.265830 0.693186 0.101938 0.143133
C24   C     C_R   0.733916 0.691151 0.894262 0.169873
C25   C     C_R   0.763272 0.192016 0.100482 0.143829
C26   C     C_R   0.236005 0.189606 0.894995 0.172563
C27   C     C_R   0.246910 0.674556 0.002543 0.043096
C28   C     C_R   0.852830 0.848095 0.908123 -0.155473
C29   C     C_R   0.754268 0.671389 0.993569 0.032993
C30   C     C_R   0.745330 0.173777 0.001307 0.042941
C31   C     C_R   0.257338 0.168725 0.994177 0.032736
C32   C     C_R   0.158279 0.687302 0.905143 -0.169019
C33   C     C_R   0.842782 0.684530 0.090829 -0.156281
C34   C     C_R   0.657429 0.187225 0.903505 -0.168181
C35   C     C_R   0.345330 0.182834 0.091421 -0.153353
C36   C     C_R   0.603398 0.229559 0.903824 -0.172300
C37   C     C_R   0.396114 0.227667 0.091593 -0.159369
C38   C     C_R   0.104121 0.729494 0.905536 -0.171839
C39   C     C_R   0.144826 0.847594 0.090520 -0.114316
C40   C     C_R   0.895462 0.728091 0.090814 -0.157120
C41   C     C_R   0.637941 0.258018 0.001997 0.028796
C42   C     C_R   0.358504 0.257840 0.994367 0.014800
C43   C     C_R   0.139407 0.758449 0.003361 0.027288
C44   C     C_R   0.858629 0.758025 0.993530 0.014712
C45   C     C_R   0.408168 0.632276 0.090169 -0.124151
C46   C     C_R   0.595843 0.625528 0.907193 -0.122030
C47   C     C_R   0.907354 0.131884 0.089757 -0.122962
C48   C     C_R   0.097519 0.123962 0.907808 -0.121735
C49   C     C_R   0.709474 0.233347 0.100848 0.132204
C50   C     C_R   0.319755 0.647076 0.999313 0.070318
C51   C     C_R   0.286214 0.233647 0.895128 0.145377
C52   C     C_R   0.212070 0.734453 0.102395 0.137431
C53   C     C_R   0.785575 0.734201 0.894185 0.141876
C54   C     C_3   0.793120 0.257354 0.205043 -0.454108
C55   C     C_3   0.199579 0.257941 0.794716 -0.485858
C56   C     C_3   0.296207 0.759201 0.205260 -0.463453
C57   C     C_3   0.699419 0.758883 0.793558 -0.477953
C58   C     C_3   0.354982 0.714309 0.204429 -0.488573
C59   C     C_3   0.643102 0.711688 0.793641 -0.511756
C60   C     C_3   0.851991 0.212500 0.204258 -0.488603
C61   C     C_R   0.681180 0.644335 0.997173 0.072428
C62   C     C_3   0.144598 0.209895 0.794623 -0.510752
C63   C     C_R   0.411906 0.445295 0.479456 0.023691
C64   C     C_R   0.409784 0.444010 0.386396 0.074883
C65   C     C_R   0.912012 0.945224 0.479550 -0.004048
C66   C     C_R   0.909966 0.943951 0.386535 0.075915
C67   C     C_R   0.407885 0.495050 0.522952 0.119728
C68   C     C_R   0.412471 0.493521 0.340534 0.044574
C69   C     C_R   0.907858 0.994976 0.522962 0.100030
C70   C     C_R   0.912622 0.993472 0.340680 0.049147
C71   C     C_R   0.382922 0.542571 0.458386 -0.161827
C72   C     C_R   0.818572 0.146255 0.998628 0.069851
C73   C     C_R   0.385575 0.541856 0.366880 -0.158010
C74   C     C_R   0.882841 0.042487 0.458357 -0.170956
C75   C     C_R   0.885603 0.041784 0.366929 -0.153911
C76   C     C_3   0.471621 0.393934 0.425105 0.174353
C77   C     C_3   0.476408 0.396485 0.529116 0.163906
C78   C     C_3   0.971919 0.893924 0.425320 0.174473
C79   C     C_3   0.976669 0.896474 0.529306 0.178180
C80   C     C_R   0.481294 0.452063 0.248162 -0.136916
C81   C     C_R   0.452927 0.453004 0.699114 0.026207
C82   C     C_R   0.981370 0.952046 0.248228 -0.138416
C83   C     C_R   0.184619 0.140927 0.998103 0.072371
C84   C     C_R   0.953071 0.952977 0.699195 0.010426
C85   C     C_R   0.237707 0.544014 0.703585 -0.161789
C86   C     C_R   0.769889 0.544373 0.258063 -0.153898
C87   C     C_R   0.748387 0.044850 0.695533 -0.169624
C88   C     C_R   0.270335 0.043711 0.277225 -0.157399
C89   C     C_R   0.490782 0.543213 0.262439 -0.110551
C90   C     C_R   0.453701 0.544269 0.697332 -0.152504
C91   C     C_R   0.990963 0.043199 0.262634 -0.111292
C92   C     C_R   0.953722 0.044243 0.697315 -0.150998
C93   C     C_R   0.239154 0.452194 0.707896 -0.074646
C94   C     C_R   0.457895 0.496471 0.284079 0.061685
C95   C     C_R   0.767463 0.453018 0.249198 -0.071825
C96   C     C_R   0.747608 0.953695 0.696414 -0.101372
C97   C     C_R   0.267320 0.951918 0.267466 -0.042184
C98   C     C_R   0.313496 0.629528 0.907028 -0.108717
C99   C     C_R   0.683174 0.632987 0.089505 -0.102919
C100  C     C_R   0.812646 0.128600 0.906543 -0.109033
C101  C     C_R   0.187100 0.128986 0.090703 -0.086885
C102  C     C_R   0.442959 0.347089 0.090511 -0.099869
C103  C     C_R   0.556769 0.347838 0.907893 -0.058951
C104  C     C_R   0.943158 0.847017 0.090304 -0.102105
Cl1   Cl    Cl    0.407446 0.335203 0.343334 -0.651708
Cl2   Cl    Cl    0.594574 0.412259 0.645128 -0.647006
Cl3   Cl    Cl    0.907889 0.835144 0.343626 -0.653662
Cl4   Cl    Cl    0.094791 0.912356 0.645300 -0.637466
Cl5   Cl    Cl    0.950754 0.397444 0.287611 -0.620901
Cl6   Cl    Cl    0.176764 0.432500 0.464278 -0.623556
Cl7   Cl    Cl    0.430609 0.928486 0.237697 -0.580308
Cl8   Cl    Cl    0.640605 0.897887 0.460391 -0.621865
H1    H     H_    0.318413 0.334463 0.824855 0.106180
H2    H     H_    0.865540 0.666363 0.168502 0.135806
H3    H     H_    0.635822 0.170400 0.825394 0.130818
H4    H     H_    0.368949 0.164358 0.169118 0.137631
H5    H     H_    0.542901 0.244233 0.825807 0.132405
H6    H     H_    0.456889 0.242262 0.169616 0.145639
H7    H     H_    0.042831 0.743698 0.827646 0.132626
H8    H     H_    0.956811 0.742292 0.168792 0.145028
H9    H     H_    0.814662 0.298516 0.194498 0.248155
H10   H     H_    0.177661 0.297508 0.810429 0.210709
H11   H     H_    0.316869 0.800317 0.193130 0.240816
H12   H     H_    0.675042 0.332866 0.172517 0.098164
H13   H     H_    0.678367 0.798857 0.808967 0.211684
H14   H     H_    0.786315 0.253763 0.274219 0.188249
H15   H     H_    0.203611 0.257900 0.723280 0.201259
H16   H     H_    0.290667 0.756081 0.275436 0.187450
H17   H     H_    0.703373 0.758195 0.722075 0.204611
H18   H     H_    0.407467 0.730763 0.190870 0.223624
H19   H     H_    0.590557 0.725070 0.809249 0.208047
H20   H     H_    0.905358 0.229185 0.192361 0.224782
H21   H     H_    0.091863 0.222491 0.810462 0.207026
H22   H     H_    0.383861 0.685470 0.274542 0.183866
H23   H     H_    0.818819 0.834702 0.824487 0.108537
H24   H     H_    0.614844 0.683776 0.722323 0.198166
H25   H     H_    0.879816 0.183222 0.273507 0.183068
H26   H     H_    0.116801 0.182298 0.722958 0.198767
H27   H     H_    0.372437 0.581392 0.484662 0.117325
H28   H     H_    0.378187 0.580243 0.326189 0.116966
H29   H     H_    0.872265 0.081299 0.484574 0.118009
H30   H     H_    0.878191 0.080162 0.326217 0.115692
H31   H     H_    0.541229 0.400389 0.438338 0.131672
H32   H     H_    0.443089 0.360895 0.541281 0.148042
H33   H     H_    0.041513 0.900438 0.438549 0.130840
H34   H     H_    0.176420 0.833370 0.173181 0.090854
H35   H     H_    0.943459 0.860844 0.541528 0.144316
H36   H     H_    0.440474 0.643216 0.173578 0.099960
H37   H     H_    0.570370 0.626570 0.822417 0.111170
H38   H     H_    0.939296 0.142846 0.173059 0.099336
H39   H     H_    0.071930 0.125163 0.823021 0.112397
H40   H     H_    0.465066 0.409610 0.249015 0.154425
H41   H     H_    0.432635 0.411084 0.671915 0.098074
H42   H     H_    0.965124 0.909587 0.249024 0.154973
H43   H     H_    0.932804 0.911050 0.672032 0.093358
H44   H     H_    0.221458 0.585393 0.671681 0.109667
H45   H     H_    0.956555 0.543622 0.361730 0.122784
H46   H     H_    0.796115 0.585440 0.284152 0.103469
H47   H     H_    0.739766 0.086623 0.666632 0.107117
H48   H     H_    0.294843 0.084795 0.307262 0.108021
H49   H     H_    0.494195 0.583720 0.292633 0.089524
H50   H     H_    0.435686 0.585955 0.667585 0.091792
H51   H     H_    0.994521 0.083699 0.292957 0.089611
H52   H     H_    0.935624 0.085917 0.667508 0.090103
H53   H     H_    0.224154 0.409635 0.682964 0.134754
H54   H     H_    0.786772 0.410409 0.258102 0.152752
H55   H     H_    0.737337 0.911337 0.671550 0.156851
H56   H     H_    0.039427 0.516694 0.536682 0.139132
H57   H     H_    0.286981 0.909098 0.282669 0.123549
H58   H     H_    0.255618 0.635510 0.822106 0.096955
H59   H     H_    0.734096 0.648431 0.170932 0.105675
H60   H     H_    0.754320 0.133407 0.821294 0.099268
H61   H     H_    0.242222 0.140204 0.173849 0.100784
H62   H     H_    0.489443 0.332452 0.173912 0.109711
H63   H     H_    0.511908 0.334475 0.823428 0.090436
H64   H     H_    0.989574 0.832347 0.173688 0.109660
H65   H     H_    0.012398 0.834308 0.823837 0.090570
H66   H     H_    0.459862 0.017910 0.459250 0.140168
H67   H     H_    0.596468 0.043771 0.487521 0.127167
H68   H     H_    0.136038 0.670003 0.827133 0.130674
N1    N     N_R   0.395410 0.396350 0.944340 -0.043713
N2    N     N_R   0.474920 0.471030 0.794350 -0.052755
N3    N     N_R   0.025080 0.971030 0.205650 -0.047283
N4    N     N_R   0.974920 0.971030 0.794350 -0.049708
N5    N     N_R   0.320260 0.527820 0.794570 -0.050475
N6    N     N_R   0.679740 0.527820 0.205430 -0.046415
N7    N     N_R   0.820260 0.027820 0.794570 -0.046203
N8    N     N_R   0.179740 0.027820 0.205430 -0.048799
N9    N     N_R   0.524590 0.527840 0.205200 -0.041426
N10   N     N_R   0.475410 0.527840 0.794800 -0.043492
N11   N     N_R   0.024590 0.027840 0.205200 -0.041820
N12   N     N_R   0.604590 0.396350 0.055660 -0.041663
N13   N     N_R   0.975410 0.027840 0.794800 -0.041766
N14   N     N_R   0.320750 0.471000 0.795020 -0.060633
N15   N     N_R   0.679250 0.471000 0.204980 -0.061092
N16   N     N_R   0.820750 0.971000 0.795020 -0.058490
N17   N     N_R   0.179250 0.971000 0.204980 -0.061115
N18   N     N_R   0.393620 0.602490 0.942710 -0.043520
N19   N     N_R   0.606380 0.602490 0.057290 -0.042106
N20   N     N_R   0.893620 0.102490 0.942710 -0.043690
N21   N     N_R   0.106380 0.102490 0.057290 -0.043375
N22   N     N_R   0.451720 0.396350 0.057510 -0.047442
N23   N     N_R   0.895410 0.896350 0.944340 -0.043396
N24   N     N_R   0.548280 0.396350 0.942490 -0.042981
N25   N     N_R   0.951720 0.896350 0.057510 -0.048153
N26   N     N_R   0.048280 0.896350 0.942490 -0.042072
N27   N     N_R   0.104590 0.896350 0.055660 -0.038704
N28   N     N_R   0.449930 0.602500 0.055880 -0.042248
N29   N     N_R   0.550070 0.602500 0.944120 -0.042959
N30   N     N_R   0.949930 0.102500 0.055880 -0.042361
N31   N     N_R   0.050070 0.102500 0.944120 -0.044011
N32   N     N_R   0.525080 0.471030 0.205650 -0.045986
Ni1   Ni    Ni4+2 0.435420 0.434270 0.870230 0.226123
Ni2   Ni    Ni4+2 0.564580 0.434270 0.129770 0.218327
Ni3   Ni    Ni4+2 0.935420 0.934270 0.870230 0.224302
Ni4   Ni    Ni4+2 0.064580 0.934270 0.129770 0.219947
Ni5   Ni    Ni4+2 0.563430 0.564580 0.128740 0.236538
Ni6   Ni    Ni4+2 0.436570 0.564580 0.871260 0.224503
Ni7   Ni    Ni4+2 0.063430 0.064580 0.128740 0.236870
Ni8   Ni    Ni4+2 0.936570 0.064580 0.871260 0.222317

loop_
_geom_bond_atom_site_label_1
_geom_bond_atom_site_label_2
_ccdc_geom_bond_type
N26   Ni3   S    
C14   Cl5   S    
C5    C103  A    
C10   C85   A    
C16   C21   D    
C65   C79   S    
C12   C22   S    
N7    N16   A    
N13   Ni8   S    
C45   H36   S    
C101  H61   S    
C93   N14   A    
N19   Ni5   S    
N5    N14   A    
C60   H20   S    
N14   Ni1   S    
C1    N1    A    
C81   H41   S    
C104  H64   S    
C54   C60   S    
C58   H22   S    
N31   Ni8   S    
C54   H14   S    
C59   H19   S    
C33   H2    S    
C76   Cl1   S    
C90   H50   S    
C8    C82   A    
N29   Ni6   S    
C23   C27   A    
C62   H21   S    
N23   Ni3   S    
C77   Cl2   S    
C35   C37   A    
C18   Cl8   S    
C3    C7    A    
C57   H13   S    
C84   H43   S    
C43   C52   A    
C57   C59   S    
C99   H59   S    
C11   C86   A    
C11   C95   A    
N4    N13   A    
C28   H23   S    
C55   C62   S    
C29   C33   A    
C59   H24   S    
C37   C42   A    
C97   H57   S    
C13   C88   A    
C51   C55   S    
C96   N16   A    
C41   C49   A    
C89   C94   A    
C2    C90   A    
C35   H4    S    
C103  N24   A    
N15   Ni2   S    
C78   H33   S    
C24   C29   A    
C44   C53   A    
C6    C28   A    
C37   H6    S    
N1    N22   A    
N25   Ni4   S    
C10   C20   S    
C90   N10   A    
N2    Ni1   S    
C95   N15   A    
C47   H38   S    
N18   Ni6   S    
C25   C60   S    
C7    C43   S    
C83   C101  A    
C71   H27   S    
C27   C50   S    
C60   H25   S    
C80   N32   A    
C92   H52   S    
C63   C77   S    
C55   H10   S    
C93   H53   S    
C26   C31   A    
C6    C44   S    
C3    H65   S    
C4    C102  A    
C28   N23   A    
C15   Cl6   S    
C91   H51   S    
C36   C41   A    
C61   C99   A    
C1    H1    S    
C81   N2    A    
C20   H56   S    
N10   Ni6   S    
C9    C92   A    
C89   H49   S    
N9    Ni5   S    
C29   C61   S    
N7    Ni8   S    
C17   N12   A    
C85   N5    A    
C15   C20   D    
C66   C78   S    
N6    Ni5   S    
C63   C67   A    
C50   C98   A    
C33   C40   A    
C74   C75   A    
C98   N18   A    
C46   C61   A    
N18   N28   A    
C19   H45   S    
C56   H11   S    
C97   N17   A    
N6    N15   A    
C84   N4    A    
C76   C77   S    
N21   Ni7   S    
C92   N13   A    
N5    Ni6   S    
N11   Ni7   S    
C71   C73   A    
N16   Ni3   S    
C30   C34   A    
N26   N27   A    
C25   C30   A    
N4    Ni3   S    
C87   N7    A    
C10   C93   A    
C34   H3    S    
C91   N11   A    
C82   N3    A    
C68   C94   S    
N30   Ni7   S    
C39   N27   A    
C78   Cl3   S    
N19   N29   A    
C85   H44   S    
C98   H58   S    
C78   C79   S    
C75   H30   S    
N23   N25   A    
C102  N22   A    
C17   H12   S    
C14   C15   S    
C48   N31   A    
C88   N8    A    
C11   C19   S    
C103  H63   S    
C64   C76   S    
C31   C83   S    
C13   C21   S    
C69   C74   A    
N12   Ni2   S    
C8    C91   A    
C104  N25   A    
C62   H26   S    
C88   H48   S    
C36   H5    S    
C86   H46   S    
N17   Ni4   S    
C79   H35   S    
C38   H7    S    
C100  N20   A    
C21   H66   S    
C40   H8    S    
C54   H9    S    
N32   Ni2   S    
C2    C67   S    
C45   N28   A    
C32   C38   A    
N20   Ni8   S    
C31   C35   A    
C47   N30   A    
C102  H62   S    
C80   C94   A    
C87   H47   S    
C95   H54   S    
C64   C68   A    
C100  H60   S    
C72   C100  A    
N8    Ni7   S    
C57   H17   S    
N28   Ni5   S    
C80   H40   S    
C5    C41   S    
C53   C57   S    
N12   N24   A    
C12   C87   A    
C27   C32   A    
C18   C22   D    
C3    N26   A    
C14   C19   D    
C74   H29   S    
C32   H68   S    
C55   H15   S    
C22   H67   S    
N9    N32   A    
N3    N11   A    
C30   C72   S    
C86   N6    A    
C73   H28   S    
C24   C53   A    
C46   N29   A    
C42   C51   A    
C8    C70   S    
C6    C104  A    
C48   C83   A    
C7    C39   A    
C1    C4    A    
C96   H55   S    
N20   N30   A    
C26   C62   S    
C77   H32   S    
C38   C43   A    
C101  N21   A    
C26   C51   A    
N3    Ni4   S    
C45   C50   A    
C9    C69   S    
C23   C52   A    
C66   C70   A    
C4    C42   S    
N8    N17   A    
C58   H18   S    
C24   C59   S    
C65   C69   A    
N24   Ni1   S    
C39   H34   S    
N27   Ni4   S    
C34   C36   A    
C56   C58   S    
C79   Cl4   S    
C23   C58   S    
C67   C71   A    
C56   H16   S    
C13   C97   A    
C25   C49   A    
C47   C72   A    
C9    C84   A    
C63   C64   A    
C82   H42   S    
C76   H31   S    
C52   C56   S    
C40   C44   A    
C46   H37   S    
C5    C17   A    
N22   Ni2   S    
C16   C18   S    
C65   C66   A    
C48   H39   S    
C99   N19   A    
C70   C75   A    
C89   N9    A    
C68   C73   A    
C12   C96   A    
C2    C81   A    
N1    Ni1   S    
N2    N10   A    
N21   N31   A    
C49   C54   S    
C16   Cl7   S    
