data_mof_unit_27524.cif
_audit_creation_date              2012-12-10T19:02:40-0500
_audit_creation_method            fapswitch 2.2
_symmetry_space_group_name_H-M    P1
_symmetry_Int_Tables_number       1
_space_group_crystal_system       triclinic
_cell_length_a                    9.554981
_cell_length_b                    10.819917
_cell_length_c                    13.865135
_cell_angle_alpha                 90.14921
_cell_angle_beta                  83.989585
_cell_angle_gamma                 89.96099
_cell_volume                      1425.54926871

loop_
_atom_site_label
_atom_site_type_symbol
_atom_type_description
_atom_site_fract_x
_atom_site_fract_y
_atom_site_fract_z
_atom_type_partial_charge
C1    C     C_R   0.500254 0.737667 0.498240 0.796496
C2    C     C_3   0.245912 0.930217 0.559884 -0.486944
C3    C     C_R   0.933180 0.402053 0.463173 0.212005
C4    C     C_R   0.476377 0.498382 0.683041 0.819618
C5    C     C_R   0.918523 0.590896 0.545360 -0.100557
C6    C     C_R   0.067535 0.591495 0.544594 -0.099522
C7    C     C_R   0.079135 0.398965 0.467910 0.236599
C8    C     C_3   0.107460 0.336811 0.372071 -0.535656
C9    C     C_3   0.950333 0.348283 0.362201 -0.263148
C10   C     C_R   0.500359 0.262341 0.498219 0.793028
C11   C     C_R   0.523325 0.502074 0.316880 0.817510
C12   C     C_1   0.461857 0.489782 0.786195 -0.177413
C13   C     C_1   0.536507 0.513490 0.213746 -0.166205
C14   C     C_2   0.548227 0.539965 0.023697 0.019112
C15   C     C_2   0.460360 0.471250 0.975888 -0.218307
C16   C     C_1   0.456729 0.481033 0.872814 0.004917
C17   C     C_1   0.542981 0.525560 0.127223 -0.044794
C18   C     C_R   0.926094 0.434014 0.278939 0.224759
C19   C     C_R   0.882414 0.382779 0.193813 -0.160663
C20   C     C_R   0.880762 0.454662 0.110302 -0.135930
C21   C     C_R   0.920742 0.578752 0.111330 -0.102823
C22   C     C_R   0.961042 0.631653 0.195928 -0.171414
C23   C     C_R   0.375817 0.936527 0.490037 0.133029
C24   C     C_R   0.965142 0.559809 0.279062 -0.097840
C25   C     C_R   0.646623 0.632588 0.974965 0.149169
C26   C     C_R   0.647846 0.754208 0.010775 -0.150439
C27   C     C_R   0.739906 0.841855 0.965475 -0.153922
C28   C     C_R   0.831975 0.808814 0.884492 -0.123979
C29   C     C_R   0.832934 0.687807 0.849041 -0.150633
C30   C     C_R   0.741476 0.599752 0.894308 -0.157412
C31   C     C_R   0.501738 0.870758 0.488587 -0.093423
C32   C     C_R   0.629791 0.935381 0.473482 -0.222012
C33   C     C_R   0.629851 0.064254 0.473540 -0.225376
C34   C     C_R   0.501872 0.129206 0.488719 -0.094156
C35   C     C_R   0.375897 0.063734 0.490264 0.118609
C36   C     C_3   0.246342 0.070496 0.560475 -0.461564
Cu1   Cu    Cu3+1 0.359330 0.500020 0.500000 0.936445
Cu2   Cu    Cu3+1 0.640670 0.499980 0.500000 0.944158
H1    H     H_    0.389167 0.405868 0.014916 0.150952
H2    H     H_    0.265282 0.888942 0.630669 0.194579
H3    H     H_    0.155436 0.890531 0.526085 0.189797
H4    H     H_    0.857555 0.665637 0.580563 0.144421
H5    H     H_    0.854349 0.285981 0.190979 0.112432
H6    H     H_    0.849680 0.413788 0.044487 0.130964
H7    H     H_    0.922111 0.633842 0.046392 0.155540
H8    H     H_    0.992664 0.727676 0.196378 0.130242
H9    H     H_    0.003681 0.601731 0.341901 0.132063
H10   H     H_    0.576786 0.781406 0.073247 0.128825
H11   H     H_    0.739792 0.935483 0.993154 0.128745
H12   H     H_    0.117717 0.666678 0.579141 0.139809
H13   H     H_    0.903080 0.876807 0.849520 0.125900
H14   H     H_    0.905170 0.661998 0.786838 0.130051
H15   H     H_    0.745840 0.505786 0.867112 0.135955
H16   H     H_    0.177355 0.391343 0.319043 0.225704
H17   H     H_    0.142063 0.239565 0.379579 0.178308
H18   H     H_    0.898351 0.256607 0.358965 0.138130
H19   H     H_    0.729696 0.887082 0.466269 0.160571
H20   H     H_    0.729777 0.112293 0.466414 0.156102
H21   H     H_    0.266584 0.110968 0.631513 0.198438
H22   H     H_    0.155673 0.111170 0.527640 0.190606
N1    N     N_R   0.852140 0.499070 0.499400 -0.185872
N2    N     N_R   0.148050 0.499110 0.499400 -0.177493
O1    O     O_R   0.381190 0.680360 0.500000 -0.583322
O2    O     O_R   0.618770 0.680320 0.499990 -0.590097
O3    O     O_R   0.364410 0.500000 0.637850 -0.573976
O4    O     O_R   0.602000 0.499960 0.637840 -0.570252
O5    O     O_R   0.381230 0.319680 0.500010 -0.576317
O6    O     O_R   0.618810 0.319640 0.500000 -0.588238
O7    O     O_R   0.398000 0.500040 0.362160 -0.582481
O8    O     O_R   0.635590 0.500000 0.362150 -0.561405

loop_
_geom_bond_atom_site_label_1
_geom_bond_atom_site_label_2
_ccdc_geom_bond_type
C27   H11   S    
C5    H4    S    
C11   O7    A    
C7    N2    A    
C25   C30   A    
C33   H20   S    
C3    C9    S    
Cu1   O7    S    
C4    C12   S    
C3    C7    A    
C31   C32   A    
C13   C17   T    
C36   H21   S    
C15   H1    S    
C32   C33   A    
Cu2   N1    S    
C22   C24   A    
Cu2   O8    S    
Cu1   N2    S    
C11   O8    A    
C5    N1    A    
C7    C8    S    
C10   C34   S    
C9    H18   S    
C10   O5    A    
C6    H12   S    
C4    O4    A    
C11   C13   S    
C14   C17   S    
C6    N2    A    
C26   C27   A    
C29   C30   A    
C32   H19   S    
C21   H7    S    
C12   C16   T    
C5    C6    A    
Cu1   O5    S    
C8    H17   S    
C21   C22   A    
C28   C29   A    
C22   H8    S    
Cu1   Cu2   S    
C19   H5    S    
C33   C34   A    
C23   C35   A    
C2    C23   S    
C3    N1    A    
C14   C25   S    
C4    O3    A    
C34   C35   A    
C30   H15   S    
C18   C24   A    
C23   C31   A    
C2    H3    S    
C8    H16   S    
C15   C16   S    
C1    O2    A    
C2    H2    S    
C9    C18   S    
C1    C31   S    
C26   H10   S    
C20   C21   A    
C18   C19   A    
C2    C36   S    
C27   C28   A    
Cu2   O2    S    
Cu2   O4    S    
C14   C15   D    
C1    O1    A    
C35   C36   S    
C20   H6    S    
C25   C26   A    
Cu1   O1    S    
C24   H9    S    
C10   O6    A    
C28   H13   S    
C19   C20   A    
Cu2   O6    S    
C8    C9    S    
C36   H22   S    
C29   H14   S    
Cu1   O3    S    
