data_mof_unit_65522.cif
_audit_creation_date              2012-12-10T21:34:12-0500
_audit_creation_method            fapswitch 2.2
_symmetry_space_group_name_H-M    P1
_symmetry_Int_Tables_number       1
_space_group_crystal_system       triclinic
_cell_length_a                    13.626278
_cell_length_b                    16.107058
_cell_length_c                    16.924795
_cell_angle_alpha                 87.904921
_cell_angle_beta                  90.397496
_cell_angle_gamma                 94.674541
_cell_volume                      3699.78123633

loop_
_atom_site_label
_atom_site_type_symbol
_atom_type_description
_atom_site_fract_x
_atom_site_fract_y
_atom_site_fract_z
_atom_type_partial_charge
C1    C     C_R   0.501787 0.511147 0.347312 0.911391
C2    C     C_R   0.554099 0.855175 0.472967 -0.271013
C3    C     C_R   0.522294 0.110969 0.485898 0.334278
C4    C     C_R   0.477705 0.889031 0.514102 0.334278
C5    C     C_R   0.592395 0.166542 0.447290 -0.322902
C6    C     C_R   0.407605 0.833458 0.552710 -0.322902
C7    C     C_R   0.586057 0.252859 0.450315 0.002145
C8    C     C_R   0.413943 0.747141 0.549685 0.002145
C9    C     C_R   0.685142 0.514984 0.500630 0.903467
C10   C     C_R   0.314858 0.485016 0.499369 0.903467
C11   C     C_1   0.211602 0.473397 0.498945 -0.177544
C12   C     C_R   0.498213 0.488853 0.652688 0.911392
C13   C     C_1   0.788398 0.526603 0.501055 -0.177544
C14   C     C_2   0.020378 0.464084 0.498617 -0.156561
C15   C     C_2   0.979622 0.535916 0.501383 -0.156562
C16   C     C_1   0.875860 0.533844 0.501316 0.008479
C17   C     C_1   0.124140 0.466156 0.498684 0.008479
C18   C     C_R   0.507495 0.518723 0.261799 -0.147488
C19   C     C_R   0.492505 0.481277 0.738201 -0.147488
C20   C     C_R   0.552587 0.458785 0.219072 0.499589
C21   C     C_R   0.447413 0.541215 0.780928 0.499588
C22   C     C_R   0.555486 0.467305 0.137076 -0.262090
C23   C     C_R   0.466512 0.591592 0.140352 -0.191639
C24   C     C_R   0.444514 0.532695 0.862925 -0.262091
C25   C     C_R   0.507874 0.531057 0.097624 0.261006
C26   C     C_R   0.492127 0.468943 0.902376 0.261007
C27   C     C_3   0.448851 0.681555 0.756648 -0.288859
C28   C     C_3   0.551148 0.318445 0.243353 -0.288858
C29   C     C_R   0.533489 0.408408 0.859648 -0.191639
C30   C     C_R   0.466558 0.585795 0.222261 -0.297367
C31   C     C_R   0.533443 0.414206 0.777738 -0.297367
C32   C     C_R   0.442257 0.231672 0.528397 -0.017499
C33   C     C_R   0.557743 0.768328 0.471603 -0.017499
C34   C     C_R   0.445901 0.144825 0.527033 -0.271013
H1    H     H_    0.023402 0.595329 0.503670 0.158898
H2    H     H_    0.384029 0.257453 0.560332 0.135623
H3    H     H_    0.610287 0.894911 0.442017 0.154418
H4    H     H_    0.389713 0.105089 0.557983 0.154418
H5    H     H_    0.652090 0.143038 0.415132 0.148558
H6    H     H_    0.347910 0.856962 0.584868 0.148558
H7    H     H_    0.640897 0.295134 0.420762 0.161442
H8    H     H_    0.359103 0.704866 0.579238 0.161441
H9    H     H_    0.413305 0.730125 0.721293 0.183009
H10   H     H_    0.527313 0.683913 0.738082 0.168728
H11   H     H_    0.443746 0.697751 0.819666 0.149983
H12   H     H_    0.976598 0.404671 0.496330 0.158898
H13   H     H_    0.472687 0.316087 0.261918 0.168728
H14   H     H_    0.586694 0.269874 0.278707 0.183009
H15   H     H_    0.556252 0.302249 0.180334 0.149983
H16   H     H_    0.406235 0.576466 0.895860 0.161422
H17   H     H_    0.593765 0.423533 0.104140 0.161422
H18   H     H_    0.431522 0.641765 0.109998 0.152755
H19   H     H_    0.568479 0.358235 0.890002 0.152755
H20   H     H_    0.431950 0.632275 0.254618 0.185888
H21   H     H_    0.568050 0.367725 0.745382 0.185888
H22   H     H_    0.615971 0.742547 0.439668 0.135622
N1    N     N_2   0.498285 0.534623 0.014918 -0.186963
N2    N     N_2   0.501716 0.465377 0.985082 -0.186963
N3    N     N_R   0.511670 0.283920 0.490320 -0.088608
N4    N     N_R   0.488330 0.716080 0.509680 -0.088608
N5    N     N_2   0.532045 0.023119 0.481735 -0.188588
N6    N     N_2   0.467955 0.976881 0.518265 -0.188588
O1    O     O_R   0.495820 0.577170 0.387320 -0.630006
O2    O     O_3   0.601173 0.396720 0.257785 -0.601333
O3    O     O_R   0.504180 0.422830 0.612680 -0.630006
O4    O     O_R   0.503320 0.438390 0.381110 -0.578064
O5    O     O_R   0.496680 0.561610 0.618890 -0.578063
O6    O     O_R   0.636060 0.579370 0.503570 -0.623822
O7    O     O_R   0.363940 0.420630 0.496430 -0.623822
O8    O     O_R   0.643560 0.440600 0.497360 -0.611288
O9    O     O_R   0.356440 0.559400 0.502640 -0.611288
O10   O     O_3   0.398826 0.603280 0.742215 -0.601333
Zn1   Zn    Zn3+2 0.495000 0.592660 0.504150 0.960554
Zn2   Zn    Zn3+2 0.505000 0.407340 0.495850 0.960554

loop_
_geom_bond_atom_site_label_1
_geom_bond_atom_site_label_2
_ccdc_geom_bond_type
O8    Zn2   S    
C2    C4    A    
C23   C30   A    
C28   H13   S    
C20   O2    S    
C18   C30   A    
C27   H9    S    
C30   H20   S    
C28   H15   S    
N4    Zn1   S    
C2    H3    S    
C8    H8    S    
C19   C31   A    
C10   O9    A    
C27   H11   S    
C33   H22   S    
C5    H5    S    
C1    O4    A    
C23   H18   S    
C9    O6    A    
C5    C7    A    
O7    Zn2   S    
C29   C31   A    
C8    N4    A    
C26   N2    S    
C14   C17   S    
N1    N2    D    
C29   H19   S    
C32   C34   A    
O5    Zn1   S    
C32   H2    S    
C12   C19   S    
C7    N3    A    
C32   N3    A    
C19   C21   A    
C24   C26   A    
C6    C8    A    
C33   N4    A    
C18   C20   A    
C7    H7    S    
C24   H16   S    
N5    N6    D    
C12   O5    A    
C6    H6    S    
C13   C16   T    
C4    C6    A    
C10   C11   S    
O3    Zn2   S    
C21   O10   S    
N3    Zn2   S    
C15   C16   S    
O4    Zn2   S    
C10   O7    A    
C4    N6    S    
C25   N1    S    
C23   C25   A    
C9    O8    A    
C28   O2    S    
C26   C29   A    
C14   H12   S    
C2    C33   A    
C12   O3    A    
C21   C24   A    
C15   H1    S    
C3    N5    S    
O9    Zn1   S    
C1    C18   S    
C14   C15   D    
C1    O1    A    
C9    C13   S    
O1    Zn1   S    
C3    C34   A    
C31   H21   S    
O6    Zn1   S    
C34   H4    S    
C27   H10   S    
C28   H14   S    
C27   O10   S    
C20   C22   A    
C22   H17   S    
C3    C5    A    
C22   C25   A    
C11   C17   T    
