data_mof_unit_68451.cif
_audit_creation_date              2012-12-11T17:41:02-0500
_audit_creation_method            fapswitch 2.2
_symmetry_space_group_name_H-M    P1
_symmetry_Int_Tables_number       1
_space_group_crystal_system       triclinic
_cell_length_a                    8.318662
_cell_length_b                    12.755179
_cell_length_c                    14.56911
_cell_angle_alpha                 93.124553
_cell_angle_beta                  91.423953
_cell_angle_gamma                 98.620525
_cell_volume                      1525.2802231

loop_
_atom_site_label
_atom_site_type_symbol
_atom_type_description
_atom_site_fract_x
_atom_site_fract_y
_atom_site_fract_z
_atom_type_partial_charge
Ba1   Ba    Ba6+2 0.855630 0.555280 0.454520 1.730574
Ba2   Ba    Ba6+2 0.334200 0.444810 0.545490 1.700604
C1    C     C_3   0.694500 0.806141 0.028778 -0.477401
C2    C     C_3   0.628009 0.826537 0.122463 0.292024
C3    C     C_3   0.474737 0.310685 0.263111 0.291846
C4    C     C_3   0.455372 0.288894 0.159341 -0.391246
C5    C     C_3   0.006388 0.171291 0.788286 0.360392
C6    C     C_3   0.006603 0.120515 0.880968 0.330271
C7    C     C_3   0.544629 0.157127 0.838402 0.296000
C8    C     C_3   0.472791 0.073089 0.901859 -0.307331
C9    C     C_R   0.981932 0.448467 0.060508 -0.054900
C10   C     C_R   0.181196 0.496761 0.195197 0.050751
C11   C     C_R   0.338440 0.544312 0.223919 -0.267782
C12   C     C_3   0.203642 0.878237 0.219200 0.197999
C13   C     C_R   0.450878 0.591256 0.163045 -0.027017
C14   C     C_R   0.407984 0.586644 0.069031 -0.128062
C15   C     C_R   0.251282 0.541467 0.035846 0.031339
C16   C     C_R   0.135799 0.495047 0.098264 -0.014818
C17   C     C_R   0.056628 0.498292 0.902520 -0.022270
C18   C     C_R   0.941535 0.450384 0.965116 0.006011
C19   C     C_R   0.012927 0.495863 0.804827 -0.019735
C20   C     C_R   0.863344 0.435973 0.775822 -0.270032
C21   C     C_R   0.745881 0.397765 0.838000 -0.001468
C22   C     C_R   0.784613 0.405602 0.932146 -0.159983
C23   C     C_3   0.120375 0.871805 0.123509 0.249747
C24   C     C_R   0.211012 0.542833 0.940398 -0.066290
C25   C     C_R   0.779647 0.170865 0.515790 -0.192166
C26   C     C_R   0.423479 0.815879 0.471448 -0.293814
C27   C     C_R   0.395007 0.996592 0.444583 -0.001451
C28   C     C_R   0.331622 0.889712 0.439179 -0.002117
C29   C     C_R   0.573087 0.848038 0.518176 -0.010738
C30   C     C_R   0.639635 0.957993 0.524528 -0.040452
C31   C     C_R   0.551217 0.032114 0.483028 -0.013225
C32   C     C_R   0.622366 0.139555 0.480114 0.028729
C33   C     C_R   0.863079 0.102310 0.562738 0.020490
C34   C     C_3   0.303184 0.768439 0.713347 0.323690
C35   C     C_R   0.792034 0.996443 0.568743 -0.130148
C36   C     C_3   0.405124 0.805634 0.800440 -0.468881
C37   C     C_3   0.956703 0.236300 0.334145 0.262300
C38   C     C_3   0.932961 0.117917 0.307459 -0.328018
C39   C     C_3   0.714438 0.657208 0.725243 0.320444
C40   C     C_3   0.756210 0.670755 0.827580 -0.477723
H1    H     H_    0.638755 0.914017 0.132566 0.121608
H2    H     H_    0.431294 0.736093 0.837114 0.114437
H3    H     H_    0.520870 0.855306 0.784251 0.086941
H4    H     H_    0.338727 0.855177 0.846019 0.136157
H5    H     H_    0.837949 0.260045 0.350736 0.010339
H6    H     H_    0.043656 0.252226 0.394175 0.048588
H7    H     H_    0.840144 0.098716 0.250589 0.141310
H8    H     H_    0.892508 0.070825 0.366524 0.092426
H9    H     H_    0.050057 0.095483 0.284769 0.116985
H10   H     H_    0.813360 0.624375 0.689766 0.011707
H11   H     H_    0.599379 0.601024 0.714793 0.069834
H12   H     H_    0.803674 0.864720 0.019044 0.092980
H13   H     H_    0.706615 0.739697 0.856842 0.128282
H14   H     H_    0.889696 0.684991 0.840210 0.097153
H15   H     H_    0.702071 0.600373 0.863499 0.087315
H16   H     H_    0.496946 0.794468 0.125150 0.063531
H17   H     H_    0.599969 0.815850 0.976248 0.108437
H18   H     H_    0.360061 0.333638 0.289306 0.014496
H19   H     H_    0.576518 0.377028 0.277534 0.056870
H20   H     H_    0.348587 0.226936 0.142339 0.153876
H21   H     H_    0.436746 0.362206 0.125670 0.060727
H22   H     H_    0.566351 0.261404 0.131983 0.119040
H23   H     H_    0.730059 0.725913 0.021254 0.124155
H24   H     H_    0.059045 0.256718 0.798088 0.002853
H25   H     H_    0.877990 0.164217 0.762904 -0.086768
H26   H     H_    0.112175 0.162803 0.923048 0.097629
H27   H     H_    0.896204 0.131169 0.919882 -0.072880
H28   H     H_    0.662729 0.195244 0.870404 -0.047728
H29   H     H_    0.564416 0.118915 0.770005 0.029697
H30   H     H_    0.460602 0.110253 0.971577 0.151343
H31   H     H_    0.552774 0.011618 0.907336 0.045632
H32   H     H_    0.246472 0.800355 0.227791 0.016519
H33   H     H_    0.350858 0.035540 0.874714 0.192317
H34   H     H_    0.377410 0.538483 0.294092 0.040083
H35   H     H_    0.496373 0.617761 0.020908 0.054203
H36   H     H_    0.692868 0.374891 0.979356 0.064595
H37   H     H_    0.891725 0.409840 0.104720 0.100508
H38   H     H_    0.301362 0.580757 0.896269 0.099987
H39   H     H_    0.323031 0.049718 0.413743 0.074299
H40   H     H_    0.858112 0.945259 0.606257 0.147754
H41   H     H_    0.837920 0.251242 0.507784 0.065694
H42   H     H_    0.003933 0.817094 0.129399 0.067343
H43   H     H_    0.372538 0.721781 0.667250 0.020587
O1    O     O_2   0.887370 0.460630 0.272300 -0.472660
O2    O     O_3   0.696136 0.756202 0.692395 -0.656582
O3    O     O_3   0.086028 0.896683 0.283181 -0.646550
O4    O     O_2   0.302330 0.539400 0.727760 -0.482344
O5    O     O_3   0.060300 0.548700 0.611500 -0.446854
O6    O     O_3   0.519500 0.346920 0.670840 -0.436008
O7    O     O_3   0.154315 0.711018 0.737745 -0.623462
O8    O     O_3   0.614310 0.373510 0.452640 -0.492634
O9    O     O_3   0.100780 0.295230 0.623970 -0.453549
O10   O     O_2   0.203549 0.117064 0.563155 -0.470519
O11   O     O_3   0.099027 0.117867 0.727223 -0.544099
O12   O     O_3   0.129410 0.451380 0.388510 -0.480301
O13   O     O_3   0.575400 0.626570 0.547370 -0.515204
O14   O     O_2   0.344320 0.238700 0.455090 -0.475196
O15   O     O_3   0.508175 0.218372 0.302961 -0.638393
O16   O     O_2   0.427189 0.428538 0.829276 -0.495445
O17   O     O_3   0.433939 0.228931 0.828927 -0.564449
O18   O     O_3   0.670210 0.653170 0.329170 -0.459118
O19   O     O_2   0.793414 0.598873 0.172297 -0.488048
O20   O     O_3   0.017647 0.290460 0.259074 -0.640375
O21   O     O_3   0.722214 0.790551 0.191836 -0.555491
O22   O     O_2   0.845380 0.761330 0.544970 -0.394403
O23   O     O_3   0.088930 0.704860 0.376040 -0.452688
O24   O     O_2   0.000646 0.884077 0.450021 -0.437822
P1    P     P_3+3 0.054400 0.427280 0.286870 0.975156
P2    P     P_3+3 0.668300 0.742890 0.573060 0.970173
P3    P     P_3+3 0.127911 0.844305 0.387613 1.034734
P4    P     P_3+3 0.135310 0.572810 0.713130 1.004684
P5    P     P_3+3 0.064573 0.156430 0.616599 1.065217
P6    P     P_3+3 0.655335 0.656161 0.209618 0.978240
P7    P     P_3+3 0.524469 0.241222 0.422620 0.949261
P8    P     P_3+3 0.534810 0.348842 0.792435 0.995900
C41   C     C_2   0.079279 0.978322 0.098456 0.480262
H44   H     H_    0.968332 0.004375 0.122497 -0.026044
O25   O     O_2   0.172054 0.036792 0.053250 -0.584491
O26   O     O_3   0.026181 0.012376 0.870217 -0.608000
C42   C     C_3   0.883215 0.950463 0.831864 0.252479
H45   H     H_    0.834871 0.982831 0.769564 0.002089
H46   H     H_    0.787752 0.940819 0.883354 -0.009109
H47   H     H_    0.913777 0.871859 0.809830 0.119100
C43   C     C_2   0.831782 0.400618 0.680012 0.500395
H48   H     H_    0.808969 0.453491 0.627503 0.025176
O27   O     O_2   0.806899 0.305819 0.661952 -0.652489
C44   C     C_2   0.345723 0.967119 0.229705 0.404995
H49   H     H_    0.330696 0.047488 0.214891 0.057646
O28   O     O_2   0.477287 0.950641 0.259355 -0.639251
C45   C     C_2   0.359603 0.703497 0.458787 0.550320
H50   H     H_    0.402267 0.656344 0.404124 -0.026333
O29   O     O_2   0.261499 0.662563 0.511564 -0.535124
O30   O     O_3   0.219829 0.831286 0.057126 -0.658964
C46   C     C_3   0.120851 0.776568 0.984500 0.148553
H51   H     H_    0.053015 0.830987 0.948070 0.089244
H52   H     H_    0.036019 0.708613 0.008872 0.031581
H53   H     H_    0.198984 0.743398 0.934635 0.073057
C47   C     C_2   0.270520 0.865578 0.666348 0.563748
H54   H     H_    0.371037 0.925631 0.650498 -0.116116
O31   O     O_2   0.131888 0.879364 0.647294 -0.540898

loop_
_geom_bond_atom_site_label_1
_geom_bond_atom_site_label_2
_ccdc_geom_bond_type
O20   P1    S    
C9    C16   A    
C43   H48   S    
C39   C40   S    
C17   C18   A    
O15   P7    S    
C23   C41   S    
C10   P1    S    
O9    P5    S    
C5    C6    S    
C36   H2    S    
C5    O11   S    
C6    H27   S    
Ba1   O5    S    
C15   C24   A    
C12   H32   S    
O1    P1    D    
C47   O31   D    
C14   H35   S    
C3    C4    S    
C40   H13   S    
C1    H12   S    
C6    O26   S    
C20   C43   S    
O2    P2    S    
O10   P5    D    
C32   P7    S    
C13   C14   A    
C27   C31   A    
C33   P5    S    
Ba1   Ba2   S    
O5    P4    S    
C4    H22   S    
Ba2   O5    S    
C17   C24   A    
C41   H44   S    
C36   H3    S    
C40   H14   S    
C18   C22   A    
Ba2   O12   S    
C45   H50   S    
C23   H42   S    
C21   C22   A    
C11   H34   S    
C7    C8    S    
Ba1   O18   S    
C39   H10   S    
C34   O7    S    
O30   C46   S    
C19   C20   A    
O11   P5    S    
C1    H23   S    
C46   H53   S    
C40   H15   S    
C31   C32   A    
C26   C29   A    
C25   C32   A    
C39   O2    S    
O4    P4    D    
C9    C18   A    
Ba2   O9    S    
C47   H54   S    
C46   H52   S    
O24   P3    D    
Ba1   O12   S    
O14   P7    D    
C14   C15   A    
C25   C33   A    
C2    O21   S    
C24   H38   S    
O23   P3    S    
C28   P3    S    
C26   C45   S    
O8    P7    S    
C4    H21   S    
Ba2   O4    S    
O18   P6    S    
C27   H39   S    
C27   C28   A    
Ba1   P1    S    
O19   P6    D    
C8    H33   S    
C29   C30   A    
C3    O15   S    
O6    P8    S    
C15   C16   A    
C3    H19   S    
C30   C35   A    
C7    H28   S    
C34   C47   S    
C39   H11   S    
O26   C42   S    
C7    O17   S    
O17   P8    S    
C9    H37   S    
Ba1   O22   S    
C45   O29   D    
C8    H31   S    
C19   P4    S    
Ba2   O14   S    
C6    H26   S    
C11   C13   A    
C13   P6    S    
C35   H40   S    
C42   H46   S    
C1    C2    S    
C37   C38   S    
C37   H5    S    
C44   H49   S    
O7    P4    S    
C22   H36   S    
Ba1   O1    S    
C37   O20   S    
C43   O27   D    
O13   P2    S    
C3    H18   S    
C33   C35   A    
O22   P2    D    
Ba2   O8    S    
C7    H29   S    
C46   H51   S    
Ba1   O13   S    
C21   P8    S    
C2    H1    S    
C34   H43   S    
C38   H9    S    
O21   P6    S    
O16   P8    D    
C30   C31   A    
C4    H20   S    
C42   H47   S    
C34   C36   S    
C12   O3    S    
Ba1   P2    S    
C5    H24   S    
O12   P1    S    
C38   H8    S    
C26   C28   A    
Ba2   P4    S    
C12   C23   S    
Ba2   O6    S    
C23   O30   S    
C41   O25   D    
C36   H4    S    
Ba1   O23   S    
C5    H25   S    
C25   H41   S    
O3    P3    S    
C10   C11   A    
Ba2   O13   S    
Ba1   O8    S    
C2    H16   S    
C10   C16   A    
C29   P2    S    
C20   C21   A    
C44   O28   D    
C42   H45   S    
C38   H7    S    
C1    H17   S    
C37   H6    S    
C17   C19   A    
C12   C44   S    
C8    H30   S    
