data_mof_unit_55037.cif
_audit_creation_date              2012-12-10T19:50:48-0500
_audit_creation_method            fapswitch 2.2
_symmetry_space_group_name_H-M    P1
_symmetry_Int_Tables_number       1
_space_group_crystal_system       triclinic
_cell_length_a                    14.750436
_cell_length_b                    14.135839
_cell_length_c                    11.545391
_cell_angle_alpha                 90.26413
_cell_angle_beta                  89.192354
_cell_angle_gamma                 91.905848
_cell_volume                      2405.73567986

loop_
_atom_site_label
_atom_site_type_symbol
_atom_type_description
_atom_site_fract_x
_atom_site_fract_y
_atom_site_fract_z
_atom_type_partial_charge
C1    C     C_R   0.329361 0.498391 0.522125 0.928531
C2    C     C_R   0.500246 0.500163 0.718325 0.872639
C3    C     C_R   0.483801 0.102876 0.401117 0.352166
C4    C     C_R   0.576753 0.897113 0.541435 0.374057
C5    C     C_R   0.519384 0.106799 0.606678 0.397734
C6    C     C_R   0.422743 0.892881 0.469660 0.377830
C7    C     C_1   0.500700 0.499441 0.161314 -0.195557
C8    C     C_1   0.500769 0.500343 0.838610 -0.205986
C9    C     C_1   0.501044 0.499547 0.059209 -0.004354
C10   C     C_1   0.501081 0.500013 0.940682 -0.012085
C11   C     C_R   0.481316 0.202101 0.402151 -0.133730
C12   C     C_R   0.672811 0.501459 0.500012 0.994646
C13   C     C_R   0.574309 0.797436 0.538144 -0.149503
C14   C     C_R   0.520218 0.207551 0.599827 -0.219273
C15   C     C_R   0.425446 0.793526 0.465307 -0.128580
C16   C     C_R   0.100817 0.581651 0.597663 0.479956
C17   C     C_R   0.918814 0.461689 0.456412 0.415902
C18   C     C_R   0.894958 0.544687 0.642101 0.463988
C19   C     C_R   0.090940 0.407693 0.581094 0.425068
C20   C     C_R   0.195070 0.577575 0.608031 0.041978
C21   C     C_R   0.825652 0.457908 0.439108 0.033522
C22   C     C_R   0.803351 0.552231 0.615547 0.031399
C23   C     C_R   0.235996 0.494079 0.568774 -0.335010
C24   C     C_R   0.185502 0.407004 0.572162 0.104778
C25   C     C_3   0.542219 0.031185 0.241337 0.078595
C26   C     C_3   0.517529 0.973842 0.133270 -0.300604
C27   C     C_3   0.602163 0.941952 0.068388 -0.987604
C28   C     C_3   0.716017 0.965577 0.503145 0.069260
C29   C     C_3   0.799828 0.011065 0.559958 -0.313316
C30   C     C_3   0.873256 0.037735 0.470398 -0.987327
C31   C     C_3   0.545623 0.109887 0.810088 0.105295
C32   C     C_3   0.644473 0.146123 0.821836 -0.341842
C33   C     C_3   0.654873 0.214779 0.923533 -0.985460
C34   C     C_R   0.769091 0.504858 0.517252 -0.280579
C35   C     C_3   0.293800 0.965173 0.527406 0.119886
C36   C     C_3   0.208919 0.013344 0.485527 -0.373922
C37   C     C_3   0.232201 0.093960 0.401415 -0.731072
C38   C     C_3   0.041517 0.704272 0.493621 0.086862
C39   C     C_3   0.128097 0.736474 0.427154 -0.381841
C40   C     C_3   0.105291 0.784062 0.313374 -0.964754
C41   C     C_3   0.018083 0.481512 0.303607 0.102363
C42   C     C_3   0.071983 0.428914 0.210903 -0.358069
C43   C     C_3   0.151871 0.378230 0.262338 -0.767990
C44   C     C_3   0.948779 0.525258 0.828612 0.093014
C45   C     C_R   0.049216 0.496550 0.582826 -0.166563
C46   C     C_3   0.862947 0.480555 0.885415 -0.389004
C47   C     C_3   0.885683 0.424726 0.993269 -0.990287
C48   C     C_3   0.981266 0.294899 0.645416 0.111558
C49   C     C_3   0.028307 0.238415 0.738444 -0.397172
C50   C     C_3   0.959240 0.184324 0.814963 -0.962850
C51   C     C_3   0.209831 0.715699 0.741286 -0.709905
C52   C     C_3   0.779558 0.307860 0.354190 -0.707488
C53   C     C_3   0.764390 0.696713 0.723451 -0.650161
C54   C     C_3   0.274214 0.288537 0.665108 -0.746573
C55   C     C_R   0.952783 0.501187 0.560522 -0.169276
C56   C     C_R   0.501599 0.053780 0.504591 -0.046206
C57   C     C_R   0.500070 0.946846 0.506195 -0.036761
C58   C     C_R   0.500180 0.499806 0.281670 0.920973
H1    H     H_    0.464871 0.238930 0.323715 0.169595
H2    H     H_    0.581959 0.902498 0.988945 0.278442
H3    H     H_    0.641516 0.894640 0.123823 0.266156
H4    H     H_    0.689170 0.017063 0.440782 0.121375
H5    H     H_    0.736243 0.900254 0.456233 0.123359
H6    H     H_    0.780209 0.075908 0.607736 0.217727
H7    H     H_    0.827642 0.960785 0.623021 0.222824
H8    H     H_    0.895303 0.973717 0.422997 0.262670
H9    H     H_    0.932857 0.070606 0.514699 0.271555
H10   H     H_    0.847394 0.089369 0.407669 0.266475
H11   H     H_    0.530240 0.062021 0.884017 0.167582
H12   H     H_    0.632302 0.759741 0.566520 0.176812
H13   H     H_    0.495229 0.166319 0.819286 0.111068
H14   H     H_    0.688516 0.084928 0.835284 0.234335
H15   H     H_    0.668536 0.182460 0.741546 0.211606
H16   H     H_    0.614312 0.278402 0.909073 0.273116
H17   H     H_    0.727277 0.237615 0.931698 0.267958
H18   H     H_    0.631938 0.180187 0.005505 0.263261
H19   H     H_    0.332580 0.016524 0.582572 0.126157
H20   H     H_    0.271959 0.903327 0.581661 0.091352
H21   H     H_    0.163530 0.960586 0.441887 0.223884
H22   H     H_    0.171661 0.041971 0.561645 0.167796
H23   H     H_    0.536875 0.251616 0.673159 0.172375
H24   H     H_    0.282478 0.144525 0.440109 0.246976
H25   H     H_    0.169771 0.132038 0.381110 0.217337
H26   H     H_    0.260748 0.065718 0.319240 0.300058
H27   H     H_    0.998873 0.766877 0.506552 0.168499
H28   H     H_    0.000160 0.653651 0.441192 0.101756
H29   H     H_    0.168367 0.786909 0.481336 0.240129
H30   H     H_    0.170249 0.674768 0.406778 0.216460
H31   H     H_    0.068174 0.733155 0.256097 0.255844
H32   H     H_    0.168945 0.808394 0.268627 0.284944
H33   H     H_    0.062812 0.846289 0.329735 0.259185
H34   H     H_    0.366893 0.753117 0.434894 0.177008
H35   H     H_    0.967613 0.525361 0.259535 0.067971
H36   H     H_    0.066164 0.528865 0.351401 0.126787
H37   H     H_    0.026650 0.376162 0.166897 0.229380
H38   H     H_    0.098212 0.480454 0.145107 0.167262
H39   H     H_    0.198517 0.429724 0.306310 0.236450
H40   H     H_    0.190119 0.342570 0.192083 0.225489
H41   H     H_    0.127306 0.323807 0.325419 0.293640
H42   H     H_    0.986491 0.565986 0.896070 0.167125
H43   H     H_    0.995536 0.470322 0.798421 0.110058
H44   H     H_    0.816183 0.537147 0.911216 0.234307
H45   H     H_    0.585088 0.986848 0.296248 0.116493
H46   H     H_    0.828072 0.432129 0.823014 0.202878
H47   H     H_    0.937074 0.371385 0.972507 0.267707
H48   H     H_    0.823438 0.387801 0.027690 0.272682
H49   H     H_    0.912512 0.473585 0.061038 0.256307
H50   H     H_    0.928638 0.248309 0.604318 0.178112
H51   H     H_    0.944099 0.353368 0.685604 0.107365
H52   H     H_    0.073951 0.186919 0.696677 0.236167
H53   H     H_    0.069317 0.287859 0.793299 0.203619
H54   H     H_    0.909592 0.233240 0.853299 0.268372
H55   H     H_    0.994822 0.148940 0.886047 0.269255
H56   H     H_    0.581419 0.096537 0.214899 0.122452
H57   H     H_    0.922123 0.129442 0.763260 0.264668
H58   H     H_    0.313589 0.638580 0.675322 0.249464
H59   H     H_    0.167869 0.672731 0.803618 0.244568
H60   H     H_    0.169203 0.771243 0.701534 0.268400
H61   H     H_    0.264667 0.753139 0.790283 0.202580
H62   H     H_    0.820477 0.428297 0.264049 0.236118
H63   H     H_    0.847441 0.276279 0.357733 0.257783
H64   H     H_    0.742584 0.277066 0.279082 0.215074
H65   H     H_    0.740668 0.289215 0.434427 0.247383
H66   H     H_    0.713932 0.558052 0.757030 0.204844
H67   H     H_    0.475621 0.910299 0.158849 0.239431
H68   H     H_    0.810055 0.700020 0.798957 0.255326
H69   H     H_    0.701090 0.732070 0.749065 0.218833
H70   H     H_    0.796221 0.735633 0.649076 0.233193
H71   H     H_    0.191010 0.264760 0.524297 0.257529
H72   H     H_    0.223775 0.271433 0.734554 0.207980
H73   H     H_    0.322232 0.344572 0.697050 0.255575
H74   H     H_    0.313019 0.224279 0.645474 0.225534
H75   H     H_    0.476749 0.017621 0.075224 0.210087
H76   H     H_    0.645851 0.004069 0.042861 0.267008
N1    N     N_R   0.500000 0.252470 0.500000 -0.116307
N2    N     N_R   0.500000 0.747530 0.500000 -0.130571
N3    N     N_2   0.249061 0.656106 0.652338 -0.284664
N4    N     N_2   0.788676 0.409562 0.341076 -0.285895
N5    N     N_2   0.742635 0.599384 0.692107 -0.282556
N6    N     N_2   0.229232 0.318705 0.561516 -0.261891
O1    O     O_R   0.369060 0.579480 0.500010 -0.633693
O2    O     O_3   0.650642 0.944150 0.590157 -0.598118
O3    O     O_3   0.534193 0.055575 0.707890 -0.606677
O4    O     O_3   0.345919 0.935587 0.431048 -0.576857
O5    O     O_3   0.059768 0.668473 0.605073 -0.595240
O6    O     O_3   0.974496 0.415246 0.378586 -0.568609
O7    O     O_3   0.928396 0.590145 0.740378 -0.597459
O8    O     O_3   0.042955 0.323528 0.556420 -0.617438
O9    O     O_R   0.630940 0.420520 0.499990 -0.604516
O10   O     O_R   0.630940 0.579480 0.499990 -0.609484
O11   O     O_R   0.369060 0.420520 0.500010 -0.569985
O12   O     O_R   0.500010 0.579480 0.334450 -0.603837
O13   O     O_R   0.499990 0.420520 0.665550 -0.637007
O14   O     O_R   0.499990 0.579480 0.665550 -0.609605
O15   O     O_R   0.500010 0.420520 0.334450 -0.615456
O16   O     O_3   0.461650 0.054705 0.300449 -0.601761
Zn1   Zn    Zn3+2 0.500000 0.606140 0.500000 0.941508
Zn2   Zn    Zn3+2 0.500000 0.393860 0.500000 0.937887

loop_
_geom_bond_atom_site_label_1
_geom_bond_atom_site_label_2
_ccdc_geom_bond_type
O10   Zn1   S    
C41   C42   S    
H66   N5    S    
C35   C36   S    
C43   H40   S    
C39   H29   S    
C51   H60   S    
C32   H14   S    
C24   N6    S    
C54   H73   S    
C46   H44   S    
C26   C27   S    
C38   H28   S    
C42   H38   S    
C21   N4    S    
C36   C37   S    
C43   H41   S    
C27   H2    S    
C4    O2    S    
C38   C39   S    
C52   H65   S    
C5    O3    S    
C13   H12   S    
O13   Zn2   S    
C44   O7    S    
C56   C57   S    
C50   H57   S    
C52   H63   S    
C4    C13   A    
C53   H69   S    
C5    C56   A    
C15   H34   S    
C46   C47   S    
C52   H64   S    
C33   H17   S    
C54   N6    S    
C41   O6    S    
C31   C32   S    
C58   O12   A    
C47   H47   S    
C4    C57   A    
C51   H61   S    
C23   C24   A    
C37   H26   S    
C1    O11   A    
C40   H31   S    
C27   H3    S    
C9    C10   S    
C17   C55   A    
C7    C58   S    
C30   H9    S    
C35   O4    S    
C49   H53   S    
C31   H13   S    
C48   H51   S    
C6    C15   A    
C29   H6    S    
C2    O14   A    
N1    Zn2   S    
C53   N5    S    
C25   O16   S    
C6    C57   A    
C39   H30   S    
C11   H1    S    
C44   C46   S    
C22   C34   A    
C41   H35   S    
C38   H27   S    
C42   H37   S    
O11   Zn2   S    
C12   O10   A    
C3    C11   A    
O14   Zn1   S    
C18   O7    S    
C36   H22   S    
C32   H15   S    
C25   H45   S    
C54   H72   S    
C15   N2    A    
C25   C26   S    
C46   H46   S    
C22   N5    S    
C35   H19   S    
C17   C21   A    
C16   O5    S    
C26   H67   S    
C20   N3    S    
C38   O5    S    
C29   C30   S    
C53   H70   S    
C11   N1    A    
C3    C56   A    
C33   H18   S    
C52   N4    S    
C41   H36   S    
C20   C23   A    
C16   C20   A    
C47   H48   S    
C50   H54   S    
C53   H68   S    
C5    C14   A    
C30   H8    S    
C18   C55   A    
C29   H7    S    
N2    Zn1   S    
C51   N3    S    
O1    Zn1   S    
C48   C49   S    
C1    C23   S    
C2    O13   A    
C47   H49   S    
C13   N2    A    
C37   H24   S    
H62   N4    S    
C42   C43   S    
C6    O4    S    
C39   C40   S    
H58   N3    S    
O9    Zn2   S    
C7    C9    T    
O12   Zn1   S    
C28   C29   S    
C18   C22   A    
C27   H76   S    
C12   O9    A    
C2    C8    S    
C43   H39   S    
C36   H21   S    
C16   C45   A    
C44   H43   S    
C19   C45   A    
C21   C34   A    
C54   H74   S    
C35   H20   S    
C19   O8    S    
C50   H55   S    
C32   C33   S    
C19   C24   A    
C26   H75   S    
C25   H56   S    
C44   H42   S    
C48   H50   S    
H71   N6    S    
C48   O8    S    
C3    O16   S    
C51   H59   S    
C17   O6    S    
C40   H33   S    
C31   O3    S    
C1    O1    A    
C58   O15   A    
C28   H5    S    
C33   H16   S    
C31   H11   S    
C28   O2    S    
C45   C55   S    
C8    C10   T    
C49   C50   S    
C14   N1    A    
C37   H25   S    
C14   H23   S    
C40   H32   S    
C12   C34   S    
C30   H10   S    
C49   H52   S    
O15   Zn2   S    
C28   H4    S    
