data_mof_unit_44038.cif
_audit_creation_date              2012-12-11T14:50:51-0500
_audit_creation_method            fapswitch 2.2
_symmetry_space_group_name_H-M    P1
_symmetry_Int_Tables_number       1
_space_group_crystal_system       triclinic
_cell_length_a                    10.88636
_cell_length_b                    10.910881
_cell_length_c                    18.82619
_cell_angle_alpha                 90.36688
_cell_angle_beta                  89.804364
_cell_angle_gamma                 60.278555
_cell_volume                      1941.89779299

loop_
_atom_site_label
_atom_site_type_symbol
_atom_type_description
_atom_site_fract_x
_atom_site_fract_y
_atom_site_fract_z
_atom_type_partial_charge
C1    C     C_R   0.236050 0.646727 0.609585 0.538748
C2    C     C_R   0.551704 0.225292 0.796098 -0.154762
C3    C     C_R   0.536086 0.238338 0.723735 -0.140314
C4    C     C_R   0.653361 0.621842 0.601272 0.542180
C5    C     C_R   0.653763 0.196498 0.679171 0.023779
C6    C     C_R   0.188960 0.554966 0.720918 -0.154379
C7    C     C_R   0.178598 0.561045 0.794759 -0.156251
C8    C     C_R   0.167323 0.678482 0.831595 0.028522
C9    C     C_R   0.171284 0.786862 0.793969 -0.157687
C10   C     C_R   0.179819 0.781618 0.721024 -0.152668
C11   C     C_R   0.191181 0.664752 0.683725 0.028751
C12   C     C_3   0.673095 0.548881 0.800318 -0.033431
C13   C     C_R   0.729856 0.526044 0.271635 -0.123149
C14   C     C_R   0.728206 0.538665 0.198873 -0.128940
C15   C     C_R   0.650575 0.671398 0.167767 0.030392
C16   C     C_R   0.625767 0.232722 0.604366 0.539403
C17   C     C_R   0.561854 0.789324 0.210321 -0.128836
C18   C     C_R   0.559234 0.775323 0.283921 -0.132720
C19   C     C_R   0.647631 0.644144 0.315039 0.034848
C20   C     C_R   0.542470 0.159890 0.287425 -0.136469
C21   C     C_R   0.542250 0.155351 0.214636 -0.138056
C22   C     C_R   0.651001 0.158204 0.176301 0.039548
C23   C     C_3   0.699752 0.674295 0.812065 0.084896
C24   C     C_R   0.756763 0.172080 0.211576 -0.144697
C25   C     C_R   0.755941 0.178481 0.284885 -0.146836
C26   C     C_R   0.646653 0.176056 0.322941 0.037588
C27   C     C_R   0.088355 0.803278 0.305056 -0.136042
C28   C     C_R   0.219104 0.649530 0.402414 0.550705
C29   C     C_R   0.069446 0.815493 0.232972 -0.121593
C30   C     C_R   0.107389 0.695165 0.190588 0.039018
C31   C     C_R   0.152305 0.564181 0.221658 -0.138057
C32   C     C_R   0.173507 0.551354 0.294339 -0.127785
C33   C     C_R   0.149277 0.669999 0.335220 0.031651
C34   C     C_3   0.669199 0.647137 0.676638 0.042981
C35   C     C_R   0.701820 0.103435 0.896579 0.544895
C36   C     C_R   0.724635 0.688785 0.887776 0.588301
C37   C     C_R   0.116070 0.707742 0.904724 0.551918
C38   C     C_R   0.674336 0.108032 0.103925 0.548435
C39   C     C_R   0.693904 0.689933 0.097113 0.553788
C40   C     C_R   0.640258 0.619920 0.390640 0.549288
C41   C     C_R   0.082672 0.715328 0.115458 0.555004
C42   C     C_R   0.617945 0.227756 0.395127 0.549200
C43   C     C_3   0.574583 0.813328 0.782024 -0.227921
C44   C     C_3   0.553406 0.795097 0.702825 -0.247169
C45   C     C_3   0.815957 0.632220 0.689920 -0.256783
C46   C     C_3   0.835241 0.644779 0.769864 -0.253550
C47   C     C_3   0.654525 0.533419 0.720057 -0.202385
C48   C     C_R   0.788629 0.143716 0.708783 -0.156023
C49   C     C_R   0.805337 0.125021 0.782264 -0.147223
C50   C     C_R   0.686646 0.162266 0.825868 0.019755
Cr1   Cr    Cr6+3 0.392930 0.397900 0.502230 1.007511
Cr2   Cr    Cr6+3 0.398240 0.708600 0.501260 1.010529
Cr3   Cr    Cr6+3 0.708800 0.393470 0.496460 1.007245
Cr4   Cr    Cr6+3 0.937620 0.938540 0.007640 1.012658
Cr5   Cr    Cr6+3 0.625150 0.937450 0.994520 1.014886
Cr6   Cr    Cr6+3 0.937990 0.625080 0.001190 1.014815
H1    H     H_    0.597776 0.901446 0.788168 0.142143
H2    H     H_    0.173645 0.477104 0.822670 0.118505
H3    H     H_    0.162213 0.879389 0.820521 0.128888
H4    H     H_    0.474854 0.844816 0.811880 0.132140
H5    H     H_    0.182193 0.867958 0.694191 0.127174
H6    H     H_    0.795719 0.422555 0.293783 0.131734
H7    H     H_    0.796427 0.445726 0.167340 0.126764
H8    H     H_    0.501295 0.893093 0.187357 0.126775
H9    H     H_    0.491395 0.866745 0.316412 0.118648
H10   H     H_    0.456476 0.157861 0.315538 0.125695
H11   H     H_    0.460343 0.142818 0.188795 0.124278
H12   H     H_    0.736894 0.425915 0.702693 0.132740
H13   H     H_    0.842853 0.172448 0.182722 0.115357
H14   H     H_    0.837582 0.190141 0.311533 0.114744
H15   H     H_    0.066201 0.896071 0.336150 0.125510
H16   H     H_    0.446432 0.807528 0.695525 0.139130
H17   H     H_    0.027549 0.919488 0.210381 0.138246
H18   H     H_    0.176246 0.471915 0.189722 0.120849
H19   H     H_    0.219508 0.447109 0.317258 0.134952
H20   H     H_    0.558209 0.878938 0.671594 0.124077
H21   H     H_    0.860166 0.730919 0.779534 0.133130
H22   H     H_    0.825531 0.715746 0.660940 0.123109
H23   H     H_    0.927315 0.544510 0.787923 0.128690
H24   H     H_    0.767986 0.450494 0.818491 0.151441
H25   H     H_    0.550319 0.541267 0.709183 0.131746
H26   H     H_    0.547801 0.472588 0.839105 0.238288
H27   H     H_    0.457614 0.644585 0.819538 0.241749
H28   H     H_    0.901808 0.528315 0.670129 0.135587
H29   H     H_    0.880148 0.115092 0.675269 0.118711
H30   H     H_    0.910635 0.075135 0.804342 0.126687
H31   H     H_    0.458213 0.256231 0.828537 0.130271
H32   H     H_    0.430405 0.282991 0.702800 0.136486
H33   H     H_    0.196793 0.464234 0.693093 0.115356
N1    N     N_3   0.551131 0.566505 0.842010 -0.639403
O1    O     O_R   0.507430 0.255570 0.581420 -0.528090
O2    O     O_R   0.837200 0.593290 0.915250 -0.530757
O3    O     O_R   0.065330 0.635370 0.931590 -0.510419
O4    O     O_R   0.280190 0.527390 0.578910 -0.510019
O5    O     O_R   0.068300 0.828790 0.091860 -0.527025
O6    O     O_R   0.798730 0.057480 0.079370 -0.510907
O7    O     O_R   0.584680 0.080480 0.076790 -0.527747
O8    O     O_R   0.626790 0.809640 0.067050 -0.502108
O9    O     O_R   0.816010 0.596460 0.076500 -0.520042
O10   O     O_R   0.045680 0.638310 0.081070 -0.502652
O11   O     O_3   0.833590 0.833690 0.001120 -0.253201
O12   O     O_R   0.524460 0.695920 0.424060 -0.499733
O13   O     O_R   0.260310 0.739740 0.584580 -0.531860
O14   O     O_R   0.532250 0.695150 0.573830 -0.508087
O15   O     O_R   0.744930 0.503430 0.576380 -0.527812
O16   O     O_R   0.699250 0.276390 0.571950 -0.507431
O17   O     O_R   0.499020 0.256400 0.419850 -0.527922
O18   O     O_R   0.272400 0.528160 0.429140 -0.508031
O19   O     O_R   0.251910 0.740570 0.423020 -0.520027
O20   O     O_R   0.736530 0.504260 0.414810 -0.526567
O21   O     O_R   0.691460 0.277160 0.422180 -0.508536
O22   O     O_3   0.499990 0.499990 0.499980 -0.245763
O23   O     O_R   0.089490 0.825610 0.930610 -0.522708
O24   O     O_R   0.818370 0.054540 0.929880 -0.505217
O25   O     O_R   0.605870 0.077310 0.915530 -0.529357
O26   O     O_R   0.646440 0.806700 0.917570 -0.505694

loop_
_geom_bond_atom_site_label_1
_geom_bond_atom_site_label_2
_ccdc_geom_bond_type
Cr3   O20   S    
Cr2   O13   S    
Cr1   O22   S    
C46   H23   S    
C27   C29   A    
Cr4   O11   S    
C1    C11   S    
C43   C44   S    
C32   H19   S    
C7    C8    A    
C45   C46   S    
C27   C33   A    
C18   H9    S    
C12   C23   S    
Cr2   O12   S    
Cr5   O25   S    
C12   N1    S    
Cr6   O11   S    
C12   C47   S    
C17   H8    S    
C30   C31   A    
C29   H17   S    
Cr5   O26   S    
Cr2   O22   S    
C22   C38   S    
Cr4   O23   S    
Cr4   O24   S    
C23   C43   S    
C35   O24   A    
C18   C19   A    
C44   H20   S    
C5    C16   S    
C2    C50   A    
Cr1   O1    S    
Cr3   O16   S    
C13   H6    S    
Cr1   O18   S    
C30   C41   S    
C35   O25   A    
C45   H22   S    
C9    C10   A    
C1    O13   A    
C7    H2    S    
Cr4   O6    S    
C16   O16   A    
Cr3   O21   S    
C23   C46   S    
C13   C14   A    
C21   H11   S    
C38   O7    A    
C24   H13   S    
Cr6   O3    S    
C5    C48   A    
C4    C34   S    
C13   C19   A    
C34   C44   S    
C24   C25   A    
C10   C11   A    
C6    C11   A    
C8    C9    A    
C39   O8    A    
C40   O20   A    
C25   C26   A    
C9    H3    S    
C42   O21   A    
C29   C30   A    
C39   O9    A    
C31   C32   A    
C14   C15   A    
Cr5   O7    S    
C35   C50   S    
C17   C18   A    
C41   O10   A    
C37   O3    A    
C2    H31   S    
C34   C45   S    
C15   C39   S    
Cr4   O5    S    
C43   H4    S    
Cr3   O22   S    
C48   C49   A    
C28   C33   S    
C23   C36   S    
C22   C24   A    
C10   H5    S    
C8    C37   S    
Cr6   O10   S    
C36   O26   A    
C47   H12   S    
C27   H15   S    
C26   C42   S    
C42   O17   A    
C20   H10   S    
C15   C17   A    
H27   N1    S    
Cr2   O14   S    
C3    H32   S    
C12   H24   S    
C49   H30   S    
C3    C5    A    
C1    O4    A    
C46   H21   S    
C6    C7    A    
C34   C47   S    
C28   O19   A    
C6    H33   S    
C4    O15   A    
Cr5   O11   S    
H26   N1    S    
C32   C33   A    
C2    C3    A    
C36   O2    A    
C41   O5    A    
C20   C26   A    
Cr2   O19   S    
C28   O18   A    
C14   H7    S    
C4    O14   A    
Cr5   O8    S    
C44   H16   S    
C47   H25   S    
C31   H18   S    
C19   C40   S    
C43   H1    S    
Cr1   O4    S    
C40   O12   A    
C45   H28   S    
Cr3   O15   S    
Cr6   O2    S    
C37   O23   A    
C20   C21   A    
C16   O1    A    
Cr1   O17   S    
C49   C50   A    
C38   O6    A    
C48   H29   S    
C25   H14   S    
Cr6   O9    S    
C21   C22   A    
