data_mof_unit_43083.cif
_audit_creation_date              2012-12-10T20:26:25-0500
_audit_creation_method            fapswitch 2.2
_symmetry_space_group_name_H-M    P1
_symmetry_Int_Tables_number       1
_space_group_crystal_system       triclinic
_cell_length_a                    10.744358
_cell_length_b                    10.743078
_cell_length_c                    9.857397
_cell_angle_alpha                 89.978513
_cell_angle_beta                  91.226596
_cell_angle_gamma                 90.21685
_cell_volume                      1137.54553465

loop_
_atom_site_label
_atom_site_type_symbol
_atom_type_description
_atom_site_fract_x
_atom_site_fract_y
_atom_site_fract_z
_atom_type_partial_charge
C1    C     C_R   0.503717 0.260007 0.499621 0.907340
C2    C     C_R   0.605230 0.526544 0.074350 -0.128463
C3    C     C_R   0.605266 0.526000 0.930624 -0.172289
C4    C     C_R   0.262359 0.497466 0.498139 0.950236
C5    C     C_R   0.391389 0.484223 0.926146 0.191751
C6    C     C_3   0.307414 0.373743 0.917095 0.319115
C7    C     C_3   0.310145 0.370282 0.071430 -0.582963
C8    C     C_R   0.500915 0.739677 0.499788 0.919426
C9    C     C_R   0.737594 0.507329 0.501281 0.833305
C10   C     C_2   0.929401 0.478029 0.395263 -0.427046
C11   C     C_2   0.869997 0.528362 0.499637 0.327730
C12   C     C_R   0.502288 0.127536 0.496257 -0.223203
C13   C     C_2   0.061740 0.500752 0.380912 0.610520
C14   C     C_2   0.131041 0.479167 0.493205 -0.362443
C15   C     C_R   0.459828 0.063464 0.609378 0.057999
C16   C     C_3   0.118271 0.299339 0.839088 -0.349950
C17   C     C_3   0.897087 0.616833 0.714216 -0.286495
C18   C     C_3   0.026890 0.573003 0.158614 -0.312022
C19   C     C_3   0.531872 0.084642 0.141158 -0.322347
C20   C     C_R   0.531924 0.063216 0.375848 0.522061
C21   C     C_R   0.529347 0.933763 0.378662 -0.330784
C22   C     C_R   0.496732 0.871214 0.497140 -0.165683
C23   C     C_R   0.457407 0.936224 0.609769 0.140975
C24   C     C_3   0.503799 0.927873 0.753373 -0.457153
C25   C     C_3   0.506493 0.068563 0.753562 -0.477815
C26   C     C_R   0.391745 0.482799 0.068878 0.203690
H1    H     H_    0.882763 0.416814 0.322278 0.143340
H2    H     H_    0.432843 0.887957 0.821562 0.202000
H3    H     H_    0.597898 0.885501 0.763027 0.202692
H4    H     H_    0.437127 0.108308 0.822745 0.184139
H5    H     H_    0.108990 0.242918 0.933102 0.167564
H6    H     H_    0.159018 0.242416 0.756983 0.164301
H7    H     H_    0.023305 0.327055 0.805088 0.178321
H8    H     H_    0.891465 0.519703 0.753219 0.151609
H9    H     H_    0.809291 0.668551 0.729896 0.172386
H10   H     H_    0.971159 0.664776 0.774659 0.192728
H11   H     H_    0.956900 0.641889 0.192227 0.174289
H12   H     H_    0.601949 0.108327 0.764127 0.208397
H13   H     H_    0.981292 0.486033 0.121471 0.158276
H14   H     H_    0.076216 0.614509 0.071713 0.204247
H15   H     H_    0.543978 0.159136 0.064536 0.184660
H16   H     H_    0.430406 0.063523 0.145526 0.147238
H17   H     H_    0.584078 0.002404 0.105279 0.169386
H18   H     H_    0.690795 0.546343 0.129997 0.148755
H19   H     H_    0.690770 0.544465 0.879066 0.141240
H20   H     H_    0.352720 0.293984 0.866466 0.079165
H21   H     H_    0.218551 0.388520 0.116647 0.262283
H22   H     H_    0.358729 0.287672 0.114025 0.176846
H23   H     H_    0.089262 0.444700 0.585561 0.157149
H24   H     H_    0.561289 0.881973 0.292040 0.180547
N1    N     N_R   0.499170 0.499140 0.142800 -0.100518
N2    N     N_R   0.499170 0.499180 0.857150 -0.139455
O1    O     O_R   0.500020 0.316790 0.614690 -0.634673
O2    O     O_3   0.928961 0.621654 0.576527 -0.603685
O3    O     O_3   0.115202 0.547210 0.262821 -0.592822
O4    O     O_3   0.581739 0.127370 0.266602 -0.581903
O5    O     O_R   0.500000 0.316760 0.385350 -0.564603
O6    O     O_R   0.319080 0.500020 0.614640 -0.591295
O7    O     O_R   0.319070 0.499980 0.385300 -0.568294
O8    O     O_R   0.500000 0.683240 0.614650 -0.620610
O9    O     O_R   0.499980 0.683210 0.385310 -0.621838
O10   O     O_R   0.680930 0.500020 0.614700 -0.642303
O11   O     O_R   0.680920 0.499980 0.385360 -0.636573
O12   O     O_3   0.189635 0.407791 0.862972 -0.573068
Zn1   Zn    Zn3+2 0.500010 0.500020 0.653130 0.946940
Zn2   Zn    Zn3+2 0.499990 0.499980 0.346870 0.987647

loop_
_geom_bond_atom_site_label_1
_geom_bond_atom_site_label_2
_ccdc_geom_bond_type
C19   O4    S    
C10   H1    S    
C8    C22   S    
C3    N2    A    
C19   H16   S    
C5    N2    A    
C6    C7    S    
C17   H10   S    
C1    O5    A    
C25   H12   S    
C16   H6    S    
O1    Zn1   S    
O5    Zn2   S    
O6    Zn1   S    
C9    O10   A    
O10   Zn1   S    
C12   C15   A    
C8    O9    A    
C20   O4    S    
C7    H22   S    
C12   C20   A    
C15   C23   A    
C2    C3    A    
O11   Zn2   S    
C9    O11   A    
C26   N1    A    
C8    O8    A    
C16   H5    S    
C9    C11   S    
C11   O2    S    
C7    C26   S    
C18   O3    S    
C17   O2    S    
C4    O7    A    
C17   H9    S    
C21   H24   S    
C18   H11   S    
C19   H17   S    
O8    Zn1   S    
C10   C11   D    
O7    Zn2   S    
C4    C14   S    
C5    C6    S    
C16   H7    S    
C15   C25   S    
C14   H23   S    
C2    N1    A    
N1    Zn2   S    
C23   C24   S    
C4    O6    A    
C5    C26   A    
C24   H2    S    
C24   H3    S    
C16   O12   S    
C24   C25   S    
C17   H8    S    
C6    O12   S    
C25   H4    S    
C18   H13   S    
C18   H14   S    
C22   C23   A    
C1    O1    A    
C6    H20   S    
C13   C14   D    
C20   C21   A    
C21   C22   A    
O9    Zn2   S    
C3    H19   S    
C1    C12   S    
N2    Zn1   S    
C19   H15   S    
C2    H18   S    
C13   O3    S    
C10   C13   S    
C7    H21   S    
