data_mof_unit_7381.cif
_audit_creation_date              2013-03-05T15:50:45-0500
_audit_creation_method            fapswitch 2.2
_symmetry_space_group_name_H-M    P1
_symmetry_Int_Tables_number       1
_space_group_crystal_system       triclinic
_cell_length_a                    14.309471
_cell_length_b                    14.740375
_cell_length_c                    33.115327
_cell_angle_alpha                 97.255774
_cell_angle_beta                  90.747925
_cell_angle_gamma                 118.655738
_cell_volume                      6058.51490792

loop_
_atom_site_label
_atom_site_type_symbol
_atom_site_description
_atom_site_fract_x
_atom_site_fract_y
_atom_site_fract_z
_atom_type_partial_charge
O1    O     O_R   0.318160 0.824460 0.443680 -0.421144
O2    O     O_R   0.525040 0.857250 0.449830 -0.440079
C1    C     C_R   0.617812 0.908708 0.437380 0.595868
O3    O     O_R   0.684760 0.998800 0.456360 -0.464121
O4    O     O_R   0.647540 0.166310 0.470260 -0.506256
C2    C     C_R   0.594166 0.206152 0.456712 0.537879
O5    O     O_R   0.500960 0.181750 0.467450 -0.501286
O6    O     O_R   0.331100 0.981120 0.457080 -0.511601
C3    C     C_R   0.292303 0.891723 0.435183 0.566956
O7    O     O_R   0.315560 0.821140 0.532010 -0.506968
O8    O     O_R   0.522630 0.854180 0.531710 -0.456766
C4    C     C_R   0.614642 0.904417 0.551189 0.584087
O9    O     O_R   0.682160 0.995480 0.544690 -0.498574
O10   O     O_R   0.645130 0.163230 0.552140 -0.521306
C5    C     C_R   0.590890 0.201158 0.570573 0.566498
O11   O     O_R   0.498360 0.178430 0.555780 -0.422511
O12   O     O_R   0.328690 0.978040 0.538950 -0.446821
C6    C     C_R   0.287394 0.886106 0.548099 0.550999
Cr1   Cr    Cr6+3 0.424820 0.846020 0.489780 1.193623
Cr2   Cr    Cr6+3 0.657880 0.078580 0.505700 1.083713
Cr3   Cr    Cr6+3 0.417280 0.075360 0.504550 1.146332
O13   O     O_3   0.499990 0.999990 0.500010 -0.307191
C7    C     C_R   0.739927 0.453947 0.106829 0.022319
C8    C     C_R   0.656249 0.444356 0.130769 -0.117706
C9    C     C_R   0.662456 0.436369 0.171977 -0.113730
C10   C     C_R   0.752165 0.437435 0.190104 0.031525
C11   C     C_R   0.832646 0.439957 0.165718 -0.119232
C12   C     C_R   0.826402 0.447868 0.124298 -0.129021
C13   C     C_R   0.790175 0.366980 0.249128 -0.102753
C14   C     C_R   0.782191 0.353420 0.290061 -0.095581
C15   C     C_R   0.743877 0.407638 0.316771 0.032439
C16   C     C_R   0.720872 0.481053 0.302601 -0.102538
C17   C     C_R   0.729182 0.494848 0.261694 -0.111525
C18   C     C_R   0.759936 0.434926 0.234332 0.024595
C19   C     C_R   0.613337 0.354603 0.369711 -0.103494
C20   C     C_R   0.575850 0.304253 0.403636 -0.111798
C21   C     C_R   0.743826 0.304791 0.415012 -0.102057
C22   C     C_R   0.781178 0.355032 0.381139 -0.088431
C23   C     C_R   0.714723 0.376684 0.357317 0.027326
C24   C     C_R   0.639259 0.275228 0.425587 0.016032
H1    H     H_    0.588141 0.448166 0.118238 0.135018
H2    H     H_    0.891548 0.454133 0.106463 0.119600
H3    H     H_    0.860179 0.372710 0.372448 0.161802
H4    H     H_    0.799251 0.295394 0.300147 0.121262
H5    H     H_    0.813769 0.319733 0.228603 0.116809
H6    H     H_    0.597722 0.431140 0.189891 0.116550
H7    H     H_    0.692622 0.524718 0.322809 0.131511
H8    H     H_    0.708026 0.549743 0.251099 0.117747
H9    H     H_    0.560194 0.369772 0.351602 0.128333
H10   H     H_    0.495204 0.282906 0.411217 0.150224
H11   H     H_    0.902210 0.439966 0.178998 0.110408
H12   H     H_    0.795237 0.284862 0.431765 0.161028
H13   H     H_    0.034087 0.637581 0.118007 0.141296
H14   H     H_    0.053508 0.665440 0.191997 0.123327
H15   H     H_    0.049725 0.681025 0.322267 0.149882
C25   C     C_R   0.225877 0.872261 0.397153 0.019772
C26   C     C_R   0.243656 0.959316 0.378502 -0.150243
C27   C     C_R   0.194449 0.946252 0.340125 -0.100250
C28   C     C_R   0.126483 0.846070 0.319643 -0.006092
C29   C     C_R   0.104011 0.758526 0.338293 -0.084960
C30   C     C_R   0.151706 0.770367 0.377408 0.234607
C31   C     C_R   0.042776 0.720700 0.176448 -0.159009
C32   C     C_R   0.032723 0.705503 0.134097 -0.133570
C33   C     C_R   0.017618 0.862459 0.134959 -0.120096
C34   C     C_R   0.028321 0.879227 0.178047 0.227193
C35   C     C_R   0.041291 0.806919 0.198653 0.024599
C36   C     C_1   0.064117 0.822725 0.242104 0.052403
C37   C     C_1   0.089036 0.833333 0.277888 0.018289
C38   C     C_R   0.020462 0.776106 0.112791 -0.027546
H16   H     H_    0.299737 0.038081 0.392812 0.146206
H17   H     H_    0.005711 0.915957 0.118762 0.160744
H18   H     H_    0.212842 0.014348 0.325732 0.154262
H19   H     H_    0.857653 0.973283 0.118690 0.152375
H20   H     H_    0.833540 0.004217 0.191407 0.177399
H21   H     H_    0.834148 0.971647 0.329711 0.184480
C39   C     C_R   0.640450 0.873695 0.396217 -0.002356
C40   C     C_R   0.554582 0.801336 0.367151 0.156702
C41   C     C_R   0.569155 0.799970 0.325450 -0.114701
C42   C     C_R   0.668102 0.865144 0.312234 -0.055100
C43   C     C_R   0.756149 0.926233 0.340470 -0.101488
C44   C     C_R   0.744189 0.929380 0.382524 0.169283
C45   C     C_R   0.774460 0.933331 0.172468 -0.076261
C46   C     C_R   0.787593 0.915749 0.130981 -0.120739
C47   C     C_R   0.625404 0.748115 0.123751 -0.123551
C48   C     C_R   0.612685 0.765794 0.165113 -0.118098
C49   C     C_R   0.689115 0.856585 0.189752 0.031737
C50   C     C_1   0.684535 0.865063 0.233138 0.006377
C51   C     C_1   0.678764 0.866871 0.269356 0.004170
C52   C     C_R   0.715497 0.820861 0.106636 0.010548
H22   H     H_    0.546112 0.706171 0.178281 0.115795
H23   H     H_    0.568191 0.674458 0.105837 0.131430
H24   H     H_    0.502640 0.748113 0.303175 0.160610
H25   H     H_    0.847008 0.394410 0.903340 0.126283
H26   H     H_    0.826694 0.347173 0.829053 0.108277
H27   H     H_    0.756543 0.227606 0.694372 0.124817
H28   H     H_    0.732250 0.187674 0.620305 0.144869
C53   C     C_R   0.626801 0.253608 0.613306 0.010692
C54   C     C_R   0.581132 0.310823 0.634359 0.218870
C55   C     C_R   0.594521 0.331105 0.677289 -0.084879
C56   C     C_R   0.655076 0.298615 0.698800 -0.005409
C57   C     C_R   0.708356 0.251709 0.677859 -0.131636
C58   C     C_R   0.694867 0.229859 0.635475 -0.170374
C59   C     C_R   0.760002 0.345533 0.844717 -0.115177
C60   C     C_R   0.770995 0.371653 0.887133 -0.127213
C61   C     C_R   0.591118 0.348264 0.885409 -0.125957
C62   C     C_R   0.580421 0.322244 0.842996 -0.111506
C63   C     C_R   0.666256 0.324680 0.822585 0.039685
C64   C     C_1   0.661691 0.314889 0.778968 -0.022125
C65   C     C_1   0.658863 0.308504 0.742419 -0.019385
C66   C     C_R   0.688437 0.378091 0.907712 0.021154
H29   H     H_    0.507409 0.305785 0.825998 0.114145
H30   H     H_    0.526134 0.352672 0.900268 0.128614
H31   H     H_    0.556918 0.371195 0.693988 0.153067
C67   C     C_R   0.063526 0.751628 0.907356 0.023439
C68   C     C_R   0.087837 0.845923 0.893427 -0.137799
C69   C     C_R   0.102398 0.854999 0.852382 -0.125109
C70   C     C_R   0.093173 0.770020 0.824846 0.031640
C71   C     C_R   0.076372 0.678422 0.839347 -0.120038
C72   C     C_R   0.062132 0.669432 0.880363 -0.121612
C73   C     C_R   0.152814 0.734790 0.757365 -0.111574
C74   C     C_R   0.157114 0.740468 0.715851 -0.105765
C75   C     C_R   0.105127 0.786357 0.697142 0.034321
C76   C     C_R   0.046538 0.824275 0.720344 -0.115110
C77   C     C_R   0.042357 0.818688 0.761980 -0.118258
C78   C     C_R   0.096529 0.774987 0.780843 0.031603
C79   C     C_R   0.156913 0.905114 0.644938 -0.093654
C80   C     C_R   0.200587 0.931578 0.607873 0.200329
C81   C     C_R   0.169197 0.753415 0.589197 -0.135099
C82   C     C_R   0.124033 0.727725 0.625690 -0.126644
C83   C     C_R   0.123676 0.804984 0.654768 -0.015360
C84   C     C_R   0.214549 0.856836 0.581022 0.008914
H32   H     H_    0.089895 0.910564 0.913779 0.121726
H33   H     H_    0.042693 0.595507 0.890238 0.126751
H34   H     H_    0.096005 0.649140 0.632404 0.133512
H35   H     H_    0.204993 0.712993 0.698720 0.112547
H36   H     H_    0.196112 0.701782 0.771335 0.104758
H37   H     H_    0.117754 0.927253 0.841932 0.108933
H38   H     H_    0.005603 0.859590 0.706402 0.111213
H39   H     H_    0.997092 0.848758 0.779416 0.095423
H40   H     H_    0.154414 0.964647 0.666995 0.146780
H41   H     H_    0.068478 0.611668 0.818617 0.105471
H42   H     H_    0.174918 0.693399 0.568590 0.172503
C85   C     C_R   0.718379 0.702541 0.900830 0.016517
C86   C     C_R   0.618911 0.626687 0.880778 -0.124448
C87   C     C_R   0.600257 0.617381 0.838410 -0.119340
C88   C     C_R   0.681694 0.681625 0.815502 0.029809
C89   C     C_R   0.782167 0.753659 0.835387 -0.112221
C90   C     C_R   0.800102 0.764305 0.877540 -0.121237
C91   C     C_R   0.576639 0.701764 0.760316 -0.108019
C92   C     C_R   0.569623 0.727407 0.721667 -0.097825
C93   C     C_R   0.644850 0.733552 0.693880 0.035753
C94   C     C_R   0.723944 0.708282 0.704314 -0.102522
C95   C     C_R   0.732159 0.684365 0.743324 -0.117808
C96   C     C_R   0.660262 0.683834 0.771985 0.025677
C97   C     C_R   0.625241 0.716999 0.617660 -0.073701
C98   C     C_R   0.618975 0.757894 0.582213 0.242421
C99   C     C_R   0.663870 0.923426 0.624377 -0.163354
C100  C     C_R   0.668316 0.881608 0.659292 -0.132842
C101  C     C_R   0.647246 0.777826 0.656234 -0.029454
C102  C     C_R   0.636359 0.861754 0.585784 0.017650
H43   H     H_    0.555034 0.576496 0.897833 0.128225
H44   H     H_    0.877900 0.822238 0.892093 0.130036
H45   H     H_    0.686160 0.929677 0.688920 0.126323
H46   H     H_    0.508199 0.746890 0.713996 0.114553
H47   H     H_    0.521202 0.703071 0.782048 0.108570
H48   H     H_    0.522051 0.561276 0.823576 0.110182
H49   H     H_    0.782823 0.713082 0.683215 0.124682
H50   H     H_    0.797276 0.670758 0.751789 0.118214
H51   H     H_    0.609716 0.636946 0.615444 0.197756
H52   H     H_    0.845512 0.805270 0.818542 0.103237
H53   H     H_    0.676674 0.002699 0.627728 0.119113
O14   O     O_R   0.828710 0.851830 0.052170 -0.521219
O15   O     O_R   0.005980 0.823990 0.047210 -0.492637
C103  C     C_R   0.000625 0.751916 0.067838 0.575354
O16   O     O_R   0.031900 0.688850 0.050170 -0.507324
O17   O     O_R   0.830940 0.518420 0.048680 -0.518585
C104  C     C_R   0.744380 0.487169 0.066460 0.537694
O18   O     O_R   0.668160 0.499860 0.053480 -0.514151
O19   O     O_R   0.689170 0.693840 0.050110 -0.496699
C105  C     C_R   0.743126 0.789216 0.066476 0.543488
O20   O     O_R   0.803860 0.812940 0.962540 -0.506965
O21   O     O_R   0.982950 0.787950 0.964120 -0.517528
C106  C     C_R   0.021185 0.732031 0.947230 0.546886
O22   O     O_R   0.007050 0.649970 0.960540 -0.512357
O23   O     O_R   0.807910 0.482370 0.965590 -0.502609
C107  C     C_R   0.712094 0.437642 0.949264 0.537549
O24   O     O_R   0.643310 0.460980 0.963840 -0.522452
O25   O     O_R   0.666140 0.657800 0.967020 -0.495203
C108  C     C_R   0.741470 0.717160 0.945497 0.564030
Cr4   Cr    Cr6+3 0.903360 0.812540 0.006510 1.014468
Cr5   Cr    Cr6+3 0.914630 0.587050 0.006280 1.003170
Cr6   Cr    Cr6+3 0.673560 0.582680 0.008540 1.008267
O26   O     O_3   0.830520 0.660760 0.007110 -0.285712
N1    N     N_R   0.122359 0.679291 0.396663 0.111186
O27   O     O_R   0.105928 0.681962 0.435248 -0.296825
O28   O     O_R   0.095148 0.589471 0.374559 -0.300401
N2    N     N_R   0.026727 0.969339 0.199938 0.070761
O29   O     O_R   0.050646 0.050859 0.182225 -0.361919
O30   O     O_R   0.994308 0.968158 0.236497 -0.343044
N3    N     N_R   0.837653 0.988521 0.410823 0.099893
O31   O     O_R   0.846360 0.952573 0.443794 -0.256098
O32   O     O_R   0.920202 0.070266 0.401094 -0.309298
N4    N     N_R   0.452094 0.729647 0.379179 0.094828
O33   O     O_R   0.446016 0.668424 0.405296 -0.250717
O34   O     O_R   0.365094 0.711479 0.358702 -0.314981
N5    N     N_R   0.522343 0.349018 0.612883 0.107473
O35   O     O_R   0.449370 0.364587 0.630462 -0.284489
O36   O     O_R   0.552247 0.383069 0.578365 -0.283210
N6    N     N_R   0.233800 0.035042 0.599043 0.091547
O37   O     O_R   0.195592 0.047283 0.565519 -0.266114
O38   O     O_R   0.284591 0.115332 0.627517 -0.305134
S1    S     S_3+6 0.589173 0.677509 0.534261 0.059700
O39   O     O_2   0.472213 0.631306 0.521518 -0.236782
O40   O     O_2   0.653704 0.741201 0.502796 -0.245127
O41   O     O_3   0.617603 0.580340 0.537684 -0.480206
H54   H     H_    0.595729 0.537539 0.510220 0.387473

loop_
_geom_bond_atom_site_label_1
_geom_bond_atom_site_label_2
_geom_bond_distance
_ccdc_geom_bond_type
C67   C106  1.464057 S    
N1    O28   1.301398 A    
N4    O33   1.301473 A    
C57   C58   1.389282 A    
H28   C58   1.082741 S    
C86   H43   1.082700 S    
C98   S1    1.769156 S    
C77   H39   1.081593 S    
C19   C20   1.394687 A    
C61   C66   1.407820 A    
C71   H41   1.083049 S    
C81   C82   1.386642 A    
C44   N3    1.438596 S    
C82   C83   1.397463 A    
C67   C68   1.402887 A    
O23   C107  1.276904 A    
C76   C77   1.391927 A    
O4    Cr2   1.906271 S    
C40   C41   1.398384 A    
C64   C65   1.200680 T    
C4    O9    1.271266 A    
N4    O34   1.301430 A    
C76   H38   1.083219 S    
O8    Cr1   1.909709 S    
C10   C11   1.403760 A    
C72   H33   1.083250 S    
C29   C30   1.406987 A    
O4    C2    1.271739 A    
Cr3   O13   1.970076 S    
C21   C22   1.392197 A    
H20   C45   1.083173 S    
C69   H37   1.083037 S    
C21   C24   1.406527 A    
O16   Cr5   2.037268 S    
C22   C23   1.401268 A    
C103  O16   1.294317 A    
N5    O36   1.301296 A    
C33   H17   1.082539 S    
O25   Cr6   1.902991 S    
C62   C63   1.397241 A    
C79   C83   1.400983 A    
C5    O11   1.273394 A    
O15   Cr4   1.911678 S    
C69   C70   1.402750 A    
O12   C6    1.271907 A    
C52   C105  1.475262 S    
N2    O30   1.301313 A    
C71   C72   1.389508 A    
Cr4   O26   1.966597 S    
O21   C106  1.271090 A    
O20   C108  1.298272 A    
C80   N6    1.434709 S    
C99   C100  1.391609 A    
O19   Cr6   1.923779 S    
C89   C90   1.391313 A    
C11   H11   1.082912 S    
N3    O31   1.301665 A    
C19   H9    1.083022 S    
C93   C94   1.402038 A    
O23   Cr5   1.920871 S    
C47   H23   1.083084 S    
C26   H16   1.083520 S    
H21   C43   1.083897 S    
C53   C58   1.408347 A    
C89   H52   1.081926 S    
C68   H32   1.083212 S    
O14   C105  1.271858 A    
C35   C36   1.435767 S    
C56   C65   1.431043 S    
C95   C96   1.406783 A    
C91   C96   1.402888 A    
H15   C29   1.084028 S    
C8    H1    1.083058 S    
C14   H4    1.083058 S    
C6    C84   1.475987 S    
C5    C53   1.479166 S    
C40   N4    1.435733 S    
H25   C60   1.083057 S    
C42   C51   1.432182 S    
C10   C18   1.473869 S    
C53   C54   1.419975 A    
C97   C98   1.406107 A    
C87   H48   1.083057 S    
C85   C90   1.403930 A    
C46   C52   1.407161 A    
O1    Cr1   2.027907 S    
C74   C75   1.404004 A    
C31   C35   1.395199 A    
C97   C101  1.401498 A    
C36   C37   1.201874 T    
C32   C38   1.403236 A    
C98   C102  1.416997 A    
Cr1   O13   1.969170 S    
O1    C3    1.272289 A    
C8    C9    1.389739 A    
N6    O37   1.301250 A    
C21   H12   1.083076 S    
N5    O35   1.301491 A    
O6    C3    1.271599 A    
O17   Cr5   1.915667 S    
H14   C31   1.084468 S    
O14   Cr4   2.043788 S    
C9    C10   1.402347 A    
O15   C103  1.306826 A    
C75   C83   1.466981 S    
C13   C18   1.401593 A    
C45   C46   1.397668 A    
O12   Cr3   1.915453 S    
O19   C105  1.273542 A    
C13   H5    1.083012 S    
O25   C108  1.307108 A    
C73   H36   1.083108 S    
C93   C101  1.471861 S    
C19   C23   1.405546 A    
C106  O22   1.265189 A    
Cr5   O26   1.969102 S    
C13   C14   1.393216 A    
O10   Cr2   1.922562 S    
C28   C37   1.432799 S    
O18   Cr6   2.020522 S    
O20   Cr4   2.025707 S    
C97   H51   1.083252 S    
C15   C16   1.401972 A    
C88   C96   1.477054 S    
S1    O41   1.681816 S    
C20   C24   1.403003 A    
O7    Cr1   2.042371 S    
C7    C8    1.404619 A    
C79   H40   1.083399 S    
C31   C32   1.386452 A    
C17   C18   1.405666 A    
C85   C108  1.477157 S    
O22   Cr5   2.033276 S    
C91   H47   1.083341 S    
C25   C30   1.419439 A    
C3    C25   1.479087 S    
C33   C38   1.405430 A    
C47   C48   1.392478 A    
C1    C39   1.491165 S    
O24   Cr6   2.040679 S    
C100  H45   1.083603 S    
C34   N2    1.441064 S    
O17   C104  1.278034 A    
C61   H30   1.082982 S    
Cr2   O13   1.976246 S    
H26   C59   1.083688 S    
C104  O18   1.270072 A    
C99   C102  1.401756 A    
C95   H50   1.083353 S    
C100  C101  1.399684 A    
C16   H7    1.083198 S    
C2    C24   1.472335 S    
C42   C43   1.393189 A    
C7    C12   1.405214 A    
C47   C52   1.407064 A    
C63   C64   1.430817 S    
C1    O3    1.276567 A    
C81   C84   1.406559 A    
C73   C78   1.400697 A    
C87   C88   1.405831 A    
C11   C12   1.396503 A    
C94   H49   1.083392 S    
C20   H10   1.083048 S    
C73   C74   1.388177 A    
C49   C50   1.431447 S    
C88   C89   1.400934 A    
O5    Cr3   2.031408 S    
C25   C26   1.408575 A    
C66   C107  1.475213 S    
O9    Cr2   2.020947 S    
O2    Cr1   1.926503 S    
C41   C42   1.391745 A    
C67   C72   1.403621 A    
S1    O40   1.503497 D    
C43   C44   1.403007 A    
C4    C102  1.471257 S    
O6    Cr3   1.917392 S    
C39   C44   1.423346 A    
C55   H31   1.083849 S    
C48   H22   1.083836 S    
O11   Cr3   2.034554 S    
C2    O5    1.272497 A    
C92   H46   1.083638 S    
C61   C62   1.394709 A    
C92   C93   1.402533 A    
C55   C56   1.398456 A    
C62   H29   1.083656 S    
C86   C87   1.401806 A    
C41   H24   1.084327 S    
Cr6   O26   1.977056 S    
O2    C1    1.278730 A    
C27   C28   1.392475 A    
C90   H44   1.082168 S    
C22   H3    1.083321 S    
C48   C49   1.396424 A    
C45   C49   1.398418 A    
C91   C92   1.395067 A    
C16   C17   1.393253 A    
C60   C66   1.407561 A    
C39   C40   1.423626 A    
H13   C32   1.082095 S    
C27   H18   1.083861 S    
C26   C27   1.390229 A    
C14   C15   1.405684 A    
C81   H42   1.083243 S    
O7    C6    1.268949 A    
C79   C80   1.398747 A    
C9    H6    1.083216 S    
C33   C34   1.410477 A    
C12   H2    1.082564 S    
C56   C57   1.392286 A    
N6    O38   1.301260 A    
C15   C23   1.473749 S    
N1    O27   1.301366 A    
C34   C35   1.416426 A    
O41   H54   0.990657 S    
N2    O29   1.301527 A    
C80   C84   1.418677 A    
C7    C104  1.472641 S    
C82   H34   1.083473 S    
O3    Cr2   2.040939 S    
H27   C57   1.083923 S    
C28   C29   1.399487 A    
S1    O39   1.502906 D    
C74   H35   1.083261 S    
C50   C51   1.201114 T    
N3    O32   1.301499 A    
C54   C55   1.406336 A    
C38   C103  1.476997 S    
C59   C60   1.394798 A    
C75   C76   1.401205 A    
C17   H8    1.083253 S    
O10   C5    1.276680 A    
C54   N5    1.438819 S    
C59   C63   1.397535 A    
C94   C95   1.399199 A    
O21   Cr4   1.925649 S    
C68   C69   1.391204 A    
C107  O24   1.270947 A    
C70   C71   1.402444 A    
C70   C78   1.468476 S    
C30   N1    1.437953 S    
H19   C46   1.082748 S    
C99   H53   1.082900 S    
C85   C86   1.406564 A    
O8    C4    1.272821 A    
C77   C78   1.404998 A    
