data_mof_unit_45823.cif
_audit_creation_date              2012-12-10T17:54:16-0500
_audit_creation_method            fapswitch 2.2
_symmetry_space_group_name_H-M    P1
_symmetry_Int_Tables_number       1
_space_group_crystal_system       triclinic
_cell_length_a                    27.738881
_cell_length_b                    10.719437
_cell_length_c                    9.871068
_cell_angle_alpha                 89.429317
_cell_angle_beta                  89.965634
_cell_angle_gamma                 91.706911
_cell_volume                      2933.66547153

loop_
_atom_site_label
_atom_site_type_symbol
_atom_type_description
_atom_site_fract_x
_atom_site_fract_y
_atom_site_fract_z
_atom_type_partial_charge
C1    C     C_R   0.503217 0.259924 0.501707 0.875065
C2    C     C_R   0.972899 0.380572 0.485448 0.045883
C3    C     C_R   0.975968 0.609662 0.512834 0.047111
C4    C     C_R   0.406047 0.499169 0.500058 0.850686
C5    C     C_R   0.949214 0.495463 0.499017 0.076223
C6    C     C_R   0.944515 0.268813 0.480295 -0.208721
C7    C     C_R   0.894570 0.270493 0.482213 -0.122061
C8    C     C_R   0.871026 0.383349 0.490064 -0.031610
C9    C     C_R   0.898151 0.496169 0.498845 -0.049777
C10   C     C_R   0.874086 0.609700 0.507521 -0.033705
C11   C     C_R   0.823658 0.608230 0.507322 0.572507
C12   C     C_R   0.278013 0.499839 0.623428 -0.100752
C13   C     C_R   0.820649 0.386191 0.490551 0.554491
C14   C     C_R   0.722171 0.504615 0.622597 0.707307
C15   C     C_R   0.672085 0.505260 0.622779 -0.293551
C16   C     C_R   0.495011 0.738950 0.499992 0.893808
C17   C     C_R   0.671935 0.493491 0.376963 -0.189203
C18   C     C_R   0.721995 0.492600 0.377111 -0.182175
C19   C     C_R   0.747023 0.498220 0.499721 0.187128
C20   C     C_R   0.023925 0.380872 0.478648 0.046936
C21   C     C_R   0.050650 0.494072 0.499831 0.071672
C22   C     C_R   0.026934 0.607955 0.520544 0.046267
C23   C     C_R   0.252940 0.491922 0.500929 0.321956
C24   C     C_R   0.049368 0.271662 0.450234 -0.213684
C25   C     C_R   0.105138 0.714201 0.551969 -0.134550
C26   C     C_R   0.950627 0.722189 0.517392 -0.208549
C27   C     C_R   0.900665 0.721890 0.515178 -0.124601
C28   C     C_R   0.593962 0.500158 0.499973 0.925554
C29   C     C_R   0.055217 0.716423 0.549600 -0.213499
C30   C     C_R   0.512379 0.108860 0.760643 -0.252314
C31   C     C_R   0.497808 0.046524 0.879156 0.676873
C32   C     C_R   0.472027 0.933757 0.871160 -0.254461
C33   C     C_R   0.465280 0.877639 0.745625 -0.249303
C34   C     C_R   0.101714 0.493395 0.500314 -0.051452
C35   C     C_R   0.484305 0.934725 0.626053 0.104668
C36   C     C_R   0.501020 0.058712 0.631463 0.015329
C37   C     C_R   0.505316 0.125996 0.506854 -0.103141
C38   C     C_R   0.503518 0.064058 0.382966 -0.180530
C39   C     C_R   0.497172 0.937143 0.380727 -0.193604
C40   C     C_R   0.176310 0.383812 0.475531 0.503795
C41   C     C_R   0.489021 0.871549 0.501705 -0.116077
C42   C     C_R   0.436491 0.336541 0.142148 -0.134690
C43   C     C_R   0.405206 0.256308 0.072456 -0.152847
C44   C     C_R   0.405198 0.256516 0.932278 -0.172161
C45   C     C_R   0.125865 0.382270 0.474909 -0.020689
C46   C     C_R   0.436530 0.336823 0.861077 -0.161481
C47   C     C_R   0.468716 0.419435 0.928397 0.172672
C48   C     C_R   0.468718 0.419401 0.073256 0.191144
C49   C     C_R   0.529785 0.577403 0.070740 -0.112352
C50   C     C_R   0.529766 0.577381 0.927338 -0.107341
C51   C     C_R   0.179121 0.601125 0.526227 0.505245
C52   C     C_R   0.277824 0.485552 0.378180 -0.101451
C53   C     C_R   0.327918 0.487918 0.377666 -0.222011
C54   C     C_R   0.328098 0.501933 0.623346 -0.223954
C55   C     C_R   0.099351 0.272572 0.448762 -0.136578
C56   C     C_R   0.128754 0.603866 0.526171 -0.022136
C57   C     C_R   0.353383 0.496537 0.500321 -0.034259
C58   C     C_R   0.646636 0.499728 0.499893 -0.139454
F1    F     F_    0.507765 0.097222 0.001670 -0.689884
F2    F     F_    0.746612 0.509824 0.741539 -0.645738
H1    H     H_    0.346919 0.508216 0.719263 0.163615
H2    H     H_    0.458661 0.887654 0.962376 0.164272
H3    H     H_    0.444952 0.789989 0.743200 0.188973
H4    H     H_    0.499496 0.890480 0.284139 0.187350
H5    H     H_    0.554074 0.640543 0.124141 0.155424
H6    H     H_    0.380864 0.193490 0.127745 0.153365
H7    H     H_    0.380960 0.193620 0.878180 0.154414
H8    H     H_    0.434663 0.330628 0.753758 0.205741
H9    H     H_    0.554022 0.640557 0.872423 0.161242
H10   H     H_    0.117148 0.186437 0.426805 0.190757
H11   H     H_    0.653351 0.510197 0.718796 0.191036
H12   H     H_    0.258270 0.479598 0.283429 0.139644
H13   H     H_    0.874450 0.182418 0.477720 0.194089
H14   H     H_    0.959694 0.177596 0.477719 0.139240
H15   H     H_    0.031804 0.183895 0.425612 0.141321
H16   H     H_    0.346599 0.483052 0.281560 0.162238
H17   H     H_    0.968274 0.812962 0.519791 0.138346
H18   H     H_    0.258602 0.504595 0.718369 0.139521
H19   H     H_    0.434214 0.330685 0.249539 0.197293
H20   H     H_    0.125180 0.799835 0.574333 0.192638
H21   H     H_    0.653139 0.489050 0.280913 0.186555
H22   H     H_    0.882937 0.810496 0.519420 0.191147
H23   H     H_    0.741428 0.487717 0.282216 0.179505
H24   H     H_    0.039954 0.804581 0.574097 0.142275
H25   H     H_    0.507544 0.113375 0.287085 0.226880
H26   H     H_    0.533833 0.193686 0.772704 0.198571
N1    N     N_R   0.201615 0.492194 0.501033 -0.358281
N2    N     N_R   0.798301 0.497524 0.499183 -0.339007
N3    N     N_R   0.499540 0.498800 0.142780 -0.126930
N4    N     N_R   0.499520 0.498720 0.857170 -0.131918
O1    O     O_R   0.500000 0.316780 0.614690 -0.651585
O2    O     O_R   0.571250 0.499990 0.614680 -0.617731
O3    O     O_R   0.571240 0.499970 0.385350 -0.614184
O4    O     O_2   0.199982 0.277990 0.451737 -0.554766
O5    O     O_2   0.794103 0.278882 0.482820 -0.533716
O6    O     O_2   0.205523 0.706424 0.550238 -0.552325
O7    O     O_2   0.800031 0.716236 0.515047 -0.531550
O8    O     O_R   0.500000 0.316750 0.385360 -0.631773
O9    O     O_R   0.428760 0.500030 0.614650 -0.650140
O10   O     O_R   0.428750 0.500010 0.385320 -0.644888
O11   O     O_R   0.500000 0.683250 0.614640 -0.621833
O12   O     O_R   0.500000 0.683220 0.385310 -0.621773
Zn1   Zn    Zn3+2 0.500000 0.500020 0.653130 0.936222
Zn2   Zn    Zn3+2 0.500000 0.499980 0.346870 0.952750

loop_
_geom_bond_atom_site_label_1
_geom_bond_atom_site_label_2
_ccdc_geom_bond_type
C10   C27   A    
O9    Zn1   S    
C34   C56   A    
C8    C13   A    
C22   C29   A    
C25   H20   S    
C35   C36   A    
C25   C56   A    
C7    C8    A    
C7    H13   S    
C31   C32   A    
C24   C55   A    
C46   H8    S    
C39   H4    S    
C12   C23   A    
C26   C27   A    
C49   H5    S    
C13   O5    S    
C40   N1    A    
C36   C37   A    
C50   H9    S    
C18   C19   A    
C38   C39   A    
O10   Zn2   S    
C51   C56   A    
C31   F1    S    
O2    Zn1   S    
C33   C35   A    
C50   N4    A    
C20   C24   A    
C8    C9    A    
C12   H18   S    
C4    C57   S    
C6    H14   S    
C40   O4    S    
C30   H26   S    
C9    C10   A    
C1    C37   S    
C17   C58   A    
C42   H19   S    
C1    O1    A    
C23   N1    S    
C21   C22   A    
C2    C6    A    
O3    Zn2   S    
C44   C46   A    
C17   C18   A    
C3    C26   A    
C25   C29   A    
C40   C45   A    
C26   H17   S    
C44   H7    S    
C38   H25   S    
C2    C20   A    
C29   H24   S    
C39   C41   A    
C19   N2    S    
C51   N1    A    
C53   C57   A    
C21   C34   A    
C28   O3    A    
C43   C44   A    
C5    C9    A    
C37   C38   A    
C52   H12   S    
O1    Zn1   S    
C47   C48   A    
C11   N2    A    
C33   H3    S    
C18   H23   S    
C28   O2    A    
C34   C45   A    
C42   C48   A    
O12   Zn2   S    
C16   O12   A    
C48   N3    A    
C4    O10   A    
N3    Zn2   S    
C47   N4    A    
C53   H16   S    
C42   C43   A    
C14   F2    S    
C52   C53   A    
C46   C47   A    
C14   C19   A    
C27   H22   S    
C49   N3    A    
C3    C5    A    
C1    O8    A    
C24   H15   S    
C6    C7    A    
C54   H1    S    
C28   C58   S    
C15   H11   S    
C51   O6    S    
C30   C36   A    
C11   O7    S    
C32   C33   A    
C32   H2    S    
C23   C52   A    
C30   C31   A    
C43   H6    S    
O8    Zn2   S    
C13   N2    A    
C15   C58   A    
C17   H21   S    
C35   C41   A    
N4    Zn1   S    
C55   H10   S    
C10   C11   A    
C2    C5    A    
C16   O11   A    
C20   C21   A    
C45   C55   A    
O11   Zn1   S    
C49   C50   A    
C4    O9    A    
C14   C15   A    
C3    C22   A    
C16   C41   S    
C12   C54   A    
C54   C57   A    
