data_mof_unit_32505.cif
_audit_creation_date              2012-12-11T14:10:39-0500
_audit_creation_method            fapswitch 2.2
_symmetry_space_group_name_H-M    P1
_symmetry_Int_Tables_number       1
_space_group_crystal_system       triclinic
_cell_length_a                    20.500472
_cell_length_b                    17.062801
_cell_length_c                    15.826606
_cell_angle_alpha                 89.450691
_cell_angle_beta                  50.603439
_cell_angle_gamma                 89.99011
_cell_volume                      4277.80021616

loop_
_atom_site_label
_atom_site_type_symbol
_atom_type_description
_atom_site_fract_x
_atom_site_fract_y
_atom_site_fract_z
_atom_type_partial_charge
C1    C     C_R   0.366186 0.194856 0.006321 0.424837
C2    C     C_R   0.635100 0.805742 0.991435 0.347699
C3    C     C_R   0.636288 0.194260 0.987608 0.437385
C4    C     C_R   0.342823 0.818430 0.044639 0.481987
C5    C     C_R   0.867320 0.695256 0.005584 0.443309
C6    C     C_R   0.127084 0.302635 0.001112 0.357577
C7    C     C_R   0.134272 0.695817 0.987439 0.413016
C8    C     C_R   0.838459 0.323824 0.047485 0.374791
C9    C     C_3   0.201655 0.181381 0.587664 -0.179224
C10   C     C_3   0.767002 0.768279 0.426002 -0.249571
C11   C     C_3   0.759806 0.240210 0.464402 -0.177176
C12   C     C_3   0.312321 0.748072 0.561622 -0.184409
C13   C     C_3   0.649378 0.680673 0.598955 -0.195073
C14   C     C_3   0.201514 0.253325 0.437313 -0.186409
C15   C     C_3   0.309087 0.680386 0.412898 -0.198733
C16   C     C_3   0.859862 0.183852 0.502711 -0.147688
C17   C     C_2   0.241367 0.734001 0.996389 -0.005919
C18   C     C_2   0.737934 0.298074 0.017260 0.071083
C19   C     C_2   0.784531 0.734663 0.949609 -0.018258
C20   C     C_2   0.212319 0.263075 0.054015 -0.010739
C21   C     C_2   0.742806 0.220743 0.013357 -0.172010
C22   C     C_2   0.222174 0.802421 0.046937 0.051472
C23   C     C_2   0.274270 0.228739 0.960859 -0.019120
C24   C     C_2   0.721729 0.768891 0.041926 0.006495
C25   C     C_R   0.403142 0.801117 0.211629 -0.015675
C26   C     C_R   0.660689 0.156525 0.774219 -0.030309
C27   C     C_R   0.616385 0.805250 0.781722 -0.056734
C28   C     C_R   0.343083 0.162574 0.221738 -0.100297
C29   C     C_R   0.903051 0.300156 0.210800 0.085051
C30   C     C_R   0.159336 0.659018 0.778137 -0.036052
C31   C     C_R   0.119201 0.305427 0.782236 -0.128268
C32   C     C_R   0.845084 0.665233 0.224348 -0.057156
C33   C     C_R   0.331229 0.911220 0.953616 -0.132141
C34   C     C_R   0.651584 0.102389 0.076046 -0.156438
C35   C     C_R   0.645282 0.894852 0.085496 -0.142404
C36   C     C_R   0.355146 0.105407 0.913817 -0.146617
C37   C     C_R   0.843977 0.404103 0.930268 -0.096665
C38   C     C_R   0.152546 0.606291 0.073922 -0.104486
C39   C     C_R   0.140153 0.391854 0.092205 -0.134799
C40   C     C_R   0.858065 0.607152 0.910027 -0.118932
C41   C     C_R   0.352874 0.073375 0.315832 -0.091362
C42   C     C_R   0.600753 0.894058 0.692161 -0.061604
C43   C     C_R   0.644089 0.073010 0.683970 -0.131879
C44   C     C_R   0.400155 0.893979 0.308666 -0.049929
C45   C     C_R   0.858503 0.578076 0.318018 -0.069685
C46   C     C_R   0.104970 0.393445 0.690003 -0.049069
C47   C     C_R   0.147862 0.573408 0.684681 -0.106047
C48   C     C_R   0.903694 0.393379 0.306256 -0.105005
C49   C     C_R   0.328590 0.177502 0.961400 -0.050182
C50   C     C_R   0.672005 0.823016 0.036976 -0.025741
C51   C     C_R   0.678292 0.175495 0.027139 -0.012057
C52   C     C_R   0.291058 0.847579 0.024439 -0.099712
C53   C     C_R   0.833333 0.680015 0.955804 -0.055138
C54   C     C_R   0.161842 0.317712 0.050091 -0.007264
C55   C     C_R   0.176822 0.680647 0.023872 -0.072652
C56   C     C_R   0.805105 0.340675 0.997195 -0.039286
C57   C     C_R   0.381546 0.817453 0.310479 0.069603
C58   C     C_R   0.700598 0.123001 0.672533 0.070769
C59   C     C_R   0.627677 0.820628 0.688554 0.131974
C60   C     C_R   0.299335 0.127899 0.323962 0.113635
C61   C     C_R   0.889065 0.315977 0.306344 0.071422
C62   C     C_R   0.203174 0.625104 0.677415 0.094068
C63   C     C_R   0.135047 0.320150 0.685238 0.137311
C64   C     C_R   0.807530 0.634826 0.326793 0.134168
C65   C     C_3   0.157514 0.150514 0.544497 0.601446
C66   C     C_3   0.760271 0.754338 0.526555 0.616374
C67   C     C_3   0.780697 0.153712 0.459865 0.480361
C68   C     C_3   0.272182 0.782859 0.515396 0.552103
C69   C     C_3   0.656841 0.693863 0.496803 0.620152
C70   C     C_3   0.245677 0.283261 0.479978 0.525809
C71   C     C_3   0.349503 0.645504 0.459477 0.560740
C72   C     C_3   0.840074 0.271069 0.505057 0.531650
C73   C     C_3   0.671531 0.782796 0.497611 -0.302981
C74   C     C_3   0.280344 0.201719 0.470630 -0.386948
C75   C     C_3   0.391305 0.726422 0.444235 -0.328474
C76   C     C_3   0.746345 0.250595 0.570743 -0.401595
C77   C     C_3   0.121790 0.233917 0.556046 -0.310315
C78   C     C_3   0.745162 0.666030 0.526903 -0.323613
C79   C     C_3   0.875303 0.174781 0.393584 -0.248379
C80   C     C_3   0.231509 0.703977 0.528023 -0.383457
C81   C     C_3   0.665464 0.768345 0.598673 -0.118968
C82   C     C_3   0.236067 0.170576 0.426040 -0.075897
C83   C     C_3   0.348993 0.760743 0.399323 -0.071426
C84   C     C_3   0.766464 0.162431 0.567541 -0.047125
C85   C     C_3   0.168172 0.263926 0.597363 -0.088953
C86   C     C_3   0.751772 0.680176 0.424871 -0.117169
C87   C     C_3   0.853253 0.261985 0.398569 -0.067778
C88   C     C_3   0.271702 0.667712 0.575917 -0.065482
H1    H     H_    0.438498 0.748627 0.174691 0.191810
H2    H     H_    0.694056 0.194806 0.788330 0.164672
H3    H     H_    0.630760 0.750624 0.799693 0.209464
H4    H     H_    0.317507 0.206850 0.202115 0.141307
H5    H     H_    0.908019 0.242143 0.181314 0.192188
H6    H     H_    0.189128 0.699359 0.795149 0.135797
H7    H     H_    0.129145 0.250935 0.806451 0.185921
H8    H     H_    0.816951 0.709156 0.207987 0.164578
H9    H     H_    0.311084 0.943893 0.915050 0.171722
H10   H     H_    0.666936 0.072240 0.121801 0.156339
H11   H     H_    0.654705 0.921759 0.138664 0.163535
H12   H     H_    0.345305 0.078254 0.861206 0.155461
H13   H     H_    0.831656 0.433498 0.880865 0.171320
H14   H     H_    0.170893 0.577813 0.117270 0.175771
H15   H     H_    0.149422 0.418863 0.145482 0.166653
H16   H     H_    0.849763 0.580727 0.855532 0.167682
H17   H     H_    0.340798 0.039239 0.382279 0.159130
H18   H     H_    0.593036 0.920431 0.636614 0.126536
H19   H     H_    0.651857 0.037733 0.622933 0.180569
H20   H     H_    0.406653 0.922071 0.363920 0.127633
H21   H     H_    0.849600 0.544487 0.382790 0.130069
H22   H     H_    0.097416 0.418309 0.633567 0.127596
H23   H     H_    0.159651 0.540517 0.618421 0.156497
H24   H     H_    0.909161 0.423295 0.361067 0.189769
H25   H     H_    0.640721 0.830407 0.486236 0.196209
H26   H     H_    0.346233 0.191116 0.437717 0.187200
H27   H     H_    0.457970 0.736875 0.408162 0.229644
H28   H     H_    0.693494 0.283985 0.642328 0.207091
H29   H     H_    0.055820 0.248059 0.592322 0.214183
H30   H     H_    0.774540 0.619039 0.541500 0.204924
H31   H     H_    0.929384 0.143923 0.320289 0.220793
H32   H     H_    0.165344 0.697716 0.559777 0.173921
H33   H     H_    0.305023 0.722713 0.922666 0.170252
H34   H     H_    0.682397 0.330367 0.047140 0.220495
H35   H     H_    0.799631 0.747202 0.871461 0.160720
H36   H     H_    0.201888 0.253524 0.129808 0.135712
H37   H     H_    0.796655 0.190250 0.996182 0.143370
H38   H     H_    0.157708 0.817672 0.115688 0.183094
H39   H     H_    0.285065 0.238690 0.884913 0.155008
H40   H     H_    0.705260 0.754746 0.120556 0.176308
N1    N     N_R   0.408680 0.130810 0.995780 -0.100383
N2    N     N_R   0.591320 0.869190 0.004220 -0.118754
N3    N     N_R   0.591320 0.130810 0.004220 -0.108199
N4    N     N_R   0.408680 0.869190 0.995780 -0.120398
N5    N     N_R   0.908680 0.630810 0.995780 -0.102029
N6    N     N_R   0.091320 0.369190 0.004220 -0.120661
N7    N     N_R   0.091320 0.630810 0.004220 -0.109154
N8    N     N_R   0.908680 0.369190 0.995780 -0.110208
N9    N     N_R   0.421410 0.867210 0.153620 -0.081613
N10   N     N_R   0.578590 0.132790 0.846380 -0.025153
N11   N     N_R   0.578590 0.867210 0.846380 -0.078794
N12   N     N_R   0.421410 0.132790 0.153620 -0.036046
N13   N     N_R   0.921410 0.367210 0.153620 -0.055425
N14   N     N_R   0.078590 0.632790 0.846380 -0.037474
N15   N     N_R   0.078590 0.367210 0.846380 -0.071681
N16   N     N_R   0.921410 0.632790 0.153620 -0.040743
N17   N     N_R   0.403840 0.921910 0.935760 -0.078138
N18   N     N_R   0.596160 0.078090 0.064240 -0.077425
N19   N     N_R   0.596160 0.921910 0.064240 -0.074415
N20   N     N_R   0.403840 0.078090 0.935760 -0.078002
N21   N     N_R   0.903840 0.421910 0.935760 -0.073864
N22   N     N_R   0.096160 0.578090 0.064240 -0.082550
N23   N     N_R   0.096160 0.421910 0.064240 -0.079049
N24   N     N_R   0.903840 0.578090 0.935760 -0.080273
N25   N     N_R   0.426250 0.076100 0.213650 -0.063981
N26   N     N_R   0.573750 0.923900 0.786350 -0.058059
N27   N     N_R   0.573750 0.076100 0.786350 -0.062020
N28   N     N_R   0.426250 0.923900 0.213650 -0.063514
N29   N     N_R   0.926250 0.576100 0.213650 -0.059317
N30   N     N_R   0.073750 0.423900 0.786350 -0.059997
N31   N     N_R   0.073750 0.576100 0.786350 -0.067549
N32   N     N_R   0.926250 0.423900 0.213650 -0.053465
Ni1   Ni    Ni4+2 0.500000 0.131570 0.000000 0.369470
Ni2   Ni    Ni4+2 0.500000 0.868430 0.000000 0.263737
Ni3   Ni    Ni4+2 1.000000 0.631570 0.000000 0.371865
Ni4   Ni    Ni4+2 0.000000 0.368430 0.000000 0.259310
Ni5   Ni    Ni4+2 0.488900 0.000000 0.862310 0.215431
Ni6   Ni    Ni4+2 0.511100 1.000000 0.137690 0.210668
Ni7   Ni    Ni4+2 0.988900 0.500000 0.862310 0.227001
Ni8   Ni    Ni4+2 0.011100 0.500000 0.137690 0.241232
S1    S     S_3+6 0.392855 0.292561 0.013781 -0.017723
O1    O     O_2   0.317924 0.345745 0.072959 -0.328313
O2    O     O_2   0.429032 0.294889 0.071389 -0.223312
O3    O     O_3   0.463897 0.327150 0.885127 -0.490861
H41   H     H_    0.472686 0.382821 0.893060 0.394546
S2    S     S_3+6 0.616253 0.706572 0.975696 -0.036013
O4    O     O_2   0.694721 0.674299 0.871721 -0.262748
O5    O     O_2   0.595923 0.658526 0.069992 -0.228199
O6    O     O_3   0.537281 0.694349 0.972140 -0.447915
H42   H     H_    0.513814 0.747035 0.983192 0.323469
S3    S     S_3+6 0.623080 0.289608 0.951247 -0.045094
O7    O     O_2   0.707485 0.329400 0.871463 -0.303171
O8    O     O_2   0.583029 0.286116 0.898830 -0.251076
O9    O     O_3   0.560918 0.344026 0.064560 -0.489582
H43   H     H_    0.562799 0.397356 0.037752 0.415790
S4    S     S_3+6 0.338655 0.715017 0.076132 -0.067922
O10   O     O_2   0.379192 0.687948 0.121450 -0.287590
O11   O     O_2   0.247686 0.689981 0.158199 -0.318115
O12   O     O_3   0.385777 0.663927 0.960632 -0.546556
H44   H     H_    0.360740 0.610613 0.984958 0.385065
S5    S     S_3+6 0.887740 0.791876 0.025742 -0.034605
O13   O     O_2   0.807857 0.836800 0.105156 -0.332016
O14   O     O_2   0.933453 0.788889 0.070421 -0.259106
O15   O     O_3   0.946514 0.839952 0.904989 -0.475807
H45   H     H_    0.955999 0.892756 0.921050 0.416646
S6    S     S_3+6 0.094813 0.205409 0.999778 -0.058032
O16   O     O_2   0.171091 0.161358 0.908634 -0.296469
O17   O     O_2   0.061542 0.165704 0.105599 -0.276879
O18   O     O_3   0.020641 0.196593 0.985182 -0.500464
H46   H     H_    0.996665 0.248915 0.996278 0.297436
S7    S     S_3+6 0.117727 0.793133 0.960190 -0.021631
O19   O     O_2   0.199322 0.838316 0.892422 -0.332969
O20   O     O_2   0.083462 0.794531 0.900116 -0.201869
O21   O     O_3   0.051155 0.839304 0.079987 -0.506598
H47   H     H_    0.053299 0.895021 0.060104 0.404715
S8    S     S_3+6 0.760993 0.306308 0.191831 -0.051500
O22   O     O_2   0.761841 0.371512 0.254110 -0.273183
O23   O     O_2   0.673080 0.304409 0.228277 -0.252676
O24   O     O_3   0.776291 0.218751 0.225497 -0.523085
H48   H     H_    0.769510 0.180277 0.185057 0.369577
S9    S     S_3+6 0.087308 0.068607 0.598548 0.015337
O25   O     O_2   0.099825 0.025118 0.507188 -0.240241
O26   O     O_2   0.103379 0.015544 0.659486 -0.179669
O27   O     O_3   0.987374 0.100531 0.686770 -0.552621
H49   H     H_    0.952067 0.052362 0.716765 0.380882
S10   S     S_3+6 0.831658 0.794467 0.543733 -0.014582
O28   O     O_2   0.920480 0.773726 0.446856 -0.258660
O29   O     O_2   0.822761 0.882090 0.552163 -0.272775
O30   O     O_3   0.809495 0.757102 0.658100 -0.514777
H50   H     H_    0.845271 0.787362 0.668224 0.377128
S11   S     S_3+6 0.756611 0.075674 0.408140 -0.011003
O31   O     O_2   0.813747 0.082626 0.285720 -0.199996
O32   O     O_2   0.772740 0.998382 0.437942 -0.289549
O33   O     O_3   0.655654 0.079138 0.458154 -0.501291
H51   H     H_    0.627320 0.117170 0.518550 0.306313
S12   S     S_3+6 0.212600 0.870308 0.561739 0.020975
O34   O     O_2   0.261300 0.934990 0.563727 -0.292003
O35   O     O_2   0.194738 0.892697 0.486196 -0.237487
O36   O     O_3   0.121449 0.855035 0.688804 -0.403043
H52   H     H_    0.089128 0.817758 0.680073 0.356395
S13   S     S_3+6 0.590118 0.654371 0.472413 -0.020128
O37   O     O_2   0.615495 0.688986 0.367582 -0.283996
O38   O     O_2   0.599674 0.566834 0.463077 -0.253221
O39   O     O_3   0.489416 0.677359 0.576621 -0.552930
H53   H     H_    0.455353 0.648307 0.562637 0.389932
S14   S     S_3+6 0.313620 0.365513 0.427543 0.036255
O40   O     O_2   0.262636 0.439055 0.462330 -0.291672
O41   O     O_2   0.360847 0.363718 0.470940 -0.208032
O42   O     O_3   0.382226 0.361730 0.290313 -0.406884
H54   H     H_    0.408766 0.309527 0.273670 0.359424
S15   S     S_3+6 0.413585 0.560805 0.415983 0.049811
O43   O     O_2   0.379016 0.509201 0.513739 -0.228892
O44   O     O_2   0.414761 0.518315 0.332495 -0.168946
O45   O     O_3   0.513001 0.587196 0.357871 -0.467148
H55   H     H_    0.544893 0.537497 0.333390 0.414920
S16   S     S_3+6 0.877590 0.345805 0.543294 -0.031043
O46   O     O_2   0.865737 0.319700 0.643227 -0.250276
O47   O     O_2   0.969962 0.360113 0.451468 -0.297293
O48   O     O_3   0.824061 0.429227 0.570431 -0.519898
H56   H     H_    0.764823 0.416279 0.634043 0.365191
C89   C     C_1   0.209257 0.136610 0.660452 0.300555
N33   N     N_1   0.215963 0.099965 0.716355 0.040147
C90   C     C_1   0.829052 0.821864 0.336445 0.413288
N34   N     N_1   0.877252 0.865287 0.267228 0.065585
C91   C     C_1   0.695226 0.271120 0.460042 0.342156
N35   N     N_1   0.642541 0.294997 0.459769 0.037635
C92   C     C_1   0.326463 0.786534 0.631112 0.286075
N36   N     N_1   0.340325 0.817005 0.683193 -0.009548
C93   C     C_1   0.585499 0.631748 0.693854 0.313638
N37   N     N_1   0.535627 0.592455 0.768193 -0.000797
C94   C     C_1   0.193672 0.296062 0.363379 0.259455
N38   N     N_1   0.186499 0.330120 0.306199 -0.010662
C95   C     C_1   0.295218 0.634261 0.347902 0.381066
N39   N     N_1   0.282248 0.595579 0.300285 0.053266
C96   C     C_1   0.916742 0.150658 0.519352 0.267673
N40   N     N_1   0.962296 0.124337 0.531385 0.008658

loop_
_geom_bond_atom_site_label_1
_geom_bond_atom_site_label_2
_ccdc_geom_bond_type
N10   N27   A    
C68   C80   S    
C78   C86   S    
C29   H5    S    
C80   H32   S    
C39   N23   A    
N25   Ni6   S    
C8    N8    A    
C18   C21   D    
C14   C70   S    
S1    O1    D    
C72   S16   S    
C9    C89   S    
S15   O43   D    
N21   Ni7   S    
C7    C55   A    
N14   N31   A    
C72   C76   S    
C75   C83   S    
S12   O34   D    
C76   C84   S    
C47   C62   A    
C79   C87   S    
N8    N21   A    
C65   C82   S    
C90   N34   T    
C4    N4    A    
C47   N31   A    
S16   O46   D    
C33   C52   A    
C5    N5    A    
C12   C68   S    
O27   H49   S    
C19   H35   S    
C89   N33   T    
C41   H17   S    
C4    C52   A    
C3    N3    A    
N4    N17   A    
C16   C72   S    
C5    C53   A    
C42   N26   A    
C74   C82   S    
C93   N37   T    
S13   O39   S    
C77   H29   S    
C14   C94   S    
C30   C62   A    
N9    Ni2   S    
C10   C73   S    
C45   H21   S    
C23   C49   S    
C39   C54   A    
C40   H16   S    
N3    Ni1   S    
N23   Ni8   S    
C74   H26   S    
C13   C81   S    
C16   C84   S    
S9    O27   S    
C73   H25   S    
S4    O10   D    
C40   N24   A    
N3    N18   A    
C10   C90   S    
C70   S14   S    
C14   C77   S    
C64   C86   S    
S5    O14   D    
C3    S3    S    
S2    O4    D    
N1    N20   A    
C13   C93   S    
C61   C87   S    
C43   C58   A    
C9    C85   S    
O9    H43   S    
C16   C96   S    
C60   C82   S    
C36   N20   A    
C38   C55   A    
O36   H52   S    
N31   Ni7   S    
C28   N12   A    
C70   C74   S    
S7    O21   S    
C20   C23   D    
N26   Ni5   S    
C27   H3    S    
C91   N35   T    
N10   Ni1   S    
C2    C50   A    
C17   C55   S    
C65   S9    S    
C18   C56   S    
N12   N25   A    
C21   C51   S    
S3    O9    S    
N2    Ni2   S    
C10   C66   S    
S6    O16   D    
N18   Ni6   S    
N22   Ni8   S    
C67   C84   S    
C37   C56   A    
C12   C92   S    
O42   H54   S    
C63   C85   S    
C31   N15   A    
N20   Ni5   S    
S1    O2    D    
C8    C56   A    
C68   S12   S    
N5    N24   A    
S14   O41   D    
C6    C54   A    
C43   N27   A    
N5    Ni3   S    
N29   Ni8   S    
C73   C81   S    
C6    S6    S    
C11   C67   S    
N30   Ni7   S    
O45   H55   S    
C35   C50   A    
C41   N25   A    
C44   H20   S    
C24   C50   S    
C66   C78   S    
C29   C61   A    
C71   C75   S    
C65   C77   S    
O21   H47   S    
C12   C88   S    
O24   H48   S    
C25   C57   A    
C31   C63   A    
C8    S8    S    
C67   C79   S    
C32   C64   A    
C20   C54   S    
C11   C87   S    
S11   O31   D    
C28   H4    S    
C3    C51   A    
S10   O28   D    
C30   H6    S    
C35   N19   A    
C25   H1    S    
C1    S1    S    
N11   N26   A    
C22   C52   S    
N12   Ni1   S    
C62   C88   S    
O18   H46   S    
C27   N11   A    
C71   C88   S    
N9    N28   A    
C79   H31   S    
S14   O42   S    
C44   N28   A    
C66   S10   S    
S5    O15   S    
C25   N9    A    
C47   H23   S    
C7    N7    A    
S13   O37   D    
C15   C95   S    
N19   Ni6   S    
C69   S13   S    
S11   O32   D    
C26   C58   A    
C48   N32   A    
C6    N6    A    
N13   N32   A    
S4    O11   D    
C15   C80   S    
S8    O24   S    
N28   Ni6   S    
C44   C57   A    
C29   N13   A    
C11   C91   S    
C9    C65   S    
C57   C83   S    
S9    O25   D    
C34   C51   A    
N1    Ni1   S    
S15   O44   D    
C43   H19   S    
C4    S4    S    
C69   C73   S    
C58   C84   S    
C35   H11   S    
S2    O6    S    
S7    O20   D    
C28   C60   A    
C33   N17   A    
C18   H34   S    
N17   Ni5   S    
C17   H33   S    
S6    O18   S    
C48   H24   S    
S8    O23   D    
O6    H42   S    
C46   H22   S    
N16   Ni3   S    
S13   O38   D    
S1    O3    S    
C45   N29   A    
C75   H27   S    
S14   O40   D    
C14   C82   S    
C21   H37   S    
C92   N36   T    
S12   O36   S    
S6    O17   D    
N15   Ni4   S    
C2    N2    A    
C72   C87   S    
O3    H41   S    
C76   H28   S    
N15   N30   A    
C23   H39   S    
N8    Ni4   S    
S5    O13   D    
S16   O47   D    
C13   C78   S    
C10   C86   S    
C78   H30   S    
N2    N19   A    
C68   C83   S    
N7    Ni3   S    
N11   Ni2   S    
C59   C81   S    
C41   C60   A    
C37   N21   A    
C26   N10   A    
S10   O30   S    
S12   O35   D    
C42   C59   A    
C15   C83   S    
O48   H56   S    
C36   H12   S    
C39   H15   S    
C32   H8    S    
N7    N22   A    
C15   C71   S    
C45   C64   A    
C1    N1    A    
C17   C22   D    
C30   N14   A    
S4    O12   S    
C46   C63   A    
C11   C76   S    
C16   C79   S    
O15   H45   S    
C34   H10   S    
C96   N40   T    
C19   C24   D    
O30   H50   S    
C5    S5    S    
O12   H44   S    
C38   H14   S    
S16   O48   S    
C27   C59   A    
C2    S2    S    
C66   C81   S    
C37   H13   S    
C34   N18   A    
C19   C53   S    
C48   C61   A    
C95   N39   T    
C13   C69   S    
N27   Ni5   S    
C31   H7    S    
N6    N23   A    
C67   S11   S    
O39   H53   S    
S9    O26   D    
S2    O5    D    
N6    Ni4   S    
S15   O45   S    
S10   O29   D    
N32   Ni8   S    
C7    S7    S    
O33   H51   S    
N4    Ni2   S    
C20   H36   S    
C22   H38   S    
C12   C75   S    
C32   N16   A    
C77   C85   S    
S3    O7    D    
C42   H18   S    
C69   C86   S    
S7    O19   D    
S8    O22   D    
N13   Ni4   S    
C80   C88   S    
C40   C53   A    
C9    C74   S    
N14   Ni3   S    
C24   H40   S    
N24   Ni7   S    
C26   H2    S    
C33   H9    S    
S3    O8    D    
N16   N29   A    
C70   C85   S    
C1    C49   A    
C38   N22   A    
C36   C49   A    
C94   N38   T    
C71   S15   S    
S11   O33   S    
C46   N30   A    
