data_mof_unit_38641.cif
_audit_creation_date              2012-10-26T20:33:41-0400
_audit_creation_method            fapswitch 2.2
_symmetry_space_group_name_H-M    P1
_symmetry_Int_Tables_number       1
_space_group_crystal_system       triclinic
_cell_length_a                    10.940001
_cell_length_b                    9.061154
_cell_length_c                    8.002661
_cell_angle_alpha                 90.000015
_cell_angle_beta                  91.130683
_cell_angle_gamma                 89.999824
_cell_volume                      793.141588787

loop_
_atom_site_label
_atom_site_type_symbol
_atom_type_description
_atom_site_fract_x
_atom_site_fract_y
_atom_site_fract_z
_atom_type_partial_charge
C1    C     C_R   0.500000 0.220956 0.500000 0.526983
C2    C     C_1   0.500000 0.934397 0.500000 -0.064379
C3    C     C_3   0.066644 0.626578 0.472096 -0.262031
C4    C     C_3   0.933357 0.626578 0.527917 -0.262031
C5    C     C_3   0.122561 0.466648 0.495300 0.069727
C6    C     C_3   0.877439 0.466649 0.504702 0.069731
C7    C     C_3   0.115723 0.521216 0.809567 -0.356228
C8    C     C_3   0.132747 0.416647 0.173908 -0.368687
C9    C     C_3   0.867255 0.416647 0.826096 -0.368684
C10   C     C_3   0.884284 0.521243 0.190439 -0.356228
C11   C     C_3   0.144439 0.256888 0.731910 -0.382104
C12   C     C_R   0.260870 0.485049 0.498188 0.534803
C13   C     C_3   0.113452 0.205710 0.344145 -0.384199
C14   C     C_3   0.886537 0.205709 0.655866 -0.384200
C15   C     C_3   0.855558 0.256910 0.268064 -0.382093
C16   C     C_R   0.739130 0.485049 0.501813 0.534816
C17   C     C_R   0.500000 0.779058 0.500000 0.552944
C18   C     C_1   0.500000 0.065673 0.500000 -0.070663
C19   C     C_3   0.076437 0.401140 0.672573 0.068168
C20   C     C_3   0.071196 0.372047 0.339057 0.054167
C21   C     C_3   0.928801 0.372042 0.660944 0.054172
C22   C     C_3   0.923562 0.401153 0.327423 0.068170
Cu1   Cu    Cu3+1 0.500000 0.500010 0.669080 0.958141
Cu2   Cu    Cu3+1 0.500000 0.500010 0.330920 0.958142
H1    H     H_    0.118716 0.716301 0.535130 0.099606
H2    H     H_    0.146083 0.536357 0.156083 0.131524
H3    H     H_    0.776363 0.365006 0.846754 0.164863
H4    H     H_    0.921632 0.368229 0.927191 0.112053
H5    H     H_    0.853923 0.536357 0.843920 0.131517
H6    H     H_    0.805226 0.484151 0.113547 0.151957
H7    H     H_    0.847760 0.626075 0.235724 0.136726
H8    H     H_    0.954429 0.563974 0.110997 0.088237
H9    H     H_    0.132645 0.159183 0.653687 0.109189
H10   H     H_    0.244493 0.271442 0.746583 0.164716
H11   H     H_    0.110719 0.222469 0.855489 0.109104
H12   H     H_    0.068638 0.665689 0.341841 0.120942
H13   H     H_    0.210166 0.197182 0.388326 0.130470
H14   H     H_    0.060276 0.127158 0.411874 0.107573
H15   H     H_    0.109433 0.152877 0.218338 0.112241
H16   H     H_    0.939678 0.127149 0.588098 0.107548
H17   H     H_    0.890592 0.152873 0.781670 0.112252
H18   H     H_    0.789810 0.197193 0.611736 0.130478
H19   H     H_    0.867276 0.159226 0.346336 0.109186
H20   H     H_    0.755513 0.271494 0.253274 0.164716
H21   H     H_    0.889342 0.222445 0.144534 0.109104
H22   H     H_    0.931365 0.665685 0.658173 0.120941
H23   H     H_    0.881285 0.716305 0.464889 0.099604
H24   H     H_    0.194784 0.484111 0.886447 0.151975
H25   H     H_    0.152243 0.626053 0.764290 0.136731
H26   H     H_    0.045584 0.563941 0.889020 0.088235
H27   H     H_    0.223637 0.364999 0.153257 0.164868
H28   H     H_    0.078370 0.368231 0.072816 0.112045
N1    N     N_1   0.500000 0.499970 0.076820 -0.107633
N2    N     N_1   0.500000 0.499970 0.923180 -0.107631
O1    O     O_R   0.500000 0.288400 0.642760 -0.507465
O2    O     O_R   0.500000 0.288400 0.357240 -0.507458
O3    O     O_R   0.317700 0.499990 0.642790 -0.522776
O4    O     O_R   0.317700 0.499990 0.357210 -0.516644
O5    O     O_R   0.682300 0.499990 0.642790 -0.516647
O6    O     O_R   0.682300 0.499990 0.357210 -0.522772
O7    O     O_R   0.500000 0.711620 0.642810 -0.488906
O8    O     O_R   0.500000 0.711620 0.357190 -0.488906

loop_
_geom_bond_atom_site_label_1
_geom_bond_atom_site_label_2
_ccdc_geom_bond_type
Cu1   Cu2   S    
Cu1   O1    S    
C5    C19   S    
C17   O8    A    
C2    C18   T    
C8    H2    S    
C10   H6    S    
C13   H13   S    
C9    H5    S    
C14   H18   S    
C12   O4    A    
C7    H24   S    
C11   H11   S    
C1    O1    A    
C7    H25   S    
C15   H19   S    
C5    C20   S    
C4    H22   S    
N1    N2    T    
C10   C22   S    
C2    C17   S    
Cu1   O5    S    
C8    H27   S    
C9    C21   S    
C13   H14   S    
C8    C20   S    
C3    H12   S    
C5    C12   S    
C14   H17   S    
C12   O3    A    
C14   C21   S    
C4    C6    S    
C19   C21   S    
C1    O2    A    
C20   C22   S    
C15   H20   S    
C7    C19   S    
C11   H10   S    
C13   H15   S    
Cu2   O2    S    
C15   H21   S    
C14   H16   S    
C3    C4    S    
C6    C22   S    
C10   H8    S    
C8    H28   S    
C11   H9    S    
C3    H1    S    
C9    H4    S    
C9    H3    S    
Cu1   N2    S    
Cu2   O4    S    
C16   O6    A    
Cu1   O7    S    
Cu1   O3    S    
C1    C18   S    
C11   C19   S    
Cu2   O8    S    
Cu2   O6    S    
C13   C20   S    
C17   O7    A    
Cu2   N1    S    
C6    C21   S    
C6    C16   S    
C10   H7    S    
C16   O5    A    
C15   C22   S    
C7    H26   S    
C3    C5    S    
C4    H23   S    
