data_mof_unit_30421.cif
_audit_creation_date              2012-12-10T20:46:35-0500
_audit_creation_method            fapswitch 2.2
_symmetry_space_group_name_H-M    P1
_symmetry_Int_Tables_number       1
_space_group_crystal_system       triclinic
_cell_length_a                    10.669265
_cell_length_b                    8.934961
_cell_length_c                    8.100266
_cell_angle_alpha                 90.000171
_cell_angle_beta                  101.933499
_cell_angle_gamma                 90.0
_cell_volume                      755.50557853

loop_
_atom_site_label
_atom_site_type_symbol
_atom_type_description
_atom_site_fract_x
_atom_site_fract_y
_atom_site_fract_z
_atom_type_partial_charge
C1    C     C_R   0.500000 0.217947 0.500000 0.917330
C2    C     C_1   0.499999 0.934850 0.500000 -0.064765
C3    C     C_R   0.500000 0.782057 0.500000 0.996173
C4    C     C_R   0.258312 0.510379 0.433826 0.963655
C5    C     C_R   0.741688 0.510379 0.566174 0.963660
C6    C     C_2   0.122044 0.538074 0.403925 -0.445492
C7    C     C_2   0.877956 0.538072 0.596075 -0.445491
C8    C     C_2   0.068647 0.617964 0.513012 0.390541
C9    C     C_2   0.931352 0.617964 0.486990 0.390542
C10   C     C_1   0.499999 0.065187 0.500000 -0.130731
H1    H     H_    0.937862 0.486637 0.706484 0.165694
H2    H     H_    0.062138 0.486643 0.293512 0.165694
H3    H     H_    0.903017 0.895455 0.151001 0.388833
H4    H     H_    0.096971 0.895387 0.849070 0.388836
N1    N     N_1   0.500020 0.500000 0.073650 0.030783
N2    N     N_1   0.499980 0.500000 0.926350 0.030785
O1    O     O_R   0.499990 0.285340 0.636850 -0.621578
O2    O     O_2   0.750049 0.823613 0.374379 -0.307433
O3    O     O_3   0.954169 0.841095 0.248681 -0.522760
O4    O     O_2   0.214471 0.629859 0.826673 -0.298937
O5    O     O_2   0.249958 0.823602 0.625647 -0.307408
O6    O     O_3   0.045832 0.841086 0.751332 -0.522744
O7    O     O_R   0.500010 0.714660 0.363150 -0.589437
O8    O     O_R   0.500010 0.285340 0.363150 -0.621579
O9    O     O_R   0.499990 0.714660 0.636850 -0.589434
O10   O     O_R   0.317810 0.500000 0.585760 -0.565115
O11   O     O_R   0.682190 0.500000 0.414240 -0.565121
O12   O     O_R   0.317820 0.500000 0.312020 -0.606859
O13   O     O_R   0.682180 0.500000 0.687980 -0.606859
O14   O     O_2   0.785520 0.629879 0.173334 -0.298912
S1    S     S_3+6 0.848801 0.728738 0.316631 0.062166
S2    S     S_3+6 0.151199 0.728728 0.683380 0.062167
Zn1   Zn    Zn3+2 0.499990 0.500000 0.682780 1.096902
Zn2   Zn    Zn3+2 0.500010 0.500000 0.317220 1.096898

loop_
_geom_bond_atom_site_label_1
_geom_bond_atom_site_label_2
_ccdc_geom_bond_type
C4    O10   A    
N2    Zn1   S    
C5    C7    S    
O6    S2    S    
N1    Zn2   S    
C3    O7    A    
O7    Zn2   S    
O3    S1    S    
H4    O6    S    
C2    C3    S    
O12   Zn2   S    
C7    H1    S    
O1    Zn1   S    
C4    O12   A    
C5    O13   A    
O11   Zn2   S    
C6    H2    S    
O14   S1    D    
O5    S2    D    
C9    S1    S    
N1    N2    T    
C2    C10   T    
O13   Zn1   S    
C3    O9    A    
C1    O8    A    
C4    C6    S    
O4    S2    D    
C7    C9    D    
H3    O3    S    
C6    C8    D    
O2    S1    D    
O10   Zn1   S    
C5    O11   A    
C1    O1    A    
O8    Zn2   S    
C1    C10   S    
O9    Zn1   S    
C8    C9    S    
C8    S2    S    
