data_mof_unit_39467.cif
_audit_creation_date              2012-10-26T19:40:42-0400
_audit_creation_method            fapswitch 2.2
_symmetry_space_group_name_H-M    P1
_symmetry_Int_Tables_number       1
_space_group_crystal_system       triclinic
_cell_length_a                    9.781277
_cell_length_b                    10.929604
_cell_length_c                    13.500592
_cell_angle_alpha                 90.779532
_cell_angle_beta                  73.616788
_cell_angle_gamma                 90.152798
_cell_volume                      1384.55585441

loop_
_atom_site_label
_atom_site_type_symbol
_atom_type_description
_atom_site_fract_x
_atom_site_fract_y
_atom_site_fract_z
_atom_type_partial_charge
C1    C     C_R   0.501412 0.734592 0.495183 0.547517
C2    C     C_R   0.382711 0.522202 0.814208 -0.027472
C3    C     C_2   0.611622 0.067023 0.498323 -0.137075
C4    C     C_R   0.424767 0.507397 0.699722 0.538207
C5    C     C_2   0.493406 0.134504 0.513187 -0.086275
C6    C     C_2   0.603240 0.933901 0.508305 -0.130410
C7    C     C_2   0.505337 0.867093 0.479211 0.259143
C8    C     C_2   0.059692 0.586806 0.539314 0.318178
C9    C     C_2   0.920910 0.596983 0.511352 0.428845
C10   C     C_R   0.498825 0.265852 0.502854 0.537868
C11   C     C_R   0.575463 0.499248 0.301074 0.556025
C12   C     C_R   0.440339 0.542287 0.979635 -0.032884
C13   C     C_R   0.780300 0.442374 0.023501 0.258466
C14   C     C_R   0.615388 0.496544 0.188692 -0.023210
C15   C     C_R   0.241167 0.494479 0.870459 0.288672
C16   C     C_R   0.195661 0.514918 0.976879 -0.101056
C17   C     C_R   0.293820 0.536484 0.031574 -0.164059
C18   C     C_3   0.281769 0.900964 0.455948 -0.103478
C19   C     C_3   0.875958 0.402722 0.742055 -0.036376
C20   C     C_3   0.180120 0.310398 0.817164 -0.064229
C21   C     C_3   0.616437 0.761575 0.757523 -0.068289
C22   C     C_R   0.483121 0.549982 0.870538 -0.085890
C23   C     C_R   0.546625 0.527428 0.031551 -0.062723
C24   C     C_R   0.686800 0.494954 0.973232 0.049545
C25   C     C_R   0.728583 0.518313 0.866744 0.309704
C26   C     C_R   0.629873 0.571463 0.823060 0.265851
C27   C     C_R   0.515833 0.534263 0.138969 -0.130325
C28   C     C_R   0.745227 0.446814 0.131571 -0.142584
Cu1   Cu    Cu3+1 0.361370 0.499980 0.499980 0.944429
Cu2   Cu    Cu3+1 0.638630 0.500020 0.500020 1.008336
H1    H     H_    0.817769 0.409237 0.170924 0.107905
H2    H     H_    0.245084 0.895268 0.541809 0.127019
H3    H     H_    0.249250 0.818401 0.419487 0.173850
H4    H     H_    0.226064 0.980049 0.434142 0.121479
H5    H     H_    0.161306 0.647881 0.633736 0.386437
H6    H     H_    0.939825 0.773809 0.506627 0.314555
H7    H     H_    0.985592 0.395332 0.689739 0.155996
H8    H     H_    0.802468 0.411276 0.693074 0.112640
H9    H     H_    0.851830 0.316748 0.786811 0.116412
H10   H     H_    0.939652 0.333141 0.014498 0.298741
H11   H     H_    0.173218 0.271607 0.894282 0.100466
H12   H     H_    0.388589 0.093214 0.536223 0.127451
H13   H     H_    0.286887 0.290611 0.763189 0.090095
H14   H     H_    0.100801 0.261672 0.786704 0.133881
H15   H     H_    0.509586 0.759909 0.743933 0.097659
H16   H     H_    0.608495 0.796483 0.836962 0.098427
H17   H     H_    0.683751 0.827388 0.703409 0.144267
H18   H     H_    0.679132 0.891014 0.541775 0.130007
H19   H     H_    0.127239 0.441763 0.449284 0.166093
H20   H     H_    0.888878 0.417651 0.510606 0.129541
H21   H     H_    0.415604 0.571379 0.185138 0.139422
H22   H     H_    0.253055 0.535978 0.114582 0.114478
H23   H     H_    0.085384 0.502292 0.019271 0.158512
H24   H     H_    0.715765 0.109707 0.483304 0.134189
N1    N     N_2   0.152660 0.501340 0.501130 -0.387176
N2    N     N_2   0.846520 0.501370 0.501160 -0.318809
O1    O     O_R   0.382960 0.678040 0.499980 -0.516687
O2    O     O_3   0.085810 0.676589 0.604476 -0.692128
O3    O     O_3   0.867213 0.711626 0.503462 -0.647518
O4    O     O_3   0.868587 0.505038 0.808395 -0.443507
O5    O     O_3   0.898850 0.379444 0.966849 -0.664279
O6    O     O_3   0.149231 0.437302 0.823674 -0.472228
O7    O     O_3   0.681233 0.645120 0.737795 -0.486875
O8    O     O_R   0.617100 0.678080 0.500020 -0.431060
O9    O     O_R   0.325800 0.499940 0.650950 -0.479638
O10   O     O_R   0.559930 0.499980 0.650990 -0.462936
O11   O     O_R   0.382900 0.321920 0.499980 -0.502875
O12   O     O_R   0.617040 0.321960 0.500020 -0.519929
O13   O     O_R   0.440070 0.500020 0.349010 -0.506494
O14   O     O_R   0.674200 0.500060 0.349050 -0.490740
O15   O     O_3   0.430161 0.919693 0.416705 -0.571093

loop_
_geom_bond_atom_site_label_1
_geom_bond_atom_site_label_2
_ccdc_geom_bond_type
C12   C17   A    
C2    C22   A    
C2    C4    S    
C5    H12   S    
C11   O13   A    
C13   C28   A    
C6    C7    D    
C19   H8    S    
Cu2   O8    S    
C19   O4    S    
C19   H7    S    
Cu1   O13   S    
C26   O7    S    
C3    C6    S    
C14   C28   A    
C10   O12   A    
H6    O3    S    
C20   H11   S    
C8    C9    S    
C11   O14   A    
C5    C10   S    
C9    N2    D    
Cu2   O10   S    
C10   O11   A    
C4    O10   A    
C2    C15   A    
C18   H4    S    
C12   C23   A    
Cu1   Cu2   S    
C6    H18   S    
H5    O2    S    
Cu1   O9    S    
C19   H9    S    
C8    N1    D    
Cu2   O14   S    
C15   O6    S    
Cu1   O1    S    
C20   H14   S    
C21   H15   S    
C23   C27   A    
C1    C7    S    
C7    O15   S    
C4    O9    A    
C14   C27   A    
C3    H24   S    
C21   H17   S    
C21   O7    S    
C18   H2    S    
C18   H3    S    
C23   C24   A    
C15   C16   A    
C3    C5    D    
C1    O8    A    
C12   C22   A    
C18   O15   S    
C20   H13   S    
C13   O5    S    
C24   C25   A    
C17   H22   S    
H20   N2    S    
C21   H16   S    
C22   C26   A    
C25   O4    S    
C11   C14   S    
C16   H23   S    
C16   C17   A    
Cu1   N1    S    
C8    O2    S    
C25   C26   A    
Cu1   O11   S    
Cu2   N2    S    
C28   H1    S    
Cu2   O12   S    
H10   O5    S    
C13   C24   A    
C27   H21   S    
C20   O6    S    
C9    O3    S    
H19   N1    S    
C1    O1    A    
