data_mof_unit_49942.cif
_audit_creation_date              2012-10-26T18:09:27-0400
_audit_creation_method            fapswitch 2.2
_symmetry_space_group_name_H-M    P1
_symmetry_Int_Tables_number       1
_space_group_crystal_system       tetragonal
_cell_length_a                    21.788247
_cell_length_b                    21.788247
_cell_length_c                    21.788248
_cell_angle_alpha                 90.0
_cell_angle_beta                  90.0
_cell_angle_gamma                 90.0
_cell_volume                      10343.4850198

loop_
_atom_site_label
_atom_site_type_symbol
_atom_type_description
_atom_site_fract_x
_atom_site_fract_y
_atom_site_fract_z
_atom_type_partial_charge
C1    C     C_R   0.500000 0.118842 0.000000 0.523585
C2    C     C_R   0.500000 0.000000 0.881158 0.523585
C3    C     C_R   0.283106 0.361961 0.097610 0.031402
C4    C     C_R   0.902390 0.638039 0.716894 0.031402
C5    C     C_R   0.716894 0.638039 0.097609 0.031401
C6    C     C_R   0.097608 0.638040 0.283106 0.031402
C7    C     C_R   0.283106 0.638040 0.902391 0.031401
C8    C     C_R   0.638039 0.716894 0.902390 0.031402
C9    C     C_R   0.638040 0.097607 0.716894 0.031402
C10   C     C_R   0.638040 0.283106 0.097608 0.031401
C11   C     C_R   0.638039 0.902391 0.283106 0.031402
C12   C     C_R   0.361961 0.283106 0.902391 0.031401
C13   C     C_R   1.000000 0.500000 0.118842 0.523585
C14   C     C_R   0.361960 0.902392 0.716894 0.031402
C15   C     C_R   0.361960 0.716894 0.097609 0.031401
C16   C     C_R   0.361961 0.097610 0.283106 0.031402
C17   C     C_R   0.283106 0.097608 0.638040 0.031402
C18   C     C_R   0.902391 0.283106 0.638040 0.031402
C19   C     C_R   0.716894 0.902391 0.638039 0.031402
C20   C     C_R   0.097608 0.716894 0.638040 0.031401
C21   C     C_R   0.716894 0.097609 0.361960 0.031402
C22   C     C_R   0.097609 0.283106 0.361961 0.031402
C23   C     C_R   0.283106 0.902392 0.361960 0.031401
C24   C     C_R   0.500000 0.000000 0.118842 0.523585
C25   C     C_R   0.902392 0.716894 0.361960 0.031402
C26   C     C_R   0.453809 0.967591 0.717098 -0.014580
C27   C     C_R   0.282902 0.967591 0.453809 -0.014580
C28   C     C_R   0.546191 0.967591 0.282902 -0.014580
C29   C     C_R   0.717098 0.967591 0.546191 -0.014580
C30   C     C_R   0.453809 0.032409 0.282902 -0.014580
C31   C     C_R   0.282902 0.032409 0.546191 -0.014580
C32   C     C_R   0.546191 0.032409 0.717098 -0.014580
C33   C     C_R   0.717098 0.032409 0.453809 -0.014580
C34   C     C_R   0.032409 0.282902 0.453809 -0.014580
C35   C     C_R   0.000000 0.618466 0.500000 0.514364
C36   C     C_R   0.032409 0.546191 0.282902 -0.014580
C37   C     C_R   0.032409 0.717098 0.546191 -0.014580
C38   C     C_R   0.032409 0.453809 0.717098 -0.014580
C39   C     C_R   0.967591 0.717098 0.453809 -0.014580
C40   C     C_R   0.967591 0.453809 0.282902 -0.014580
C41   C     C_R   0.967591 0.282902 0.546191 -0.014580
C42   C     C_R   0.967591 0.546191 0.717098 -0.014580
C43   C     C_R   0.717098 0.546191 0.032409 -0.014580
C44   C     C_R   0.453809 0.717098 0.032409 -0.014580
C45   C     C_R   0.282902 0.453809 0.032409 -0.014580
C46   C     C_R   0.500000 0.618466 0.000000 0.514364
C47   C     C_R   0.546191 0.282902 0.032409 -0.014580
C48   C     C_R   0.282902 0.546191 0.967591 -0.014580
C49   C     C_R   0.546191 0.717098 0.967590 -0.014580
C50   C     C_R   0.717098 0.453809 0.967591 -0.014580
C51   C     C_R   0.453809 0.282902 0.967591 -0.014580
C52   C     C_R   0.962664 0.457397 0.218641 -0.013167
C53   C     C_R   0.781359 0.457397 0.962664 -0.013167
C54   C     C_R   0.037336 0.457397 0.781359 -0.013168
C55   C     C_R   0.218641 0.457397 0.037336 -0.013167
C56   C     C_R   0.962664 0.542603 0.781359 -0.013168
C57   C     C_R   0.000000 0.381534 0.500000 0.514364
C58   C     C_R   0.781359 0.542603 0.037336 -0.013167
C59   C     C_R   0.037336 0.542603 0.218641 -0.013167
C60   C     C_R   0.218641 0.542603 0.962664 -0.013168
C61   C     C_R   0.542603 0.781359 0.962664 -0.013167
C62   C     C_R   0.542603 0.037336 0.781359 -0.013167
C63   C     C_R   0.542603 0.218641 0.037336 -0.013167
C64   C     C_R   0.542603 0.962664 0.218641 -0.013168
C65   C     C_R   0.457397 0.218641 0.962664 -0.013167
C66   C     C_R   0.457397 0.962664 0.781359 -0.013167
C67   C     C_R   0.457397 0.781359 0.037336 -0.013168
C68   C     C_R   0.500000 0.381534 0.000000 0.514364
C69   C     C_R   0.457397 0.037336 0.218641 -0.013168
C70   C     C_R   0.218641 0.037336 0.542603 -0.013168
C71   C     C_R   0.962664 0.218641 0.542603 -0.013168
C72   C     C_R   0.781359 0.962664 0.542603 -0.013167
C73   C     C_R   0.037336 0.781359 0.542603 -0.013168
C74   C     C_R   0.781359 0.037336 0.457397 -0.013167
C75   C     C_R   0.037336 0.218641 0.457397 -0.013168
C76   C     C_R   0.218641 0.962664 0.457397 -0.013167
C77   C     C_R   0.962664 0.781359 0.457397 -0.013167
C78   C     C_R   0.500000 1.000000 0.685196 -0.020299
C79   C     C_R   0.381534 0.500000 0.000000 0.514364
C80   C     C_R   0.314804 0.000000 0.500000 -0.020299
C81   C     C_R   0.500000 0.000000 0.314804 -0.020300
C82   C     C_R   0.685196 1.000000 0.500000 -0.020300
C83   C     C_R   0.000000 0.314804 0.500000 -0.020300
C84   C     C_R   0.000000 0.500000 0.314804 -0.020299
C85   C     C_R   1.000000 0.685196 0.500000 -0.020300
C86   C     C_R   0.000000 0.500000 0.685196 -0.020300
C87   C     C_R   0.685196 0.500000 1.000000 -0.020300
C88   C     C_R   0.500000 0.685196 0.000000 -0.020300
C89   C     C_R   0.314804 0.500000 1.000000 -0.020300
C90   C     C_R   0.381534 0.000000 0.500000 0.514364
C91   C     C_R   0.500000 0.314804 0.000000 -0.020300
C92   C     C_R   0.000000 0.500000 0.186169 -0.025129
C93   C     C_R   0.813831 0.500000 1.000000 -0.025128
C94   C     C_R   1.000000 0.500000 0.813831 -0.025128
C95   C     C_R   0.186169 0.500000 1.000000 -0.025128
C96   C     C_R   0.500000 0.813831 0.000000 -0.025128
C97   C     C_R   0.500000 0.000000 0.813831 -0.025129
C98   C     C_R   0.500000 0.186169 0.000000 -0.025129
C99   C     C_R   0.500000 1.000000 0.186169 -0.025129
C100  C     C_R   0.186169 0.000000 0.500000 -0.025129
C101  C     C_R   0.618466 0.500000 0.000000 0.514364
C102  C     C_R   0.000000 0.186169 0.500000 -0.025129
C103  C     C_R   0.813831 0.000000 0.500000 -0.025129
C104  C     C_R   1.000000 0.813831 0.500000 -0.025128
C105  C     C_3   0.671426 0.152389 0.814076 -0.409913
C106  C     C_3   0.185924 0.152390 0.671425 -0.409913
C107  C     C_3   0.328576 0.152392 0.185924 -0.409913
C108  C     C_3   0.814076 0.152390 0.328575 -0.409911
C109  C     C_3   0.671424 0.847609 0.185924 -0.409912
C110  C     C_3   0.185924 0.847610 0.328575 -0.409913
C111  C     C_3   0.328574 0.847611 0.814076 -0.409912
C112  C     C_R   1.000000 0.118842 0.500000 0.523585
C113  C     C_R   0.618466 0.000000 0.500000 0.514363
C114  C     C_3   0.814076 0.847609 0.671424 -0.409913
C115  C     C_3   0.847610 0.185924 0.671425 -0.409911
C116  C     C_3   0.847611 0.328574 0.185924 -0.409913
C117  C     C_3   0.847610 0.814076 0.328575 -0.409913
C118  C     C_3   0.847608 0.671423 0.814076 -0.409913
C119  C     C_3   0.152390 0.814076 0.671425 -0.409913
C120  C     C_3   0.152389 0.671426 0.185924 -0.409912
C121  C     C_3   0.152391 0.185924 0.328576 -0.409913
C122  C     C_3   0.152391 0.328576 0.814076 -0.409912
C123  C     C_3   0.814076 0.328575 0.847611 -0.409913
C124  C     C_R   0.500000 0.000000 0.381534 0.514364
C125  C     C_3   0.671423 0.814076 0.847608 -0.409912
C126  C     C_3   0.185924 0.671425 0.847610 -0.409912
C127  C     C_3   0.328576 0.185924 0.847610 -0.409913
C128  C     C_3   0.185924 0.328577 0.152392 -0.409912
C129  C     C_3   0.328575 0.814076 0.152390 -0.409912
C130  C     C_3   0.814076 0.671424 0.152390 -0.409913
C131  C     C_3   0.671425 0.185924 0.152389 -0.409913
C132  C     C_3   0.125242 0.690915 0.318067 -0.403160
C133  C     C_3   0.681933 0.690914 0.125243 -0.403160
C134  C     C_3   0.874755 0.690913 0.681933 -0.403160
C135  C     C_R   1.000000 0.500000 0.381534 0.514364
C136  C     C_3   0.318067 0.690915 0.874757 -0.403159
C137  C     C_3   0.125244 0.309086 0.681933 -0.403160
C138  C     C_3   0.681933 0.309085 0.874757 -0.403160
C139  C     C_3   0.874759 0.309084 0.318067 -0.403160
C140  C     C_3   0.318067 0.309087 0.125246 -0.403161
C141  C     C_3   0.309085 0.681933 0.125243 -0.403159
C142  C     C_3   0.309084 0.874758 0.681933 -0.403160
C143  C     C_3   0.309086 0.318067 0.874757 -0.403160
C144  C     C_3   0.309087 0.125245 0.318067 -0.403160
C145  C     C_3   0.690915 0.318067 0.125242 -0.403160
C146  C     C_R   0.500000 0.000000 0.618466 0.514364
C147  C     C_3   0.690916 0.125241 0.681933 -0.403160
C148  C     C_3   0.690913 0.681933 0.874754 -0.403161
C149  C     C_3   0.690914 0.874756 0.318067 -0.403160
C150  C     C_3   0.318067 0.874757 0.309085 -0.403160
C151  C     C_3   0.125244 0.318067 0.309086 -0.403161
C152  C     C_3   0.681933 0.125243 0.309085 -0.403159
C153  C     C_3   0.874757 0.681933 0.309085 -0.403160
C154  C     C_3   0.681933 0.874756 0.690914 -0.403161
C155  C     C_3   0.874757 0.318067 0.690915 -0.403159
C156  C     C_3   0.318067 0.125243 0.690915 -0.403160
C157  C     C_R   0.000000 0.500000 0.618466 0.514363
C158  C     C_3   0.125242 0.681933 0.690915 -0.403160
C159  C     C_R   0.418224 0.920200 0.811200 -0.091287
C160  C     C_R   0.188800 0.920200 0.418224 -0.091287
C161  C     C_R   0.581776 0.920199 0.188800 -0.091287
C162  C     C_R   0.811200 0.920200 0.581776 -0.091287
C163  C     C_R   0.418224 0.079801 0.188800 -0.091287
C164  C     C_R   0.500000 0.881158 0.000000 0.523585
C165  C     C_R   0.188800 0.079800 0.581776 -0.091287
C166  C     C_R   0.581776 0.079800 0.811200 -0.091287
C167  C     C_R   0.811200 0.079800 0.418224 -0.091287
C168  C     C_R   0.079800 0.188800 0.418224 -0.091287
C169  C     C_R   0.079800 0.581776 0.188800 -0.091287
C170  C     C_R   0.079800 0.811200 0.581776 -0.091287
C171  C     C_R   0.079800 0.418224 0.811200 -0.091287
C172  C     C_R   0.920200 0.811200 0.418224 -0.091287
C173  C     C_R   0.920200 0.418224 0.188800 -0.091287
C174  C     C_R   0.920200 0.188800 0.581776 -0.091287
C175  C     C_R   0.000000 0.881158 0.500000 0.523585
C176  C     C_R   0.920199 0.581776 0.811200 -0.091287
C177  C     C_R   0.811200 0.581776 0.079800 -0.091287
C178  C     C_R   0.418224 0.811200 0.079800 -0.091287
C179  C     C_R   0.188800 0.418225 0.079800 -0.091287
C180  C     C_R   0.581776 0.188800 0.079800 -0.091287
C181  C     C_R   0.188800 0.581776 0.920199 -0.091287
C182  C     C_R   0.581775 0.811200 0.920199 -0.091287
C183  C     C_R   0.811200 0.418224 0.920200 -0.091287
C184  C     C_R   0.418224 0.188800 0.920200 -0.091287
C185  C     C_R   0.939642 0.404117 0.313980 -0.093227
C186  C     C_R   0.881158 0.000000 0.500000 0.523585
C187  C     C_R   0.686020 0.404117 0.939642 -0.093227
C188  C     C_R   0.060359 0.404118 0.686020 -0.093226
C189  C     C_R   0.313980 0.404118 0.060359 -0.093227
C190  C     C_R   0.939641 0.595882 0.686020 -0.093227
C191  C     C_R   0.686020 0.595882 0.060358 -0.093226
C192  C     C_R   0.060358 0.595883 0.313980 -0.093227
C193  C     C_R   0.313980 0.595882 0.939642 -0.093227
C194  C     C_R   0.595882 0.686020 0.939641 -0.093227
C195  C     C_R   0.595883 0.060358 0.686020 -0.093227
C196  C     C_R   0.595882 0.313980 0.060358 -0.093227
C197  C     C_R   0.881158 0.500000 1.000000 0.523585
C198  C     C_R   0.595882 0.939641 0.313980 -0.093226
C199  C     C_R   0.404118 0.313980 0.939642 -0.093226
C200  C     C_R   0.404117 0.939642 0.686020 -0.093227
C201  C     C_R   0.404117 0.686020 0.060358 -0.093227
C202  C     C_R   0.404118 0.060359 0.313980 -0.093227
C203  C     C_R   0.313980 0.060358 0.595882 -0.093227
C204  C     C_R   0.939642 0.313980 0.595883 -0.093227
C205  C     C_R   0.686020 0.939642 0.595882 -0.093227
C206  C     C_R   0.060358 0.686020 0.595883 -0.093227
C207  C     C_R   0.686020 0.060358 0.404117 -0.093227
C208  C     C_R   0.118842 1.000000 0.500000 0.523585
C209  C     C_R   0.060358 0.313980 0.404118 -0.093227
C210  C     C_R   0.313980 0.939642 0.404117 -0.093227
C211  C     C_R   0.939642 0.686020 0.404117 -0.093227
C212  C     C_R   0.370407 0.890724 0.779820 0.029776
C213  C     C_R   0.220180 0.890724 0.370407 0.029776
C214  C     C_R   0.629592 0.890723 0.220180 0.029776
C215  C     C_R   0.779820 0.890723 0.629592 0.029776
C216  C     C_R   0.370408 0.109277 0.220180 0.029776
C217  C     C_R   0.220180 0.109276 0.629592 0.029776
C218  C     C_R   0.629593 0.109275 0.779820 0.029776
C219  C     C_R   0.118842 0.500000 1.000000 0.523585
C220  C     C_R   0.779820 0.109276 0.370407 0.029776
C221  C     C_R   0.109277 0.220180 0.370408 0.029776
C222  C     C_R   0.109276 0.629593 0.220180 0.029776
C223  C     C_R   0.109276 0.779820 0.629593 0.029776
C224  C     C_R   0.109277 0.370408 0.779820 0.029776
C225  C     C_R   0.890724 0.779820 0.370408 0.029776
C226  C     C_R   0.890724 0.370407 0.220180 0.029776
C227  C     C_R   0.890724 0.220180 0.629593 0.029776
C228  C     C_R   0.890722 0.629592 0.779820 0.029776
C229  C     C_R   0.779820 0.629592 0.109277 0.029776
C230  C     C_R   1.000000 0.500000 0.881158 0.523585
C231  C     C_R   0.370408 0.779820 0.109276 0.029776
C232  C     C_R   0.220180 0.370408 0.109277 0.029776
C233  C     C_R   0.629592 0.220180 0.109276 0.029776
C234  C     C_R   0.220180 0.629592 0.890723 0.029776
C235  C     C_R   0.629591 0.779820 0.890722 0.029776
C236  C     C_R   0.779820 0.370407 0.890724 0.029776
C237  C     C_R   0.370408 0.220180 0.890723 0.029776
C238  C     C_R   0.902393 0.361960 0.283106 0.031402
C239  C     C_R   0.716894 0.361960 0.902392 0.031401
C240  C     C_R   0.097609 0.361961 0.716894 0.031402
Cu1   Cu    Cu3+1 0.561820 0.000000 0.000000 0.887083
Cu2   Cu    Cu3+1 0.500000 0.500000 0.938180 0.909648
Cu3   Cu    Cu3+1 0.500000 0.938180 0.500000 0.909648
Cu4   Cu    Cu3+1 0.500000 0.061820 0.500000 0.909648
Cu5   Cu    Cu3+1 0.000000 0.000000 0.561820 0.887083
Cu6   Cu    Cu3+1 0.438180 0.000000 0.000000 0.887083
Cu7   Cu    Cu3+1 1.000000 0.000000 0.438180 0.887083
Cu8   Cu    Cu3+1 0.000000 0.438180 0.000000 0.887083
Cu9   Cu    Cu3+1 1.000000 0.561820 0.000000 0.887083
Cu10  Cu    Cu3+1 0.061820 0.500000 0.500000 0.909648
Cu11  Cu    Cu3+1 0.500000 0.500000 0.061820 0.909648
Cu12  Cu    Cu3+1 0.938180 0.500000 0.500000 0.909648
H1    H     H_    0.424684 0.908691 0.858965 0.144116
H2    H     H_    0.091309 0.575316 0.141035 0.144116
H3    H     H_    0.658076 0.863077 0.843123 0.125805
H4    H     H_    0.719339 0.812338 0.864822 0.129528
H5    H     H_    0.669382 0.792871 0.801363 0.128332
H6    H     H_    0.136923 0.658076 0.843123 0.125804
H7    H     H_    0.187659 0.719340 0.864827 0.129528
H8    H     H_    0.207129 0.669387 0.801366 0.128331
H9    H     H_    0.341924 0.136923 0.843123 0.125804
H10   H     H_    0.280661 0.187660 0.864826 0.129528
H11   H     H_    0.330614 0.207129 0.801366 0.128332
H12   H     H_    0.136923 0.341924 0.156877 0.125805
H13   H     H_    0.091309 0.858965 0.575315 0.144115
H14   H     H_    0.187662 0.280661 0.135178 0.129528
H15   H     H_    0.207128 0.330618 0.198637 0.128332
H16   H     H_    0.341924 0.863077 0.156877 0.125804
H17   H     H_    0.280660 0.812341 0.135173 0.129528
H18   H     H_    0.330613 0.792871 0.198634 0.128331
H19   H     H_    0.863077 0.658076 0.156877 0.125804
H20   H     H_    0.812340 0.719339 0.135174 0.129528
H21   H     H_    0.792871 0.669386 0.198634 0.128332
H22   H     H_    0.658076 0.136923 0.156877 0.125804
H23   H     H_    0.719340 0.187659 0.135172 0.129528
H24   H     H_    0.091309 0.424685 0.858965 0.144115
H25   H     H_    0.669388 0.207129 0.198633 0.128332
H26   H     H_    0.111016 0.690940 0.367043 0.133632
H27   H     H_    0.176075 0.688107 0.316431 0.128813
H28   H     H_    0.109913 0.734864 0.297401 0.130505
H29   H     H_    0.632957 0.690939 0.111017 0.133631
H30   H     H_    0.683569 0.688106 0.176077 0.128813
H31   H     H_    0.702598 0.734862 0.109915 0.130504
H32   H     H_    0.888980 0.690938 0.632957 0.133632
H33   H     H_    0.823921 0.688105 0.683569 0.128813
H34   H     H_    0.890083 0.734862 0.702598 0.130504
H35   H     H_    0.908691 0.858965 0.424685 0.144116
H36   H     H_    0.367043 0.690940 0.888983 0.133631
H37   H     H_    0.316431 0.688106 0.823923 0.128813
H38   H     H_    0.297401 0.734863 0.890086 0.130504
H39   H     H_    0.111018 0.309061 0.632957 0.133632
H40   H     H_    0.176077 0.311894 0.683569 0.128813
H41   H     H_    0.109915 0.265138 0.702598 0.130504
H42   H     H_    0.632957 0.309060 0.888984 0.133631
H43   H     H_    0.683569 0.311893 0.823924 0.128813
H44   H     H_    0.702599 0.265137 0.890086 0.130505
H45   H     H_    0.888985 0.309059 0.367043 0.133632
H46   H     H_    0.908691 0.424684 0.141035 0.144116
H47   H     H_    0.823925 0.311892 0.316431 0.128813
H48   H     H_    0.890088 0.265136 0.297401 0.130505
H49   H     H_    0.367044 0.309062 0.111021 0.133632
H50   H     H_    0.316430 0.311896 0.176079 0.128813
H51   H     H_    0.297403 0.265138 0.109917 0.130504
H52   H     H_    0.309060 0.632957 0.111017 0.133631
H53   H     H_    0.311893 0.683569 0.176076 0.128813
H54   H     H_    0.265137 0.702598 0.109914 0.130504
H55   H     H_    0.309059 0.888984 0.632957 0.133632
H56   H     H_    0.311892 0.823924 0.683569 0.128813
H57   H     H_    0.908691 0.141035 0.575316 0.144115
H58   H     H_    0.265136 0.890087 0.702598 0.130505
H59   H     H_    0.309061 0.367043 0.888983 0.133631
H60   H     H_    0.311894 0.316431 0.823923 0.128813
H61   H     H_    0.265138 0.297401 0.890085 0.130504
H62   H     H_    0.309062 0.111020 0.367043 0.133632
H63   H     H_    0.311895 0.176078 0.316431 0.128813
H64   H     H_    0.265138 0.109917 0.297402 0.130504
H65   H     H_    0.690940 0.367043 0.111016 0.133631
H66   H     H_    0.688107 0.316431 0.176076 0.128813
H67   H     H_    0.734863 0.297401 0.109914 0.130505
H68   H     H_    0.908691 0.575315 0.858965 0.144115
H69   H     H_    0.690941 0.111015 0.632957 0.133632
H70   H     H_    0.688108 0.176075 0.683569 0.128813
H71   H     H_    0.734864 0.109912 0.702599 0.130505
H72   H     H_    0.690938 0.632956 0.888979 0.133632
H73   H     H_    0.688104 0.683570 0.823921 0.128813
H74   H     H_    0.734861 0.702597 0.890083 0.130504
H75   H     H_    0.690939 0.888982 0.367043 0.133632
H76   H     H_    0.688106 0.823923 0.316431 0.128813
H77   H     H_    0.734862 0.890085 0.297402 0.130504
H78   H     H_    0.367043 0.888984 0.309060 0.133632
H79   H     H_    0.858965 0.575315 0.091309 0.144115
H80   H     H_    0.316431 0.823924 0.311893 0.128813
H81   H     H_    0.297401 0.890086 0.265137 0.130505
H82   H     H_    0.111019 0.367043 0.309061 0.133632
H83   H     H_    0.176077 0.316431 0.311895 0.128813
H84   H     H_    0.109915 0.297402 0.265138 0.130505
H85   H     H_    0.632957 0.111017 0.309060 0.133632
H86   H     H_    0.683569 0.176076 0.311893 0.128813
H87   H     H_    0.702598 0.109914 0.265137 0.130504
H88   H     H_    0.888984 0.632957 0.309060 0.133632
H89   H     H_    0.823924 0.683569 0.311893 0.128813
H90   H     H_    0.424685 0.858965 0.091309 0.144115
H91   H     H_    0.890086 0.702599 0.265137 0.130505
H92   H     H_    0.632957 0.888981 0.690939 0.133632
H93   H     H_    0.683569 0.823923 0.688105 0.128813
H94   H     H_    0.702598 0.890085 0.734862 0.130505
H95   H     H_    0.888983 0.367043 0.690940 0.133632
H96   H     H_    0.823923 0.316431 0.688107 0.128813
H97   H     H_    0.890086 0.297402 0.734863 0.130504
H98   H     H_    0.367043 0.111016 0.690940 0.133632
H99   H     H_    0.316431 0.176076 0.688107 0.128813
H100  H     H_    0.297401 0.109914 0.734863 0.130505
H101  H     H_    0.141035 0.424685 0.091309 0.144116
H102  H     H_    0.111016 0.632957 0.690940 0.133632
H103  H     H_    0.176076 0.683569 0.688107 0.128813
H104  H     H_    0.109914 0.702598 0.734863 0.130505
H105  H     H_    0.141035 0.908691 0.424685 0.144115
H106  H     H_    0.575315 0.141035 0.091309 0.144115
H107  H     H_    0.141035 0.575315 0.908691 0.144115
H108  H     H_    0.575315 0.858965 0.908691 0.144116
H109  H     H_    0.858965 0.424685 0.908691 0.144116
H110  H     H_    0.424685 0.141035 0.908691 0.144115
H111  H     H_    0.946947 0.397200 0.362563 0.131649
H112  H     H_    0.637437 0.397200 0.946946 0.131649
H113  H     H_    0.053054 0.397200 0.637437 0.131649
H114  H     H_    0.362563 0.397201 0.053055 0.131650
H115  H     H_    0.946945 0.602799 0.637437 0.131650
H116  H     H_    0.575315 0.908691 0.141035 0.144115
H117  H     H_    0.637437 0.602800 0.053054 0.131649
H118  H     H_    0.053054 0.602800 0.362563 0.131649
H119  H     H_    0.362562 0.602800 0.946946 0.131649
H120  H     H_    0.602799 0.637437 0.946945 0.131650
H121  H     H_    0.602800 0.053053 0.637437 0.131649
H122  H     H_    0.602800 0.362562 0.053054 0.131649
H123  H     H_    0.602800 0.946946 0.362562 0.131649
H124  H     H_    0.397200 0.362562 0.946946 0.131649
H125  H     H_    0.397200 0.946946 0.637437 0.131649
H126  H     H_    0.397200 0.637437 0.053054 0.131649
H127  H     H_    0.858965 0.908691 0.575315 0.144116
H128  H     H_    0.397201 0.053055 0.362563 0.131650
H129  H     H_    0.362562 0.053054 0.602800 0.131649
H130  H     H_    0.946946 0.362563 0.602800 0.131649
H131  H     H_    0.637437 0.946946 0.602799 0.131649
H132  H     H_    0.053054 0.637437 0.602800 0.131649
H133  H     H_    0.637437 0.053054 0.397200 0.131649
H134  H     H_    0.053054 0.362563 0.397201 0.131649
H135  H     H_    0.362562 0.946946 0.397200 0.131649
H136  H     H_    0.946946 0.637437 0.397200 0.131649
H137  H     H_    0.658077 0.156876 0.863077 0.125805
H138  H     H_    0.424685 0.091309 0.141035 0.144115
H139  H     H_    0.719341 0.135171 0.812341 0.129528
H140  H     H_    0.669389 0.198632 0.792870 0.128332
H141  H     H_    0.136923 0.156877 0.658076 0.125805
H142  H     H_    0.187659 0.135172 0.719340 0.129528
H143  H     H_    0.207129 0.198633 0.669387 0.128332
H144  H     H_    0.341924 0.156877 0.136923 0.125805
H145  H     H_    0.280661 0.135177 0.187661 0.129528
H146  H     H_    0.330617 0.198636 0.207129 0.128332
H147  H     H_    0.863077 0.156876 0.341923 0.125804
H148  H     H_    0.812340 0.135174 0.280660 0.129528
H149  H     H_    0.141035 0.091309 0.575315 0.144115
H150  H     H_    0.792871 0.198634 0.330614 0.128331
H151  H     H_    0.658076 0.843123 0.136923 0.125805
H152  H     H_    0.719339 0.864825 0.187660 0.129528
H153  H     H_    0.669385 0.801365 0.207129 0.128332
H154  H     H_    0.136923 0.843123 0.341923 0.125804
H155  H     H_    0.187659 0.864827 0.280660 0.129528
H156  H     H_    0.207129 0.801366 0.330613 0.128331
H157  H     H_    0.341923 0.843124 0.863077 0.125804
H158  H     H_    0.280660 0.864828 0.812341 0.129528
H159  H     H_    0.330612 0.801367 0.792870 0.128332
H160  H     H_    0.575316 0.091309 0.858965 0.144116
H161  H     H_    0.863077 0.843123 0.658076 0.125805
H162  H     H_    0.812340 0.864825 0.719340 0.129528
H163  H     H_    0.792871 0.801365 0.669385 0.128332
H164  H     H_    0.843124 0.136923 0.658077 0.125804
H165  H     H_    0.864826 0.187660 0.719340 0.129528
H166  H     H_    0.801366 0.207129 0.669386 0.128331
H167  H     H_    0.843124 0.341923 0.136923 0.125805
H168  H     H_    0.864829 0.280659 0.187659 0.129528
H169  H     H_    0.801367 0.330611 0.207130 0.128332
H170  H     H_    0.843123 0.863077 0.341924 0.125805
H171  H     H_    0.858965 0.091309 0.424684 0.144115
H172  H     H_    0.864827 0.812341 0.280660 0.129528
H173  H     H_    0.801366 0.792871 0.330612 0.128332
H174  H     H_    0.843122 0.658076 0.863077 0.125805
H175  H     H_    0.864823 0.719339 0.812339 0.129528
H176  H     H_    0.801364 0.669383 0.792871 0.128332
H177  H     H_    0.156877 0.863077 0.658076 0.125804
H178  H     H_    0.135173 0.812341 0.719340 0.129528
H179  H     H_    0.198634 0.792870 0.669387 0.128331
H180  H     H_    0.156876 0.658077 0.136923 0.125804
H181  H     H_    0.135172 0.719340 0.187659 0.129528
H182  H     H_    0.091309 0.141035 0.424685 0.144116
H183  H     H_    0.198633 0.669388 0.207129 0.128332
H184  H     H_    0.156877 0.136923 0.341924 0.125805
H185  H     H_    0.135175 0.187660 0.280660 0.129528
H186  H     H_    0.198635 0.207129 0.330615 0.128332
H187  H     H_    0.156877 0.341924 0.863077 0.125805
H188  H     H_    0.135175 0.280661 0.812340 0.129528
H189  H     H_    0.198635 0.330615 0.792871 0.128332
H190  H     H_    0.863077 0.341924 0.843123 0.125804
H191  H     H_    0.812341 0.280660 0.864828 0.129528
H192  H     H_    0.792870 0.330612 0.801366 0.128332
O1    O     O_R   0.552210 0.090180 0.999970 -0.518803
O2    O     O_R   0.909820 0.447790 0.000030 -0.518803
O3    O     O_R   0.909820 0.999970 0.447790 -0.518803
O4    O     O_R   0.909820 0.552210 0.999970 -0.518803
O5    O     O_R   0.090180 0.999970 0.552210 -0.518803
O6    O     O_R   0.090180 0.552210 0.000030 -0.518803
O7    O     O_R   0.090180 0.000030 0.447790 -0.518803
O8    O     O_R   0.090180 0.447790 0.999970 -0.518803
O9    O     O_R   0.999970 0.447790 0.909820 -0.518803
O10   O     O_R   0.552210 0.999970 0.909820 -0.518803
O11   O     O_R   0.000030 0.552210 0.909820 -0.518803
O12   O     O_R   0.000030 0.090180 0.552210 -0.518803
O13   O     O_R   0.447790 0.000030 0.909820 -0.518803
O14   O     O_R   0.000030 0.447790 0.090180 -0.518803
O15   O     O_R   0.447790 0.999970 0.090180 -0.518803
O16   O     O_R   0.999970 0.552210 0.090180 -0.518803
O17   O     O_R   0.552210 0.000030 0.090180 -0.518803
O18   O     O_R   0.052210 0.590180 0.499970 -0.514863
O19   O     O_R   0.500030 0.590180 0.052210 -0.514863
O20   O     O_R   0.947790 0.590180 0.500030 -0.514863
O21   O     O_R   0.499970 0.590180 0.947790 -0.514863
O22   O     O_R   0.052210 0.409820 0.500030 -0.514863
O23   O     O_R   0.447790 0.090180 0.000030 -0.518803
O24   O     O_R   0.500030 0.409820 0.947790 -0.514862
O25   O     O_R   0.947790 0.409820 0.499970 -0.514862
O26   O     O_R   0.499970 0.409820 0.052210 -0.514863
O27   O     O_R   0.409820 0.500030 0.052210 -0.514863
O28   O     O_R   0.409820 0.947790 0.500030 -0.514862
O29   O     O_R   0.409820 0.499970 0.947790 -0.514862
O30   O     O_R   0.409820 0.052210 0.499970 -0.514863
O31   O     O_R   0.590180 0.499970 0.052210 -0.514863
O32   O     O_R   0.590180 0.052210 0.500030 -0.514863
O33   O     O_R   0.590180 0.500030 0.947790 -0.514863
O34   O     O_R   0.999970 0.090180 0.447790 -0.518803
O35   O     O_R   0.590180 0.947790 0.499970 -0.514863
O36   O     O_R   0.499970 0.947790 0.409820 -0.514862
O37   O     O_R   0.052210 0.499970 0.409820 -0.514863
O38   O     O_R   0.500030 0.052210 0.409820 -0.514863
O39   O     O_R   0.947790 0.500030 0.409820 -0.514862
O40   O     O_R   0.500030 0.947790 0.590180 -0.514863
O41   O     O_R   0.947790 0.499970 0.590180 -0.514863
O42   O     O_R   0.499970 0.052210 0.590180 -0.514863
O43   O     O_R   0.052210 0.500030 0.590180 -0.514863
O44   O     O_R   0.552210 0.909820 0.000030 -0.518803
O45   O     O_R   0.000030 0.909820 0.447790 -0.518803
O46   O     O_R   0.447790 0.909820 0.999970 -0.518803
O47   O     O_R   0.999970 0.909820 0.552210 -0.518803
O48   O     O_R   0.909820 0.000030 0.552210 -0.518803

loop_
_geom_bond_atom_site_label_1
_geom_bond_atom_site_label_2
_ccdc_geom_bond_type
C9    C218  A    
C115  H165  S    
Cu4   O32   S    
C37   C206  A    
C122  H189  S    
C187  H112  S    
C118  H176  S    
C156  H100  S    
C143  H60   S    
C100  C208  S    
Cu2   Cu11  S    
C197  O4    A    
C122  H187  S    
C16   C144  S    
C57   O25   A    
C63   C98   A    
Cu12  O25   S    
C3    C189  A    
C178  H90   S    
Cu10  Cu12  S    
C191  H117  S    
C186  O3    A    
C105  H137  S    
C21   C152  S    
C101  O33   A    
C125  H3    S    
C40   C84   A    
C135  O37   A    
C43   C58   A    
C151  H83   S    
C31   C70   A    
C21   C220  A    
C179  H101  S    
C95   C219  S    
C57   C83   S    
C42   C86   A    
Cu8   O2    S    
C138  H42   S    
C34   C75   A    
C128  C232  S    
C122  C224  S    
C119  H177  S    
Cu5   O12   S    
C146  O40   A    
C12   C143  S    
C176  C228  A    
C158  H103  S    
C74   C167  A    
C30   C202  A    
C22   C221  A    
C90   O30   A    
C50   C53   A    
C126  H6    S    
Cu2   O29   S    
C149  H77   S    
Cu12  O39   S    
C147  H70   S    
C6    C132  S    
Cu11  O31   S    
C188  H113  S    
C130  C229  S    
C118  C228  S    
C133  H31   S    
Cu4   O30   S    
C142  H56   S    
C190  H115  S    
Cu9   O16   S    
C174  C227  A    
C115  C227  S    
C188  C240  A    
C163  C216  A    
C42   C190  A    
C116  H167  S    
C205  H131  S    
C25   C211  A    
C130  H21   S    
C148  H74   S    
C189  H114  S    
C138  H44   S    
C71   C102  A    
C109  C214  S    
C118  H174  S    
C30   C69   A    
C13   O14   A    
C174  H57   S    
C140  H50   S    
C23   C213  A    
C123  H192  S    
C172  H35   S    
C114  H162  S    
C10   C233  A    
C120  C222  S    
C165  H149  S    
C9    C195  A    
C72   C103  A    
Cu11  O27   S    
C76   C100  A    
C132  H26   S    
Cu10  O18   S    
C113  O32   A    
Cu6   O15   S    
C136  H37   S    
Cu9   O4    S    
C53   C183  A    
C32   C62   A    
C139  H48   S    
C144  H62   S    
C184  H110  S    
C38   C188  A    
C25   C225  A    
C134  H34   S    
C128  H15   S    
Cu7   O3    S    
C19   C215  A    
C18   C227  A    
C78   C146  S    
C11   C214  A    
C123  C236  S    
C60   C95   A    
C178  C231  A    
C106  C217  S    
C8    C235  A    
Cu9   O11   S    
C73   C170  A    
C59   C169  A    
C133  H30   S    
C6    C222  A    
C130  H20   S    
C109  H153  S    
C14   C142  S    
C84   C135  S    
C48   C193  A    
C154  H94   S    
C158  H102  S    
Cu12  O41   S    
C168  C221  A    
C61   C96   A    
C131  C233  S    
C5    C133  S    
C61   C182  A    
C26   C78   A    
C56   C176  A    
C122  H188  S    
C146  O42   A    
C116  H169  S    
C109  H152  S    
C141  H54   S    
C29   C205  A    
C121  H185  S    
Cu3   O35   S    
C17   C203  A    
C57   O22   A    
C87   C101  S    
Cu10  O37   S    
C181  C234  A    
C64   C99   A    
C124  O38   A    
C200  H125  S    
C46   O21   A    
C26   C200  A    
Cu6   O46   S    
C13   O16   A    
C150  H80   S    
C41   C71   A    
C42   C56   A    
C123  H190  S    
C128  H12   S    
C7    C234  A    
C170  H13   S    
C180  H106  S    
C149  H75   S    
C182  H108  S    
C66   C159  A    
C15   C201  A    
C116  H168  S    
C132  H28   S    
C111  H158  S    
Cu6   O13   S    
C26   C66   A    
C4    C190  A    
Cu9   O6    S    
Cu3   O40   S    
C5    C191  A    
Cu1   O44   S    
C27   C80   A    
C144  H64   S    
C70   C165  A    
C196  H122  S    
C108  H147  S    
C134  H32   S    
C63   C180  A    
C96   C164  S    
C207  H133  S    
C137  H40   S    
C93   C197  S    
C177  H79   S    
C147  H71   S    
C10   C196  A    
C62   C97   A    
C224  C240  A    
C169  C222  A    
C138  C239  S    
C41   C204  A    
C219  O8    A    
C193  H119  S    
C129  H16   S    
C51   C199  A    
C50   C87   A    
C62   C166  A    
Cu3   O28   S    
C23   C150  S    
C110  H156  S    
Cu2   O33   S    
C106  H142  S    
C192  H118  S    
C24   O17   A    
C45   C89   A    
C94   C230  S    
C4    C134  S    
C60   C181  A    
C22   C151  S    
C33   C207  A    
C15   C231  A    
C36   C192  A    
C55   C179  A    
C82   C113  S    
C64   C161  A    
C67   C178  A    
C143  H59   S    
C1    C98   S    
C152  H85   S    
C23   C210  A    
C183  C236  A    
C236  C239  A    
C153  H89   S    
C11   C198  A    
C7    C136  S    
C136  H38   S    
C130  H19   S    
C35   C85   S    
Cu8   O8    S    
C46   O19   A    
C126  C234  S    
C86   C157  S    
C79   C89   S    
C150  H78   S    
C45   C55   A    
C128  H14   S    
C44   C67   A    
C20   C158  S    
C44   C201  A    
C65   C184  A    
C120  H181  S    
Cu10  O22   S    
C101  O31   A    
C102  C112  S    
C117  H170  S    
C36   C59   A    
C31   C80   A    
C107  H146  S    
C56   C94   A    
C126  H7    S    
C181  H107  S    
C105  H140  S    
C226  C238  A    
C118  H175  S    
C163  H138  S    
C58   C93   A    
C65   C98   A    
C147  H69   S    
C156  H99   S    
C47   C63   A    
C16   C202  A    
C49   C194  A    
Cu3   Cu4   S    
C51   C65   A    
C16   C216  A    
C219  O6    A    
C160  H105  S    
C129  H18   S    
Cu5   O48   S    
C51   C91   A    
C15   C141  S    
C112  O34   A    
C11   C149  S    
C76   C160  A    
C2    C97   S    
Cu4   O38   S    
C110  H154  S    
Cu1   O17   S    
C202  H128  S    
C8    C194  A    
C75   C168  A    
C204  H130  S    
C33   C82   A    
C164  O44   A    
C115  H166  S    
Cu8   O9    S    
C28   C81   A    
Cu11  O19   S    
C139  C238  S    
C49   C88   A    
C8    C148  S    
C194  H120  S    
C199  H124  S    
C32   C195  A    
C168  H182  S    
C169  H2    S    
C152  H87   S    
C123  H191  S    
C114  H163  S    
C176  H68   S    
C49   C61   A    
C25   C153  S    
Cu1   Cu6   S    
C69   C163  A    
C35   O20   A    
C153  H91   S    
C131  H22   S    
C138  H43   S    
C14   C200  A    
C27   C210  A    
C145  H67   S    
C159  C212  A    
C125  H4    S    
C139  H47   S    
C158  H104  S    
C151  H84   S    
C47   C196  A    
C38   C54   A    
C173  H46   S    
C90   O28   A    
C157  O41   A    
C230  O11   A    
C182  C235  A    
C28   C64   A    
C12   C237  A    
C120  H183  S    
C38   C86   A    
C180  C233  A    
C127  C237  S    
Cu7   O7    S    
Cu5   Cu7   S    
C13   C92   S    
C167  H171  S    
C52   C92   A    
Cu5   O5    S    
C159  H1    S    
C117  H172  S    
C27   C76   A    
C211  H136  S    
C184  C237  A    
Cu8   Cu9   S    
C156  H98   S    
C107  H144  S    
C47   C91   A    
C114  C215  S    
C203  H129  S    
C187  C239  A    
C71   C174  A    
C126  H8    S    
C145  H66   S    
Cu8   O14   S    
C142  H55   S    
C14   C212  A    
C198  H123  S    
C145  H65   S    
C30   C81   A    
C155  H96   S    
C161  H116  S    
C208  O5    A    
C195  H121  S    
C109  H151  S    
C111  H159  S    
C77   C172  A    
C141  H53   S    
Cu2   O21   S    
C79   O27   A    
C20   C223  A    
C127  H11   S    
C121  H184  S    
C108  H150  S    
C59   C92   A    
C4    C228  A    
C29   C82   A    
C148  H73   S    
C131  H25   S    
C164  O46   A    
C170  C223  A    
C108  C220  S    
C33   C74   A    
C161  C214  A    
C105  C218  S    
C6    C192  A    
C19   C154  S    
C121  C221  S    
C77   C104  A    
C179  C232  A    
C17   C156  S    
Cu7   O45   S    
C127  H10   S    
C18   C155  S    
C150  H81   S    
C140  H49   S    
C28   C198  A    
C41   C83   A    
C141  H52   S    
Cu1   O10   S    
C114  H161  S    
Cu10  O43   S    
C24   C99   S    
C35   O18   A    
C20   C206  A    
C68   C91   S    
C171  C224  A    
Cu12  O20   S    
C155  H95   S    
C111  H157  S    
C117  C225  S    
C125  C235  S    
C39   C77   A    
C37   C85   A    
C139  H45   S    
C175  O47   A    
C173  C226  A    
C151  H82   S    
C177  C229  A    
C68   O24   A    
C22   C209  A    
C125  H5    S    
Cu3   O36   S    
C108  H148  S    
C134  H33   S    
C157  O43   A    
C154  H92   S    
C201  H126  S    
C172  C225  A    
C230  O9    A    
C137  H39   S    
C171  H24   S    
C142  H58   S    
C111  C212  S    
C73   C104  A    
C107  C216  S    
Cu6   O23   S    
C75   C102  A    
C162  H127  S    
C7    C193  A    
C166  C218  A    
C66   C97   A    
C115  H164  S    
C29   C72   A    
C43   C191  A    
C2    O10   A    
C154  H93   S    
C106  H143  S    
C103  C186  S    
C183  H109  S    
C50   C187  A    
C119  C223  S    
C70   C100  A    
C48   C60   A    
C104  C175  S    
C46   C88   S    
C162  C215  A    
Cu7   O34   S    
C155  H97   S    
C81   C124  S    
C53   C93   A    
C117  H173  S    
C110  C213  S    
C55   C95   A    
C208  O7    A    
C152  H86   S    
C40   C185  A    
Cu4   O42   S    
C40   C52   A    
C112  O12   A    
C127  H9    S    
C116  C226  S    
C121  H186  S    
C1    O1    A    
C197  O2    A    
C153  H88   S    
C24   O15   A    
C131  H23   S    
C34   C209  A    
C1    O23   A    
Cu1   O1    S    
C185  C238  A    
C39   C211  A    
C143  H61   S    
C209  H134  S    
C135  O39   A    
C140  H51   S    
C45   C189  A    
C48   C89   A    
C67   C96   A    
C5    C229  A    
C79   O29   A    
C34   C83   A    
C149  H76   S    
C136  H36   S    
C69   C99   A    
C167  C220  A    
C17   C217  A    
Cu11  O26   S    
C132  H27   S    
C37   C73   A    
C113  O35   A    
C72   C162  A    
C119  H179  S    
C210  H135  S    
C31   C203  A    
C54   C171  A    
C120  H180  S    
C124  O36   A    
C175  O45   A    
C144  H63   S    
C3    C232  A    
C18   C204  A    
C165  C217  A    
C107  H145  S    
C68   O26   A    
C129  C231  S    
C166  H160  S    
C105  H139  S    
C43   C87   A    
C21   C207  A    
C137  C240  S    
C137  H41   S    
C206  H132  S    
C119  H178  S    
C2    O13   A    
C9    C147  S    
C36   C84   A    
C133  H29   S    
C160  C213  A    
C185  H111  S    
C12   C199  A    
C58   C177  A    
C186  O48   A    
C80   C90   S    
C54   C94   A    
C129  H17   S    
Cu5   O47   S    
C10   C145  S    
C32   C78   A    
C110  H155  S    
Cu2   O24   S    
C19   C205  A    
C39   C85   A    
C106  H141  S    
C3    C140  S    
C44   C88   A    
C52   C173  A    
C148  H72   S    
C74   C103  A    
