data_mof_unit_34505.cif
_audit_creation_date              2012-12-11T15:09:00-0500
_audit_creation_method            fapswitch 2.2
_symmetry_space_group_name_H-M    P1
_symmetry_Int_Tables_number       1
_space_group_crystal_system       triclinic
_cell_length_a                    19.388752
_cell_length_b                    11.328295
_cell_length_c                    18.671342
_cell_angle_alpha                 89.999883
_cell_angle_beta                  89.138031
_cell_angle_gamma                 90.000151
_cell_volume                      4100.5375308

loop_
_atom_site_label
_atom_site_type_symbol
_atom_type_description
_atom_site_fract_x
_atom_site_fract_y
_atom_site_fract_z
_atom_type_partial_charge
C1    C     C_R   0.272176 0.043458 0.854059 0.558549
C2    C     C_R   0.727824 0.043458 0.145941 0.558508
C3    C     C_R   0.772176 0.543458 0.854059 0.558527
C4    C     C_R   0.227824 0.543458 0.145941 0.558544
C5    C     C_3   0.520226 0.723088 0.964345 -0.111134
C6    C     C_3   0.479774 0.723088 0.035655 -0.111135
C7    C     C_3   0.020226 0.223088 0.964345 -0.111136
C8    C     C_3   0.979774 0.223088 0.035655 -0.111134
C9    C     C_3   0.312179 0.528566 0.042571 -0.238803
C10   C     C_3   0.687821 0.528565 0.957429 -0.238802
C11   C     C_3   0.812179 0.028566 0.042571 -0.238801
C12   C     C_3   0.187821 0.028565 0.957429 -0.238803
C13   C     C_3   0.321443 0.554170 0.962100 -0.235181
C14   C     C_3   0.678557 0.554169 0.037900 -0.235182
C15   C     C_3   0.821443 0.054170 0.962100 -0.235182
C16   C     C_3   0.178557 0.054169 0.037900 -0.235181
C17   C     C_3   0.179880 0.522477 0.026821 -0.213611
C18   C     C_3   0.820120 0.522477 0.973179 -0.213610
C19   C     C_3   0.679880 0.022477 0.026821 -0.213608
C20   C     C_3   0.320120 0.022477 0.973179 -0.213611
C21   C     C_3   0.240244 0.706980 0.056801 -0.253353
C22   C     C_3   0.759756 0.706980 0.943198 -0.253353
C23   C     C_3   0.740244 0.206980 0.056801 -0.253354
C24   C     C_3   0.259756 0.206980 0.943198 -0.253352
C25   C     C_3   0.241220 0.574137 0.070187 0.061753
C26   C     C_3   0.758780 0.574137 0.929813 0.061759
C27   C     C_3   0.741220 0.074137 0.070187 0.061764
C28   C     C_3   0.258780 0.074137 0.929813 0.061753
C29   C     C_3   0.254694 0.610284 0.932116 0.052045
C30   C     C_3   0.745306 0.610284 0.067884 0.052044
C31   C     C_3   0.754694 0.110284 0.932116 0.052043
C32   C     C_3   0.245306 0.110284 0.067884 0.052045
C33   C     C_3   0.195023 0.524338 0.945689 -0.250794
C34   C     C_3   0.804977 0.524339 0.054311 -0.250793
C35   C     C_3   0.695023 0.024338 0.945689 -0.250794
C36   C     C_3   0.304976 0.024339 0.054311 -0.250793
C37   C     C_3   0.238014 0.725316 0.974903 -0.230139
C38   C     C_3   0.761986 0.725316 0.025096 -0.230141
C39   C     C_3   0.738014 0.225316 0.974903 -0.230140
C40   C     C_3   0.261986 0.225316 0.025096 -0.230140
C41   C     C_3   0.497547 0.703652 0.460055 -0.237749
C42   C     C_3   0.502465 0.703655 0.539949 -0.237747
C43   C     C_3   0.997539 0.203657 0.460054 -0.237749
C44   C     C_3   0.002459 0.203653 0.539947 -0.237747
C45   C     C_R   0.445017 0.817274 0.862567 0.537116
C46   C     C_R   0.554983 0.817274 0.137433 0.537113
C47   C     C_R   0.945017 0.317274 0.862567 0.537113
C48   C     C_R   0.054983 0.317274 0.137433 0.537118
C49   C     C_3   0.565980 0.897377 0.467325 -0.227509
C50   C     C_3   0.434017 0.897350 0.532674 -0.227506
C51   C     C_3   0.065991 0.397347 0.467327 -0.227510
C52   C     C_3   0.934030 0.397384 0.532678 -0.227504
C53   C     C_3   0.443047 0.902827 0.450072 -0.258721
C54   C     C_3   0.556951 0.902851 0.549925 -0.258716
C55   C     C_3   0.943059 0.402861 0.450079 -0.258707
C56   C     C_3   0.056962 0.402824 0.549930 -0.258723
C57   C     C_3   0.507274 0.831165 0.429901 0.072894
C58   C     C_3   0.492730 0.831165 0.570099 0.072908
C59   C     C_3   0.007276 0.331167 0.429903 0.072911
C60   C     C_3   0.992733 0.331166 0.570101 0.072900
C61   C     C_3   0.183929 0.671065 0.455033 -0.237690
C62   C     C_3   0.816068 0.671103 0.544976 -0.237689
C63   C     C_3   0.683949 0.171131 0.455016 -0.237705
C64   C     C_3   0.316076 0.171058 0.544965 -0.237686
C65   C     C_3   0.186942 0.679007 0.535641 -0.241607
C66   C     C_3   0.813057 0.679034 0.464365 -0.241599
C67   C     C_3   0.686951 0.179040 0.535629 -0.241605
C68   C     C_3   0.313061 0.179006 0.464357 -0.241605
C69   C     C_3   0.237178 0.472916 0.482140 -0.294219
C70   C     C_3   0.762811 0.472963 0.517884 -0.294166
C71   C     C_3   0.737198 0.972978 0.482096 -0.294113
C72   C     C_3   0.262826 0.972912 0.517856 -0.294228
C73   C     C_3   0.310105 0.627326 0.430451 -0.055281
C74   C     C_3   0.689888 0.627397 0.569556 -0.055353
C75   C     C_3   0.810132 0.127414 0.430445 -0.055436
C76   C     C_3   0.189901 0.127321 0.569549 -0.055266
C77   C     C_3   0.237938 0.576191 0.428931 0.080856
C78   C     C_3   0.762049 0.576248 0.571083 0.080865
C79   C     C_3   0.737970 0.076281 0.428906 0.080868
C80   C     C_3   0.262067 0.076183 0.571066 0.080855
C81   C     C_3   0.260992 0.640044 0.560607 0.044615
C82   C     C_3   0.739006 0.640077 0.439399 0.044604
C83   C     C_3   0.760998 0.140074 0.560599 0.044604
C84   C     C_3   0.239011 0.140044 0.439392 0.044615
C85   C     C_3   0.264693 0.505543 0.555727 -0.235837
C86   C     C_3   0.735296 0.505577 0.444295 -0.235865
C87   C     C_3   0.764702 0.005573 0.555694 -0.235878
C88   C     C_3   0.235309 0.005542 0.444271 -0.235833
C89   C     C_R   0.261865 0.642081 0.854972 0.549185
C90   C     C_R   0.738135 0.642081 0.145028 0.549191
C91   C     C_R   0.761865 0.142081 0.854972 0.549191
C92   C     C_R   0.238135 0.142081 0.145028 0.549185
C93   C     C_3   0.316655 0.684978 0.505242 -0.265208
C94   C     C_3   0.683350 0.685045 0.494762 -0.265201
C95   C     C_3   0.816663 0.185043 0.505245 -0.265192
C96   C     C_3   0.183350 0.184977 0.494760 -0.265213
C97   C     C_R   0.278970 0.031530 0.641916 0.578484
C98   C     C_R   0.721087 0.031671 0.358043 0.578626
C99   C     C_R   0.778939 0.531609 0.641939 0.578564
C100  C     C_R   0.221036 0.531543 0.358080 0.578497
C101  C     C_R   0.472163 0.823631 0.647158 0.567346
C102  C     C_R   0.527839 0.823630 0.352843 0.567343
C103  C     C_R   0.972164 0.323631 0.647159 0.567336
C104  C     C_R   0.027839 0.323631 0.352844 0.567363
C105  C     C_R   0.272167 0.679566 0.635990 0.540573
C106  C     C_R   0.727831 0.679578 0.364010 0.540619
C107  C     C_R   0.772168 0.179571 0.635990 0.540612
C108  C     C_R   0.227833 0.179567 0.364010 0.540575
C109  C     C_3   0.479307 0.916188 0.035892 -0.107822
C110  C     C_3   0.520693 0.916188 0.964108 -0.107821
C111  C     C_3   0.979307 0.416188 0.035892 -0.107820
C112  C     C_3   0.020693 0.416188 0.964108 -0.107823
C113  C     C_3   0.431360 0.818622 0.006952 -0.156743
C114  C     C_3   0.568640 0.818622 0.993048 -0.156741
C115  C     C_3   0.931360 0.318622 0.006952 -0.156741
C116  C     C_3   0.068640 0.318622 0.993048 -0.156744
C117  C     C_3   0.472735 0.820216 0.936024 0.055367
C118  C     C_3   0.527265 0.820217 0.063976 0.055368
C119  C     C_3   0.972735 0.320217 0.936024 0.055367
C120  C     C_3   0.027265 0.320217 0.063976 0.055367
Cr1   Cr    Cr6+3 0.229620 0.836040 0.749110 1.011781
Cr2   Cr    Cr6+3 0.770380 0.836040 0.250890 1.011773
Cr3   Cr    Cr6+3 0.729620 0.336040 0.749110 1.011776
Cr4   Cr    Cr6+3 0.270380 0.336040 0.250890 1.011780
Cr5   Cr    Cr6+3 0.387630 0.990680 0.750730 1.008328
Cr6   Cr    Cr6+3 0.612370 0.990680 0.249270 1.008318
Cr7   Cr    Cr6+3 0.887630 0.490680 0.750730 1.008320
Cr8   Cr    Cr6+3 0.112370 0.490680 0.249270 1.008330
Cr9   Cr    Cr6+3 0.386020 0.676590 0.749210 1.011446
Cr10  Cr    Cr6+3 0.613980 0.676590 0.250790 1.011458
Cr11  Cr    Cr6+3 0.886020 0.176590 0.749210 1.011457
Cr12  Cr    Cr6+3 0.113980 0.176590 0.250790 1.011449
H1    H     H_    0.376232 0.805970 0.017662 0.093498
H2    H     H_    0.623768 0.805970 0.982338 0.093497
H3    H     H_    0.876232 0.305970 0.017662 0.093498
H4    H     H_    0.123768 0.305970 0.982338 0.093498
H5    H     H_    0.194535 0.749898 0.082475 0.132915
H6    H     H_    0.805465 0.749898 0.917524 0.132916
H7    H     H_    0.694535 0.249898 0.082475 0.132914
H8    H     H_    0.305465 0.249898 0.917524 0.132916
H9    H     H_    0.286591 0.746388 0.080838 0.115997
H10   H     H_    0.713409 0.746388 0.919162 0.115998
H11   H     H_    0.786591 0.246388 0.080838 0.115997
H12   H     H_    0.213409 0.246388 0.919162 0.115998
H13   H     H_    0.273040 0.794875 0.958173 0.106608
H14   H     H_    0.726960 0.794875 0.041827 0.106608
H15   H     H_    0.773040 0.294875 0.958173 0.106608
H16   H     H_    0.226960 0.294875 0.041827 0.106607
H17   H     H_    0.184554 0.751545 0.961670 0.130698
H18   H     H_    0.815446 0.751546 0.038330 0.130698
H19   H     H_    0.684554 0.251545 0.961670 0.130698
H20   H     H_    0.315446 0.251546 0.038330 0.130698
H21   H     H_    0.632770 0.076968 0.036591 0.139029
H22   H     H_    0.367230 0.076969 0.963409 0.139028
H23   H     H_    0.132770 0.576968 0.036591 0.139028
H24   H     H_    0.867230 0.576969 0.963409 0.139029
H25   H     H_    0.148398 0.553106 0.916593 0.128783
H26   H     H_    0.851602 0.553107 0.083406 0.128787
H27   H     H_    0.648398 0.053106 0.916593 0.128786
H28   H     H_    0.351602 0.053107 0.083406 0.128784
H29   H     H_    0.533418 0.634935 0.440072 0.138830
H30   H     H_    0.466598 0.634933 0.559932 0.138833
H31   H     H_    0.033405 0.134935 0.440070 0.138831
H32   H     H_    0.966592 0.134931 0.559931 0.138831
H33   H     H_    0.612530 0.853395 0.448356 0.096204
H34   H     H_    0.387469 0.853357 0.551644 0.096166
H35   H     H_    0.112537 0.353349 0.448355 0.096165
H36   H     H_    0.887475 0.353417 0.551649 0.096189
H37   H     H_    0.603344 0.870330 0.574591 0.153639
H38   H     H_    0.396661 0.870285 0.425401 0.153628
H39   H     H_    0.103347 0.370278 0.574601 0.153628
H40   H     H_    0.896664 0.370353 0.425414 0.153644
H41   H     H_    0.464280 0.996737 0.065940 0.116311
H42   H     H_    0.535720 0.996737 0.934059 0.116312
H43   H     H_    0.964280 0.496737 0.065940 0.116312
H44   H     H_    0.035720 0.496737 0.934059 0.116311
H45   H     H_    0.430974 0.989348 0.552515 0.130714
H46   H     H_    0.569017 0.989378 0.447483 0.130733
H47   H     H_    0.931000 0.489385 0.552520 0.130724
H48   H     H_    0.069038 0.489345 0.447486 0.130715
H49   H     H_    0.129895 0.650488 0.441283 0.126325
H50   H     H_    0.870100 0.650508 0.558725 0.126345
H51   H     H_    0.629917 0.150537 0.441262 0.126376
H52   H     H_    0.370110 0.150479 0.558713 0.126319
H53   H     H_    0.195770 0.758256 0.430626 0.155931
H54   H     H_    0.804237 0.758302 0.569379 0.155905
H55   H     H_    0.695784 0.258334 0.430622 0.155880
H56   H     H_    0.304236 0.258248 0.569373 0.155936
H57   H     H_    0.167913 0.765858 0.553624 0.126155
H58   H     H_    0.832088 0.765881 0.446379 0.126150
H59   H     H_    0.667917 0.265880 0.553624 0.126159
H60   H     H_    0.332089 0.265858 0.446376 0.126153
H61   H     H_    0.147963 0.618065 0.559514 0.137883
H62   H     H_    0.852034 0.618084 0.440495 0.137888
H63   H     H_    0.647971 0.118083 0.559488 0.137872
H64   H     H_    0.352040 0.118066 0.440481 0.137888
H65   H     H_    0.683990 0.955165 0.492906 0.113801
H66   H     H_    0.316029 0.955100 0.507024 0.113817
H67   H     H_    0.183976 0.455102 0.492969 0.113817
H68   H     H_    0.816018 0.455153 0.507060 0.113807
H69   H     H_    0.732997 0.963465 0.598767 0.166450
H70   H     H_    0.267006 0.963457 0.401184 0.166470
H71   H     H_    0.232993 0.463456 0.598812 0.166465
H72   H     H_    0.766991 0.463472 0.401214 0.166466
H73   H     H_    0.348725 0.554815 0.425483 0.138137
H74   H     H_    0.651264 0.554890 0.574522 0.138126
H75   H     H_    0.848751 0.054900 0.425479 0.138127
H76   H     H_    0.151279 0.054810 0.574516 0.138136
H77   H     H_    0.535612 0.642149 0.934859 0.126905
H78   H     H_    0.464388 0.642149 0.065141 0.126906
H79   H     H_    0.035612 0.142149 0.934859 0.126905
H80   H     H_    0.964388 0.142149 0.065141 0.126906
H81   H     H_    0.309109 0.776168 0.494362 0.128180
H82   H     H_    0.690913 0.776238 0.505635 0.128180
H83   H     H_    0.809106 0.276233 0.494375 0.128183
H84   H     H_    0.190898 0.276168 0.505640 0.128180
H85   H     H_    0.367176 0.667349 0.527068 0.110641
H86   H     H_    0.632829 0.667433 0.472934 0.110648
H87   H     H_    0.867181 0.167426 0.527079 0.110665
H88   H     H_    0.132828 0.167349 0.472934 0.110637
H89   H     H_    0.264012 0.397747 0.459395 0.115690
H90   H     H_    0.735980 0.397795 0.540633 0.115722
H91   H     H_    0.764029 0.897811 0.459343 0.115743
H92   H     H_    0.235993 0.897742 0.540601 0.115685
H93   H     H_    0.318699 0.473680 0.561143 0.130360
H94   H     H_    0.681287 0.473726 0.438885 0.130342
H95   H     H_    0.818709 0.973713 0.561112 0.130349
H96   H     H_    0.181302 0.973680 0.438857 0.130358
H97   H     H_    0.318032 0.434173 0.052707 0.129353
H98   H     H_    0.681968 0.434173 0.947294 0.129353
H99   H     H_    0.818032 0.934173 0.052707 0.129355
H100  H     H_    0.181968 0.934173 0.947294 0.129352
H101  H     H_    0.353943 0.571993 0.072865 0.117912
H102  H     H_    0.646057 0.571992 0.927135 0.117910
H103  H     H_    0.853943 0.071993 0.072865 0.117910
H104  H     H_    0.146057 0.071992 0.927135 0.117912
H105  H     H_    0.365810 0.614816 0.953776 0.136174
H106  H     H_    0.634190 0.614815 0.046224 0.136174
H107  H     H_    0.865810 0.114816 0.953776 0.136174
H108  H     H_    0.134190 0.114816 0.046224 0.136174
H109  H     H_    0.664879 0.936960 0.048085 0.096493
H110  H     H_    0.335121 0.936961 0.951915 0.096491
H111  H     H_    0.164879 0.436960 0.048085 0.096490
H112  H     H_    0.835121 0.436961 0.951915 0.096492
H113  H     H_    0.709122 0.936017 0.925788 0.118600
H114  H     H_    0.290878 0.936018 0.074212 0.118598
H115  H     H_    0.209122 0.436017 0.925788 0.118597
H116  H     H_    0.790878 0.436018 0.074212 0.118600
O1    O     O_R   0.214130 0.708570 0.829890 -0.521769
O2    O     O_R   0.785870 0.708570 0.170110 -0.521765
O3    O     O_R   0.714130 0.208570 0.829890 -0.521766
O4    O     O_R   0.285870 0.208570 0.170110 -0.521769
O5    O     O_R   0.446360 0.919990 0.675230 -0.514063
O6    O     O_R   0.553640 0.919990 0.324770 -0.514027
O7    O     O_R   0.946360 0.419990 0.675230 -0.514048
O8    O     O_R   0.053640 0.419990 0.324770 -0.514056
O9    O     O_R   0.457170 0.717300 0.668380 -0.519277
O10   O     O_R   0.542830 0.717300 0.331620 -0.519277
O11   O     O_R   0.957170 0.217300 0.668380 -0.519279
O12   O     O_R   0.042830 0.217300 0.331620 -0.519271
O13   O     O_R   0.320870 0.624890 0.673130 -0.498378
O14   O     O_R   0.679130 0.624890 0.326870 -0.498376
O15   O     O_R   0.820870 0.124890 0.673130 -0.498369
O16   O     O_R   0.179130 0.124890 0.326870 -0.498380
O17   O     O_3   0.334430 0.834430 0.749680 -0.312766
O18   O     O_3   0.665570 0.834430 0.250320 -0.312724
O19   O     O_3   0.834430 0.334430 0.749680 -0.312743
O20   O     O_3   0.165570 0.334430 0.250320 -0.312764
O21   O     O_R   0.236050 0.959150 0.825270 -0.503488
O22   O     O_R   0.763950 0.959150 0.174730 -0.503512
O23   O     O_R   0.736050 0.459150 0.825270 -0.503503
O24   O     O_R   0.263950 0.459150 0.174730 -0.503490
O25   O     O_R   0.332100 0.076650 0.832310 -0.525912
O26   O     O_R   0.667900 0.076650 0.167690 -0.525930
O27   O     O_R   0.832100 0.576650 0.832310 -0.525921
O28   O     O_R   0.167900 0.576650 0.167690 -0.525914
O29   O     O_R   0.446500 0.918620 0.826240 -0.499808
O30   O     O_R   0.553500 0.918620 0.173760 -0.499810
O31   O     O_R   0.946500 0.418620 0.826240 -0.499812
O32   O     O_R   0.053500 0.418620 0.173760 -0.499805
O33   O     O_R   0.457310 0.715830 0.831280 -0.513102
O34   O     O_R   0.542690 0.715830 0.168720 -0.513105
O35   O     O_R   0.957310 0.215830 0.831280 -0.513105
O36   O     O_R   0.042690 0.215830 0.168720 -0.513099
O37   O     O_R   0.321000 0.623520 0.824130 -0.512853
O38   O     O_R   0.679000 0.623520 0.175870 -0.512857
O39   O     O_R   0.821000 0.123520 0.824130 -0.512853
O40   O     O_R   0.179000 0.123520 0.175870 -0.512854
O41   O     O_R   0.213990 0.710040 0.667000 -0.520586
O42   O     O_R   0.786010 0.710040 0.333000 -0.520564
O43   O     O_R   0.713990 0.210040 0.667000 -0.520569
O44   O     O_R   0.286010 0.210040 0.333000 -0.520585
O45   O     O_R   0.235920 0.960520 0.674260 -0.503871
O46   O     O_R   0.764080 0.960520 0.325740 -0.503954
O47   O     O_R   0.735920 0.460520 0.674260 -0.503925
O48   O     O_R   0.264080 0.460520 0.325740 -0.503879
O49   O     O_R   0.331960 0.078120 0.669410 -0.518081
O50   O     O_R   0.668040 0.078120 0.330590 -0.518166
O51   O     O_R   0.831960 0.578120 0.669410 -0.518127
O52   O     O_R   0.168040 0.578120 0.330590 -0.518091
H117  H     H_    0.447106 0.670290 0.442746 0.140973
H118  H     H_    0.552906 0.670304 0.557260 0.140967
H119  H     H_    0.947098 0.170309 0.442744 0.140982
H120  H     H_    0.052901 0.170294 0.557255 0.140969
H121  H     H_    0.449137 0.995892 0.432050 0.115741
H122  H     H_    0.550851 0.995914 0.567947 0.115749
H123  H     H_    0.949164 0.495925 0.432058 0.115745
H124  H     H_    0.050875 0.495889 0.567953 0.115738
I1    I     I_    0.328294 0.737018 0.335712 -0.451852
I2    I     I_    0.671703 0.737093 0.664295 -0.451900
I3    I     I_    0.828332 0.237110 0.335706 -0.451967
I4    I     I_    0.171715 0.237011 0.664289 -0.451836
H125  H     H_    0.333815 0.470740 0.933202 0.121945
H126  H     H_    0.666184 0.470740 0.066798 0.121944
H127  H     H_    0.833816 0.970740 0.933202 0.121945
H128  H     H_    0.166184 0.970740 0.066798 0.121944

loop_
_geom_bond_atom_site_label_1
_geom_bond_atom_site_label_2
_ccdc_geom_bond_type
C4    O24   A    
C89   O37   A    
C82   C94   S    
C55   C59   S    
C91   O39   A    
C21   H5    S    
C42   C58   S    
C29   C89   S    
C48   O36   A    
C75   C95   S    
C48   C120  S    
Cr5   O25   S    
C24   H8    S    
C57   C102  S    
Cr6   O30   S    
Cr7   O19   S    
C59   C104  S    
C63   H55   S    
C5    C6    S    
C109  H41   S    
Cr11  O19   S    
C22   C38   S    
C29   C33   S    
C30   C38   S    
C77   C100  S    
C9    C13   S    
C75   H75   S    
C12   C16   S    
C101  O9    A    
C95   H87   S    
C71   H65   S    
C73   C93   S    
C60   C103  S    
C100  O48   A    
C92   O4    A    
C113  H1    S    
C54   H37   S    
C23   H11   S    
C66   H62   S    
C47   O31   A    
C109  C118  S    
Cr8   O52   S    
C48   O32   A    
C11   H103  S    
C94   H82   S    
C50   C53   S    
C63   H51   S    
C9    H101  S    
C7    C119  S    
C71   H91   S    
Cr1   O17   S    
C62   C66   S    
C13   H105  S    
C20   C28   S    
C96   H88   S    
Cr4   O20   S    
C101  O5    A    
C43   C44   S    
C2    O26   A    
C90   O2    A    
C11   C27   S    
C58   C101  S    
C53   H38   S    
C65   H57   S    
C45   O29   A    
C56   H39   S    
C19   H21   S    
C55   H123  S    
C17   H23   S    
C55   H40   S    
C18   H24   S    
C70   H68   S    
Cr5   O17   S    
C3    C26   S    
C84   C88   S    
Cr7   O27   S    
Cr4   O44   S    
C9    C25   S    
C96   H84   S    
C17   C25   S    
Cr9   O37   S    
C19   C35   S    
C76   C96   S    
C32   C92   S    
C108  O16   A    
C69   H89   S    
C14   H126  S    
C105  O41   A    
C99   O51   A    
C19   H109  S    
C21   H9    S    
C61   C65   S    
C17   H111  S    
C78   C99   S    
C73   C77   S    
C88   H70   S    
C75   C79   S    
C76   H76   S    
C72   H92   S    
C67   C83   S    
C15   H107  S    
C80   C97   S    
Cr1   O45   S    
C69   C77   S    
C111  C112  S    
Cr2   O42   S    
Cr10  O38   S    
Cr3   O47   S    
Cr11  O35   S    
C4    C25   S    
C7    C8    S    
Cr12  O12   S    
Cr7   O7    S    
C64   C68   S    
C44   C60   S    
Cr9   O9    S    
C1    O21   A    
C39   H19   S    
C10   H98   S    
C49   C57   S    
C40   H20   S    
C93   H85   S    
C38   H14   S    
C52   C60   S    
C46   O30   A    
C15   H127  S    
C61   C77   S    
C90   O38   A    
C110  C114  S    
C43   C59   S    
C62   H54   S    
C75   I3    S    
Cr6   O26   S    
C11   C15   S    
Cr10  O10   S    
Cr11  O15   S    
C110  H42   S    
C81   C105  S    
C30   C34   S    
C6    H78   S    
C10   C14   S    
C85   H71   S    
C102  O10   A    
C53   H121  S    
C7    C116  S    
Cr5   O5    S    
Cr3   O19   S    
Cr2   O2    S    
C22   H10   S    
C61   H53   S    
C114  H2    S    
Cr6   O6    S    
C64   H56   S    
C47   O35   A    
C113  C117  S    
C112  H44   S    
C115  C119  S    
C74   C78   S    
C46   O34   A    
C85   H93   S    
Cr1   O21   S    
C112  C116  S    
Cr3   O43   S    
Cr2   O18   S    
Cr3   O23   S    
C73   H73   S    
Cr4   O24   S    
C62   C78   S    
C76   C80   S    
C7    H79   S    
C42   H30   S    
C15   C31   S    
C16   C32   S    
C5    H77   S    
C31   C91   S    
C52   H47   S    
C72   C80   S    
C108  O44   A    
C88   H96   S    
C115  H3    S    
C66   H58   S    
Cr8   O8    S    
C82   C106  S    
Cr7   O51   S    
C64   H52   S    
C51   C59   S    
C16   H108  S    
Cr6   O18   S    
Cr7   O31   S    
Cr4   O48   S    
Cr8   O32   S    
C81   C85   S    
C98   O50   A    
C83   C87   S    
C41   H29   S    
C103  O7    A    
C41   C42   S    
C74   C94   S    
C18   C26   S    
C30   C90   S    
C11   H99   S    
C69   C85   S    
C91   O3    A    
C20   H110  S    
C89   O1    A    
C12   C28   S    
C97   O45   A    
C13   C29   S    
C99   O47   A    
C106  O42   A    
C74   H74   S    
C116  C120  S    
C45   C117  S    
C95   H83   S    
C46   C118  S    
C104  O12   A    
C21   C25   S    
C76   I4    S    
C51   H35   S    
C50   H34   S    
C1    C28   S    
C2    C27   S    
Cr2   O46   S    
C73   I1    S    
C52   C55   S    
Cr12  O16   S    
C64   C80   S    
C17   C33   S    
Cr9   O13   S    
C110  C117  S    
C71   C79   S    
C33   H25   S    
C65   H61   S    
C2    O22   A    
C10   H102  S    
C35   H113  S    
C40   H16   S    
C93   H81   S    
C68   C84   S    
C24   C28   S    
C50   H45   S    
C97   O49   A    
C14   H106  S    
C53   C57   S    
C82   C86   S    
C43   H119  S    
C56   C60   S    
C102  O6    A    
C50   C58   S    
C49   H33   S    
C62   H50   S    
Cr5   O49   S    
C65   C81   S    
C38   H18   S    
Cr8   O20   S    
C68   H64   S    
C3    O27   A    
Cr10  O14   S    
C71   C87   S    
Cr12  O36   S    
C87   H95   S    
C54   C58   S    
C31   C35   S    
C32   C36   S    
Cr9   O17   S    
C49   H46   S    
C16   H128  S    
C103  O11   A    
C37   H17   S    
C112  C119  S    
C116  H4    S    
C22   H6    S    
C61   H49   S    
C41   C57   S    
C109  C110  S    
Cr5   O29   S    
C24   H12   S    
C70   H90   S    
C33   H115  S    
Cr2   O22   S    
C72   H66   S    
Cr10  O18   S    
C44   H120  S    
C84   C108  S    
C21   C37   S    
Cr4   O4    S    
C22   C26   S    
C29   C37   S    
C44   H32   S    
C87   H69   S    
C43   H31   S    
C5    C114  S    
C70   C78   S    
C36   H114  S    
C79   C98   S    
C106  O14   A    
C92   O40   A    
C3    O23   A    
C63   C79   S    
C20   H22   S    
C111  H43   S    
C23   H7    S    
C67   H59   S    
C66   C82   S    
C68   H60   S    
C49   C54   S    
C94   H86   S    
C9    H97   S    
C51   C56   S    
C84   C96   S    
Cr8   O28   S    
C8    C115  S    
C83   C107  S    
C23   C27   S    
C100  O52   A    
C19   C27   S    
C1    O25   A    
C109  C113  S    
C10   C26   S    
C47   C119  S    
C98   O46   A    
C14   C30   S    
C67   H63   S    
C72   C88   S    
C107  O43   A    
C12   H100  S    
C63   C67   S    
C45   O33   A    
C4    O28   A    
C56   H124  S    
C41   H117  S    
C20   C36   S    
C5    C117  S    
C111  C120  S    
C6    C113  S    
Cr3   O3    S    
C74   I2    S    
Cr12  O20   S    
C81   C93   S    
Cr1   O1    S    
C83   C95   S    
Cr9   O33   S    
C18   C34   S    
C114  C118  S    
C34   H26   S    
C34   H116  S    
C86   H94   S    
Cr11  O11   S    
C13   H125  S    
C51   H48   S    
C70   C86   S    
C86   H72   S    
C8    C120  S    
C42   H118  S    
C12   H104  S    
C54   H122  S    
C111  C115  S    
Cr6   O50   S    
C104  O8    A    
Cr1   O41   S    
Cr10  O34   S    
C8    H80   S    
C52   H36   S    
Cr11  O39   S    
Cr12  O40   S    
C23   C39   S    
C18   H112  S    
C24   C40   S    
C31   C39   S    
C32   C40   S    
C35   H27   S    
C36   H28   S    
C105  O13   A    
C39   H15   S    
C69   H67   S    
C107  O15   A    
C37   H13   S    
C6    C118  S    
