data_mof_unit_25288.cif
_audit_creation_date              2012-10-26T19:18:49-0400
_audit_creation_method            fapswitch 2.2
_symmetry_space_group_name_H-M    P1
_symmetry_Int_Tables_number       1
_space_group_crystal_system       triclinic
_cell_length_a                    9.742739
_cell_length_b                    10.951522
_cell_length_c                    15.416036
_cell_angle_alpha                 91.304222
_cell_angle_beta                  73.376225
_cell_angle_gamma                 89.615633
_cell_volume                      1575.55052421

loop_
_atom_site_label
_atom_site_type_symbol
_atom_type_description
_atom_site_fract_x
_atom_site_fract_y
_atom_site_fract_z
_atom_type_partial_charge
C1    C     C_R   0.999681 0.265540 0.502199 0.545690
C2    C     C_R   0.221722 0.495051 0.037428 -0.000380
C3    C     C_R   0.321458 0.506443 0.088073 -0.026718
C4    C     C_R   0.916406 0.507729 0.672303 0.557574
C5    C     C_R   0.074892 0.488969 0.083353 -0.155915
C6    C     C_R   0.028961 0.494955 0.177881 -0.221634
C7    C     C_R   0.275401 0.476290 0.180417 0.291792
C8    C     C_2   0.883138 0.934548 0.528211 -0.171860
C9    C     C_2   0.002565 0.866511 0.496391 -0.126721
C10   C     C_2   0.882211 0.067922 0.520967 -0.166774
C11   C     C_2   0.001090 0.133816 0.509405 -0.124946
C12   C     C_R   0.662695 0.546061 0.906083 0.001825
C13   C     C_2   0.435622 0.409023 0.471784 -0.014587
C14   C     C_2   0.581203 0.403448 0.487356 0.026225
C15   C     C_R   0.999663 0.734557 0.500267 0.539408
C16   C     C_R   0.083493 0.495139 0.327379 0.546705
C17   C     C_R   0.867753 0.534020 0.770726 0.003796
C18   C     C_R   0.129381 0.489500 0.227453 -0.013874
C19   C     C_R   0.894834 0.622969 0.910412 -0.105333
C20   C     C_R   0.952736 0.598669 0.816228 0.304695
C21   C     C_R   0.725431 0.507748 0.816099 -0.179763
C22   C     C_3   0.641530 0.634948 0.395206 0.081607
C23   C     C_R   0.751594 0.596885 0.954847 -0.052207
C24   C     C_3   0.687752 0.768460 0.381004 -0.248215
C25   C     C_3   0.821231 0.782245 0.300671 -0.468771
C26   C     C_3   0.439721 0.318738 0.175660 0.025081
C27   C     C_3   0.338167 0.216843 0.162810 -0.288271
C28   C     C_3   0.418517 0.122339 0.091836 -0.491287
C29   C     C_3   0.191230 0.352710 0.852550 0.013758
C30   C     C_3   0.272330 0.354836 0.751169 -0.250918
C31   C     C_3   0.247643 0.239439 0.700723 -0.471680
C32   C     C_3   0.147336 0.734761 0.800388 0.025995
C33   C     C_3   0.065108 0.853686 0.795892 -0.283777
C34   C     C_R   0.514779 0.530961 0.949373 -0.055758
C35   C     C_3   0.123044 0.960167 0.839723 -0.496290
C36   C     C_3   0.412915 0.722708 0.206877 0.021917
C37   C     C_3   0.492871 0.842855 0.204530 -0.287618
C38   C     C_3   0.402155 0.937655 0.271076 -0.490858
C39   C     C_R   0.463425 0.543689 0.044834 -0.000391
C40   C     C_R   0.554122 0.597627 0.092976 0.285906
C41   C     C_R   0.696171 0.622926 0.047373 -0.121990
C42   C     C_R   0.416215 0.507546 0.899600 -0.128714
C43   C     C_R   0.271188 0.489456 0.942579 0.250706
Cu1   Cu    Cu3+1 0.138640 0.500020 0.499980 0.965860
Cu2   Cu    Cu3+1 0.861360 0.499980 0.500020 0.967962
H1    H     H_    0.995405 0.484258 0.046678 0.161068
H2    H     H_    0.547428 0.621592 0.369079 0.161672
H3    H     H_    0.725917 0.571956 0.353835 0.162160
H4    H     H_    0.598402 0.824193 0.370916 0.121373
H5    H     H_    0.710016 0.807001 0.442314 0.200274
H6    H     H_    0.915463 0.739181 0.315224 0.170124
H7    H     H_    0.843282 0.880673 0.288458 0.134355
H8    H     H_    0.805862 0.738416 0.238539 0.135829
H9    H     H_    0.508439 0.280987 0.215280 0.134476
H10   H     H_    0.515095 0.343143 0.109846 0.138593
H11   H     H_    0.290820 0.172917 0.228643 0.153672
H12   H     H_    0.779702 0.112607 0.527597 0.137812
H13   H     H_    0.248514 0.253148 0.139541 0.163139
H14   H     H_    0.449265 0.163178 0.023750 0.146941
H15   H     H_    0.348646 0.043036 0.090538 0.146290
H16   H     H_    0.517156 0.090551 0.107242 0.144802
H17   H     H_    0.915159 0.498914 0.211889 0.134278
H18   H     H_    0.081167 0.318972 0.860266 0.148468
H19   H     H_    0.243256 0.285763 0.887275 0.108345
H20   H     H_    0.237136 0.434844 0.719914 0.241384
H21   H     H_    0.389030 0.362514 0.742094 0.131311
H22   H     H_    0.289598 0.158478 0.727322 0.135186
H23   H     H_    0.403626 0.332588 0.436380 0.133196
H24   H     H_    0.305283 0.245980 0.627628 0.152941
H25   H     H_    0.131708 0.228155 0.707890 0.153493
H26   H     H_    0.958162 0.664033 0.950100 0.107488
H27   H     H_    0.258725 0.745368 0.756490 0.152340
H28   H     H_    0.159841 0.719314 0.868563 0.148963
H29   H     H_    0.076126 0.873857 0.723876 0.171854
H30   H     H_    0.949338 0.844913 0.831399 0.156674
H31   H     H_    0.105258 0.944399 0.913030 0.142377
H32   H     H_    0.066464 0.045932 0.832326 0.143279
H33   H     H_    0.239551 0.970367 0.806885 0.142086
H34   H     H_    0.763908 0.662367 0.085247 0.106562
H35   H     H_    0.664716 0.455340 0.780027 0.123418
H36   H     H_    0.342403 0.708576 0.276519 0.178308
H37   H     H_    0.340498 0.728849 0.162725 0.103041
H38   H     H_    0.594110 0.827410 0.221746 0.178439
H39   H     H_    0.521284 0.877819 0.134704 0.139896
H40   H     H_    0.300262 0.955372 0.254531 0.146834
H41   H     H_    0.462313 0.023967 0.267587 0.144012
H42   H     H_    0.376888 0.904755 0.341453 0.142993
H43   H     H_    0.447708 0.512497 0.826878 0.124939
H44   H     H_    0.781347 0.891413 0.558884 0.142461
H45   H     H_    0.105837 0.906458 0.465309 0.094447
H46   H     H_    0.102365 0.092154 0.509246 0.098324
H47   H     H_    0.367392 0.558235 0.547930 0.268107
H48   H     H_    0.632043 0.314168 0.481490 0.081331
N1    N     N_2   0.346430 0.498660 0.500980 -0.337918
N2    N     N_2   0.652550 0.498630 0.501000 -0.041109
O1    O     O_R   0.117050 0.321960 0.499980 -0.511895
O2    O     O_3   0.366887 0.423294 0.224222 -0.512918
O3    O     O_3   0.176619 0.472394 0.891510 -0.573153
O4    O     O_3   0.090141 0.632301 0.765741 -0.548935
O5    O     O_3   0.510133 0.622407 0.185353 -0.550717
O6    O     O_R   0.882890 0.321920 0.500020 -0.516639
O7    O     O_R   0.052910 0.500040 0.629810 -0.462748
O8    O     O_R   0.818750 0.499990 0.629840 -0.503309
O9    O     O_R   0.117110 0.678080 0.499980 -0.499960
O10   O     O_R   0.882950 0.678040 0.500020 -0.468807
O11   O     O_R   0.181250 0.500010 0.370160 -0.436369
O12   O     O_R   0.947090 0.499960 0.370190 -0.535526
O13   O     O_3   0.600466 0.609939 0.489039 -0.500601

loop_
_geom_bond_atom_site_label_1
_geom_bond_atom_site_label_2
_ccdc_geom_bond_type
C22   H3    S    
C29   H18   S    
C19   H26   S    
C19   C20   A    
C1    C11   S    
C43   O3    S    
C26   H10   S    
Cu1   O9    S    
C32   H27   S    
C31   H22   S    
C12   C23   A    
C26   C27   S    
C37   C38   S    
C29   O3    S    
C38   H41   S    
C36   C37   S    
C25   H8    S    
C3    C7    A    
C30   C31   S    
C4    O8    A    
C17   C20   A    
Cu2   O8    S    
C16   O12   A    
C33   H30   S    
C31   H25   S    
C36   H37   S    
C8    C9    D    
C4    O7    A    
C37   H39   S    
C15   O9    A    
C2    C43   A    
C14   H48   S    
C16   O11   A    
C28   H16   S    
C22   H2    S    
C29   H19   S    
C3    C39   A    
C13   C14   S    
C26   H9    S    
Cu2   O10   S    
C28   H15   S    
C24   H5    S    
C6    C18   A    
C35   H31   S    
C34   C42   A    
C38   H40   S    
C34   C39   A    
C10   H12   S    
C24   C25   S    
N2    O13   S    
C39   C40   A    
Cu1   O7    S    
C27   H11   S    
C12   C21   A    
C35   H32   S    
C17   C21   A    
C19   C23   A    
C25   H6    S    
C40   O5    S    
C29   C30   S    
Cu1   O1    S    
C36   H36   S    
C7    C18   A    
H47   N1    S    
C36   O5    S    
C30   H21   S    
Cu2   O6    S    
C4    C17   S    
C16   C18   S    
C40   C41   A    
C22   C24   S    
C2    C5    A    
C42   H43   S    
C42   C43   A    
C12   C34   A    
Cu2   N2    S    
C1    O6    A    
C14   N2    D    
C32   H28   S    
Cu1   Cu2   S    
C28   H14   S    
C24   H4    S    
C7    O2    S    
C27   H13   S    
C9    H45   S    
C41   H34   S    
Cu1   O11   S    
C5    H1    S    
C38   H42   S    
C35   H33   S    
C23   C41   A    
C32   O4    S    
C13   N1    D    
C32   C33   S    
C6    H17   S    
C2    C3    A    
C9    C15   S    
C25   H7    S    
C15   O10   A    
C5    C6    A    
C20   O4    S    
C1    O1    A    
C22   O13   S    
C21   H35   S    
C33   C35   S    
C30   H20   S    
Cu1   N1    S    
C10   C11   D    
C26   O2    S    
C11   H46   S    
C33   H29   S    
C31   H24   S    
C8    C10   S    
C27   C28   S    
C37   H38   S    
C8    H44   S    
Cu2   O12   S    
C13   H23   S    
