data_mof_unit_29971.cif
_audit_creation_date              2012-12-11T17:09:24-0500
_audit_creation_method            fapswitch 2.2
_symmetry_space_group_name_H-M    P1
_symmetry_Int_Tables_number       1
_space_group_crystal_system       triclinic
_cell_length_a                    14.81032
_cell_length_b                    6.931425
_cell_length_c                    13.515362
_cell_angle_alpha                 89.999954
_cell_angle_beta                  99.84066
_cell_angle_gamma                 90.000017
_cell_volume                      1367.02779387

loop_
_atom_site_label
_atom_site_type_symbol
_atom_type_description
_atom_site_fract_x
_atom_site_fract_y
_atom_site_fract_z
_atom_type_partial_charge
O1    O     O_R   0.586930 0.505770 0.416350 -0.537996
O2    O     O_R   0.413070 0.005770 0.583650 -0.537996
O3    O     O_R   0.397900 0.173100 0.389630 -0.538488
O4    O     O_R   0.602100 0.673100 0.610370 -0.538488
C1    C     C_R   0.364349 0.345434 0.362753 0.775517
C2    C     C_R   0.635651 0.845434 0.637247 0.775518
O5    O     O_R   0.585280 0.175870 0.404330 -0.528483
O6    O     O_R   0.414720 0.675870 0.595670 -0.528483
O7    O     O_R   0.601790 0.008380 0.598460 -0.531610
O8    O     O_R   0.398210 0.508380 0.401540 -0.531610
C3    C     C_R   0.614773 0.344813 0.382901 0.713819
C4    C     C_R   0.385227 0.844813 0.617099 0.713818
O9    O     O_3   0.505200 0.340120 0.563670 -0.372305
O10   O     O_3   0.494800 0.840120 0.436330 -0.372305
V1    V     V_3+5 0.499040 0.064180 0.488190 1.501292
V2    V     V_3+5 0.500960 0.564180 0.511810 1.501292
C5    C     C_R   0.251087 0.005067 0.675682 0.133399
C6    C     C_R   0.748913 0.505067 0.324318 0.133399
C7    C     C_R   0.314136 0.852793 0.682151 -0.142224
C8    C     C_R   0.685864 0.352793 0.317849 -0.142225
C9    C     C_R   0.304563 0.702522 0.749798 -0.124993
C10   C     C_R   0.695437 0.202522 0.250202 -0.124992
H1    H     H_    0.351088 0.581278 0.757087 0.122634
H2    H     H_    0.648912 0.081278 0.242913 0.122634
C11   C     C_R   0.238879 0.713477 0.813765 -0.177054
C12   C     C_R   0.761121 0.213477 0.186235 -0.177054
H3    H     H_    0.236617 0.599803 0.868091 0.117351
H4    H     H_    0.763382 0.099803 0.131909 0.117351
C13   C     C_R   0.181197 0.875664 0.812534 -0.108068
C14   C     C_R   0.818803 0.375664 0.187466 -0.108069
C15   C     C_R   0.186686 0.016700 0.739641 0.072247
C16   C     C_R   0.813314 0.516700 0.260359 0.072247
C17   C     C_3   0.198104 0.229495 0.751237 -0.436001
C18   C     C_3   0.801896 0.729495 0.248763 -0.436000
C19   C     C_3   0.267944 0.217011 0.680953 0.232482
C20   C     C_3   0.732056 0.717011 0.319047 0.232482
H5    H     H_    0.229041 0.269825 0.829229 0.121950
H6    H     H_    0.770958 0.769825 0.170771 0.121950
H7    H     H_    0.134424 0.308942 0.719872 0.226602
H8    H     H_    0.865576 0.808943 0.280128 0.226602
H9    H     H_    0.339117 0.253559 0.716681 0.062981
H10   H     H_    0.660883 0.753558 0.283318 0.062981
C21   C     C_1   0.783486 0.877111 0.782834 -0.170058
C22   C     C_1   0.216514 0.377111 0.217166 -0.170058
C23   C     C_1   0.716175 0.860130 0.716821 -0.148415
C24   C     C_1   0.283825 0.360130 0.283179 -0.148415
O11   O     O_R   0.101720 0.231700 0.098560 -0.536700
O12   O     O_R   0.898280 0.731700 0.901440 -0.536700
O13   O     O_R   0.914700 0.558980 0.095690 -0.541583
O14   O     O_R   0.085300 0.058980 0.904310 -0.541583
C25   C     C_R   0.885142 0.389700 0.117031 0.708747
C26   C     C_R   0.114858 0.889700 0.882969 0.708748
O15   O     O_R   0.102080 0.561590 0.110390 -0.536627
O16   O     O_R   0.897920 0.061590 0.889610 -0.536627
O17   O     O_R   0.086950 0.728940 0.916330 -0.540818
O18   O     O_R   0.913050 0.228940 0.083670 -0.540818
C27   C     C_R   0.136055 0.391907 0.137501 0.734100
C28   C     C_R   0.863945 0.891907 0.862499 0.734100
O19   O     O_3   0.994770 0.394510 0.936380 -0.367419
O20   O     O_3   0.005230 0.894510 0.063620 -0.367419
V3    V     V_3+5 0.000970 0.670520 0.011800 1.439744
V4    V     V_3+5 0.999030 0.170520 0.988200 1.439744
Cl1   Cl    Cl    0.230151 0.330453 0.562585 -0.624023
Cl2   Cl    Cl    0.769849 0.830454 0.437414 -0.624023

loop_
_geom_bond_atom_site_label_1
_geom_bond_atom_site_label_2
_ccdc_geom_bond_type
O4    V2    S    
O5    C3    A    
C14   C25   S    
C15   C17   S    
O9    V2    S    
O12   C28   A    
C7    C9    A    
C2    C23   S    
O11   C27   A    
O16   V4    S    
C1    C24   S    
C20   H10   S    
O1    C3    A    
C26   O17   A    
C22   C27   S    
O6    C4    A    
O2    C4    A    
C2    O7    A    
O5    V1    S    
O7    V1    S    
O3    V1    S    
C1    O8    A    
C13   C15   A    
O1    V2    S    
O8    V2    S    
C14   C16   A    
O2    V1    S    
C21   C23   T    
O12   V3    S    
C17   H7    S    
C6    C20   S    
O11   V4    S    
C19   H9    S    
O17   V3    S    
C4    C7    S    
O20   V4    S    
C12   H4    S    
C17   C19   S    
C18   C20   S    
C8    C10   A    
C12   C14   A    
O18   V4    S    
O9    V1    S    
C9    H1    S    
C11   C13   A    
C11   H3    S    
C5    C15   A    
O10   V2    S    
C3    C8    S    
O19   V3    S    
O14   V4    S    
C6    C16   A    
C20   Cl2   S    
O13   V3    S    
C6    C8    A    
O4    C2    A    
C25   O18   A    
C10   C12   A    
C10   H2    S    
O16   C28   A    
O14   C26   A    
C9    C11   A    
O10   V1    S    
C18   H8    S    
O19   V4    S    
O15   C27   A    
O6    V2    S    
C5    C19   S    
C21   C28   S    
C5    C7    A    
C18   H6    S    
O15   V3    S    
C19   Cl1   S    
C17   H5    S    
O13   C25   A    
C22   C24   T    
O20   V3    S    
O3    C1    A    
C13   C26   S    
C16   C18   S    
