data_mof_unit_51493.cif
_audit_creation_date              2013-03-05T16:11:43-0500
_audit_creation_method            fapswitch 2.2
_symmetry_space_group_name_H-M    P1
_symmetry_Int_Tables_number       1
_space_group_crystal_system       triclinic
_cell_length_a                    10.844535
_cell_length_b                    9.832871
_cell_length_c                    10.493308
_cell_angle_alpha                 89.610272
_cell_angle_beta                  89.951589
_cell_angle_gamma                 90.009244
_cell_volume                      1118.90570637

loop_
_atom_site_label
_atom_site_type_symbol
_atom_site_description
_atom_site_fract_x
_atom_site_fract_y
_atom_site_fract_z
_atom_type_partial_charge
O1    O     O_R   0.316770 0.614620 0.499990 -0.577148
O2    O     O_R   0.683230 0.385380 0.500010 -0.569875
O3    O     O_R   0.683230 0.614620 0.500010 -0.577587
O4    O     O_R   0.316770 0.385380 0.499990 -0.569513
C1    C     C_R   0.872611 0.500694 0.502874 -0.428683
C2    C     C_R   0.127374 0.500641 0.498668 -0.428230
C3    C     C_R   0.259824 0.500118 0.498974 0.964102
C4    C     C_R   0.740168 0.500129 0.501468 0.963131
O5    O     O_R   0.499970 0.614650 0.313950 -0.644124
O6    O     O_R   0.500030 0.385350 0.686050 -0.643243
O7    O     O_R   0.500030 0.614650 0.686050 -0.638577
O8    O     O_R   0.499970 0.385350 0.313950 -0.637693
C5    C     C_R   0.499965 0.500520 0.257189 0.836731
C6    C     C_R   0.500035 0.499454 0.742807 0.836361
Zn1   Zn    Zn3+2 0.500000 0.653120 0.500000 0.964955
Zn2   Zn    Zn3+2 0.500000 0.346880 0.500000 0.959626
H1    H     H_    0.438080 0.124696 0.691241 0.132050
H2    H     H_    0.559669 0.875239 0.308026 0.122976
H3    H     H_    0.561974 0.127338 0.308726 0.137764
H4    H     H_    0.440235 0.872592 0.691990 0.129496
N1    N     N_R   0.500000 0.857200 0.500000 -0.062772
N2    N     N_R   0.500000 0.142800 0.500000 -0.071913
C7    C     C_3   0.499895 0.629884 0.039175 -0.141723
C8    C     C_3   0.500103 0.369950 0.960798 -0.140193
C9    C     C_3   0.601479 0.564113 0.957033 -0.192230
C10   C     C_3   0.398508 0.435700 0.042961 -0.181436
C11   C     C_3   0.398430 0.563902 0.957163 -0.185639
C12   C     C_3   0.601550 0.435930 0.042820 -0.196024
H5    H     H_    0.315950 0.615730 0.917231 0.111689
H6    H     H_    0.684065 0.384112 0.082662 0.122618
H7    H     H_    0.499844 0.735795 0.075229 0.130010
H8    H     H_    0.500265 0.264051 0.924702 0.129881
H9    H     H_    0.683954 0.616052 0.917066 0.126560
H10   H     H_    0.316101 0.383644 0.082967 0.118628
C13   C     C_3   0.500024 0.498318 0.877741 0.053145
C14   C     C_3   0.499966 0.501538 0.122247 0.052427
C15   C     C_R   0.465886 0.071137 0.606280 -0.101989
C16   C     C_R   0.532712 0.928817 0.393270 -0.069755
C17   C     C_R   0.534101 0.072631 0.393709 -0.099914
C18   C     C_R   0.467243 0.927321 0.606715 -0.066737
C19   C     C_R   0.062845 0.376614 0.491499 0.317709
C20   C     C_R   0.936707 0.625081 0.494928 0.318792
C21   C     C_R   0.937029 0.376550 0.510418 0.315712
C22   C     C_R   0.063387 0.624895 0.507397 0.319103
O9    O     O_3   0.121858 0.253833 0.471181 -0.561838
C23   C     C_3   0.119717 0.227805 0.338812 0.142450
H11   H     H_    0.160950 0.313783 0.283446 0.109842
H12   H     H_    0.023514 0.210810 0.305468 0.142554
C24   C     C_3   0.194891 0.101010 0.310748 -0.822380
H13   H     H_    0.157966 0.012227 0.364188 0.278591
H14   H     H_    0.191574 0.078834 0.207197 0.188119
H15   H     H_    0.292020 0.117820 0.338798 0.269233
O10   O     O_3   0.876839 0.749265 0.487231 -0.563507
C25   C     C_3   0.878978 0.795748 0.359326 0.145449
H16   H     H_    0.802043 0.748140 0.305610 0.130380
H17   H     H_    0.967446 0.773052 0.309284 0.132724
C26   C     C_3   0.862225 0.949190 0.357210 -0.797152
H18   H     H_    0.941514 0.998502 0.404565 0.283068
H19   H     H_    0.855965 0.986630 0.257364 0.181844
H20   H     H_    0.777481 0.977682 0.409280 0.273061
O11   O     O_3   0.877901 0.253592 0.531138 -0.562973
C27   C     C_3   0.879627 0.226394 0.663649 0.143269
H21   H     H_    0.838367 0.311952 0.718485 0.115294
H22   H     H_    0.975723 0.208924 0.697327 0.142950
C28   C     C_3   0.804155 0.099478 0.692164 -0.823524
H23   H     H_    0.841314 0.010982 0.639633 0.277620
H24   H     H_    0.806851 0.076648 0.795897 0.188557
H25   H     H_    0.707199 0.116537 0.663393 0.268607
O12   O     O_3   0.123335 0.748866 0.516002 -0.562902
C29   C     C_3   0.121901 0.791999 0.644374 0.145953
H26   H     H_    0.199466 0.743467 0.696978 0.126685
H27   H     H_    0.033910 0.767437 0.694890 0.130347
C30   C     C_3   0.137930 0.945493 0.647925 -0.797392
H28   H     H_    0.057961 0.995564 0.601900 0.281701
H29   H     H_    0.144933 0.980319 0.748087 0.182129
H30   H     H_    0.222055 0.975926 0.595333 0.272773

loop_
_geom_bond_atom_site_label_1
_geom_bond_atom_site_label_2
_geom_bond_distance
_ccdc_geom_bond_type
C1    C20   1.408649 A    
C11   H5    1.110498 S    
C30   H29   1.110282 S    
C30   H28   1.106948 S    
O10   C25   1.415058 S    
C9    C12   1.543869 S    
C23   C24   1.520079 S    
C10   C11   1.544090 S    
C8    C10   1.543168 S    
C15   C18   1.414186 A    
C20   O10   1.384954 S    
C16   C17   1.414217 A    
H4    C18   1.081217 S    
O7    C6    1.276147 A    
C26   H19   1.110275 S    
C28   H24   1.110313 S    
C7    C14   1.528913 S    
O5    C5    1.274062 A    
C27   H22   1.113660 S    
C25   H16   1.112291 S    
O7    Zn1   1.986061 S    
C10   H10   1.110482 S    
N1    C16   1.365490 A    
O8    Zn2   1.986062 S    
C24   H14   1.110324 S    
C2    C19   1.408441 A    
C29   H26   1.112338 S    
O1    Zn1   2.022726 S    
C7    C11   1.543120 S    
O2    Zn2   2.022725 S    
C24   H15   1.106601 S    
C1    C21   1.408340 A    
C2    C22   1.408654 A    
C19   C21   1.378614 A    
O12   C29   1.415057 S    
C20   C22   1.380110 A    
O4    C3    1.286238 A    
C23   H12   1.113609 S    
C25   H17   1.116600 S    
C8    C13   1.528997 S    
C5    C14   1.415954 S    
O3    C4    1.284085 A    
O6    C6    1.273817 A    
C6    C13   1.415875 S    
C26   H20   1.105864 S    
C11   C13   1.526510 S    
O9    C23   1.414291 S    
N2    C15   1.365891 A    
C7    H7    1.110423 S    
O4    Zn2   2.022845 S    
C8    H8    1.110459 S    
C27   H21   1.115939 S    
C28   H25   1.106669 S    
C29   C30   1.519947 S    
C22   O12   1.384945 S    
H1    C15   1.081234 S    
H3    C17   1.081166 S    
C9    C13   1.526431 S    
C10   C14   1.526597 S    
C24   H13   1.108950 S    
C30   H30   1.105985 S    
O3    Zn1   2.022844 S    
C21   O11   1.384238 S    
C23   H11   1.115778 S    
Zn2   N2    2.006692 S    
C27   C28   1.520186 S    
O1    C3    1.284152 A    
O2    C4    1.286314 A    
C8    C12   1.543037 S    
C1    C4    1.436382 S    
C2    C3    1.436369 S    
C12   H6    1.110409 S    
H2    C16   1.081272 S    
O6    Zn2   1.991113 S    
C26   H18   1.106908 S    
N1    C18   1.365810 A    
N2    C17   1.366258 A    
C7    C9    1.543042 S    
O5    Zn1   1.991114 S    
O11   C27   1.414313 S    
Zn1   N1    2.006692 S    
O8    C5    1.275938 A    
C12   C14   1.526565 S    
C28   H23   1.108924 S    
C19   O9    1.384234 S    
C29   H27   1.116772 S    
C9    H9    1.110395 S    
C25   C26   1.519717 S    
