data_mof_unit_10974.cif
_audit_creation_date              2012-12-10T18:46:12-0500
_audit_creation_method            fapswitch 2.2
_symmetry_space_group_name_H-M    P1
_symmetry_Int_Tables_number       1
_space_group_crystal_system       triclinic
_cell_length_a                    9.835671
_cell_length_b                    10.725874
_cell_length_c                    13.145994
_cell_angle_alpha                 89.812676
_cell_angle_beta                  71.348599
_cell_angle_gamma                 89.974092
_cell_volume                      1314.00985669

loop_
_atom_site_label
_atom_site_type_symbol
_atom_type_description
_atom_site_fract_x
_atom_site_fract_y
_atom_site_fract_z
_atom_type_partial_charge
C1    C     C_R   0.499609 0.740150 0.501061 0.897429
C2    C     C_R   0.438283 0.561458 0.982706 0.112330
C3    C     C_R   0.473946 0.574656 0.870609 0.091916
C4    C     C_R   0.546541 0.581497 0.030050 -0.033688
C5    C     C_R   0.691238 0.592609 0.964864 0.134391
C6    C     C_R   0.721154 0.623977 0.857219 -0.212530
C7    C     C_R   0.610135 0.625240 0.813025 -0.179473
C8    C     C_R   0.516149 0.587986 0.140542 0.355583
C9    C     C_R   0.765428 0.540507 0.118063 -0.237088
C10   C     C_R   0.375801 0.531105 0.819535 -0.119844
C11   C     C_R   0.625580 0.936099 0.496056 -0.190742
C12   C     C_R   0.422188 0.510038 0.703465 0.854035
C13   C     C_R   0.625778 0.063773 0.495472 -0.182712
C14   C     C_R   0.499593 0.127361 0.500999 -0.018754
C15   C     C_R   0.373032 0.063824 0.507586 -0.189535
C16   C     C_R   0.372811 0.936143 0.508240 -0.127619
C17   C     C_R   0.499233 0.872578 0.502063 0.004674
C18   C     C_R   0.947600 0.404244 0.454399 -0.074852
C19   C     C_R   0.091507 0.404318 0.454349 -0.015396
C20   C     C_R   0.052407 0.595681 0.545672 -0.069739
C21   C     C_R   0.908929 0.596068 0.544927 -0.083744
C22   C     C_R   0.499907 0.259830 0.500160 0.878211
C23   C     C_R   0.577727 0.510919 0.296922 0.929672
C24   C     C_R   0.801177 0.574017 0.009843 -0.185855
C25   C     C_R   0.621360 0.545216 0.183705 -0.183170
C26   C     C_R   0.237555 0.493072 0.881440 -0.202541
C27   C     C_R   0.200371 0.486670 0.992458 -0.156220
C28   C     C_R   0.301006 0.516117 0.042548 -0.104824
H1    H     H_    0.849496 0.515650 0.151080 0.176370
H2    H     H_    0.724449 0.112178 0.490314 0.153729
H3    H     H_    0.274534 0.112277 0.512253 0.151804
H4    H     H_    0.274227 0.887691 0.513204 0.154490
H5    H     H_    0.908949 0.327836 0.417664 0.123695
H6    H     H_    0.161753 0.328042 0.417452 0.121680
H7    H     H_    0.091188 0.672287 0.582102 0.117510
H8    H     H_    0.839920 0.673643 0.579861 0.114093
H9    H     H_    0.829229 0.647591 0.807675 0.137092
H10   H     H_    0.912841 0.578579 0.960570 0.149617
H11   H     H_    0.160809 0.461185 0.843709 0.158022
H12   H     H_    0.272638 0.496949 0.127374 0.183516
H13   H     H_    0.095982 0.451552 0.039382 0.141518
H14   H     H_    0.634180 0.661197 0.732527 0.161925
H15   H     H_    0.724132 0.887648 0.491249 0.155094
N1    N     N_R   0.142790 0.500030 0.500030 -0.058532
N2    N     N_R   0.857180 0.499940 0.500010 -0.074996
O1    O     O_R   0.385370 0.683250 0.500010 -0.598595
O2    O     O_R   0.614700 0.683220 0.500010 -0.647779
O3    O     O_R   0.328400 0.499990 0.653620 -0.622675
O4    O     O_R   0.557730 0.499960 0.653620 -0.614823
O5    O     O_R   0.385300 0.316780 0.499990 -0.636249
O6    O     O_R   0.614630 0.316750 0.499990 -0.627163
O7    O     O_R   0.442270 0.500040 0.346380 -0.549559
O8    O     O_R   0.671600 0.500010 0.346380 -0.618220
Zn1   Zn    Zn3+2 0.346870 0.500020 0.500000 0.992890
Zn2   Zn    Zn3+2 0.653130 0.499980 0.500000 0.951917
S1    S     S_3+6 0.384892 0.699091 0.211591 0.017793
O9    O     O_2   0.446358 0.777650 0.280605 -0.308057
O10   O     O_2   0.345595 0.782744 0.133294 -0.297727
O11   O     O_3   0.235708 0.627803 0.289546 -0.571926
H16   H     H_    0.167176 0.696209 0.319837 0.373630

loop_
_geom_bond_atom_site_label_1
_geom_bond_atom_site_label_2
_ccdc_geom_bond_type
C24   H10   S    
C9    C24   A    
C11   H15   S    
C6    C7    A    
C2    C3    A    
C16   H4    S    
C27   H13   S    
C21   N2    A    
C12   O3    A    
S1    O11   S    
C9    H1    S    
C4    C8    A    
C8    S1    S    
O8    Zn2   S    
C12   O4    A    
C23   O7    A    
C6    H9    S    
C9    C25   A    
O11   H16   S    
C21   H8    S    
O4    Zn2   S    
C13   C14   A    
C19   N1    A    
O3    Zn1   S    
C8    C25   A    
C11   C13   A    
C14   C22   S    
C26   C27   A    
O5    Zn1   S    
C5    C24   A    
C10   C12   S    
C2    C4    A    
C20   N1    A    
O1    Zn1   S    
O7    Zn1   S    
C23   O8    A    
C3    C7    A    
O6    Zn2   S    
C23   C25   S    
C5    C6    A    
C26   H11   S    
C18   H5    S    
C1    O1    A    
C22   O6    A    
C28   H12   S    
C15   C16   A    
C18   N2    A    
N1    Zn1   S    
C22   O5    A    
C4    C5    A    
S1    O9    D    
N2    Zn2   S    
O2    Zn2   S    
C18   C19   A    
C7    H14   S    
C27   C28   A    
C3    C10   A    
C14   C15   A    
C1    O2    A    
C2    C28   A    
C20   C21   A    
C13   H2    S    
C20   H7    S    
C1    C17   S    
C15   H3    S    
C10   C26   A    
C11   C17   A    
S1    O10   D    
C16   C17   A    
C19   H6    S    
