data_mof_unit_66074.cif
_audit_creation_date              2013-03-05T16:09:37-0500
_audit_creation_method            fapswitch 2.2
_symmetry_space_group_name_H-M    P1
_symmetry_Int_Tables_number       1
_space_group_crystal_system       triclinic
_cell_length_a                    25.654854
_cell_length_b                    36.117715
_cell_length_c                    22.137488
_cell_angle_alpha                 90.051318
_cell_angle_beta                  125.401431
_cell_angle_gamma                 89.91839
_cell_volume                      16719.9781256

loop_
_atom_site_label
_atom_site_type_symbol
_atom_site_description
_atom_site_fract_x
_atom_site_fract_y
_atom_site_fract_z
_atom_type_partial_charge
Zn1   Zn    Zn3+2 0.824580 0.280660 0.061400 0.990104
Zn2   Zn    Zn3+2 0.824580 0.719340 0.061400 0.987006
Zn3   Zn    Zn3+2 0.324580 0.780660 0.061400 0.990630
Zn4   Zn    Zn3+2 0.324580 0.219340 0.061400 0.987366
Zn5   Zn    Zn3+2 0.736740 0.219240 0.061440 0.971828
Zn6   Zn    Zn3+2 0.736740 0.780760 0.061440 0.969977
Zn7   Zn    Zn3+2 0.236740 0.719240 0.061440 0.971558
Zn8   Zn    Zn3+2 0.236740 0.280760 0.061440 0.969735
Zn9   Zn    Zn3+2 0.763170 0.219250 0.938580 0.969517
Zn10  Zn    Zn3+2 0.763170 0.780750 0.938580 0.972032
Zn11  Zn    Zn3+2 0.263170 0.719250 0.938580 0.969286
Zn12  Zn    Zn3+2 0.263170 0.280750 0.938580 0.971807
Zn13  Zn    Zn3+2 0.675310 0.280670 0.938580 0.985986
Zn14  Zn    Zn3+2 0.675310 0.719330 0.938580 0.988305
Zn15  Zn    Zn3+2 0.175310 0.780670 0.938580 0.986456
Zn16  Zn    Zn3+2 0.175310 0.219330 0.938580 0.988851
O1    O     O_3   0.749950 0.249950 0.000000 -0.483314
O2    O     O_3   0.749950 0.750050 0.000000 -0.483062
O3    O     O_3   0.249950 0.749950 0.000000 -0.483510
O4    O     O_3   0.249950 0.250050 0.000000 -0.483225
O5    O     O_R   0.611190 0.271450 0.957030 -0.646276
O6    O     O_R   0.611190 0.728550 0.957030 -0.640092
O7    O     O_R   0.111190 0.771450 0.957030 -0.646155
O8    O     O_R   0.111190 0.228550 0.957030 -0.640013
O9    O     O_R   0.888700 0.271440 0.042960 -0.639819
O10   O     O_R   0.888700 0.728560 0.042960 -0.645925
O11   O     O_R   0.388700 0.771440 0.042960 -0.639631
O12   O     O_R   0.388700 0.228560 0.042960 -0.645865
O13   O     O_R   0.801200 0.228440 0.163980 -0.639007
O14   O     O_R   0.801200 0.771560 0.163980 -0.639016
O15   O     O_R   0.301200 0.728440 0.163980 -0.639248
O16   O     O_R   0.301200 0.271560 0.163980 -0.639284
O17   O     O_R   0.698710 0.228470 0.836030 -0.639392
O18   O     O_R   0.698710 0.771530 0.836030 -0.638969
O19   O     O_R   0.198710 0.728470 0.836030 -0.639656
O20   O     O_R   0.198710 0.271530 0.836030 -0.639242
O21   O     O_R   0.740720 0.167960 0.043020 -0.637659
O22   O     O_R   0.740720 0.832040 0.043020 -0.638183
O23   O     O_R   0.240720 0.667960 0.043020 -0.637624
O24   O     O_R   0.240720 0.332040 0.043020 -0.638152
O25   O     O_R   0.697700 0.331940 0.957000 -0.632368
O26   O     O_R   0.697700 0.668060 0.957000 -0.631443
O27   O     O_R   0.197700 0.831940 0.957000 -0.631722
O28   O     O_R   0.197700 0.168060 0.957000 -0.630654
O29   O     O_R   0.759220 0.167970 0.957030 -0.638335
O30   O     O_R   0.759220 0.832030 0.957030 -0.637922
O31   O     O_R   0.259220 0.667970 0.957030 -0.638304
O32   O     O_R   0.259220 0.332030 0.957030 -0.637900
O33   O     O_R   0.802170 0.331930 0.042960 -0.626932
O34   O     O_R   0.802170 0.668070 0.042960 -0.630522
O35   O     O_R   0.302170 0.831930 0.042960 -0.626142
O36   O     O_R   0.302170 0.168070 0.042960 -0.630171
O37   O     O_R   0.862680 0.271430 0.163960 -0.631788
O38   O     O_R   0.862680 0.728570 0.163960 -0.633142
O39   O     O_R   0.362680 0.771430 0.163960 -0.631289
O40   O     O_R   0.362680 0.228570 0.163960 -0.632574
O41   O     O_R   0.637220 0.271460 0.836030 -0.632192
O42   O     O_R   0.637220 0.728540 0.836030 -0.632203
O43   O     O_R   0.137220 0.771460 0.836030 -0.631610
O44   O     O_R   0.137220 0.228540 0.836030 -0.631614
O45   O     O_R   0.654190 0.228460 0.043020 -0.641100
O46   O     O_R   0.654190 0.771540 0.043020 -0.647384
O47   O     O_R   0.154190 0.728460 0.043020 -0.641192
O48   O     O_R   0.154190 0.271540 0.043020 -0.647468
O49   O     O_R   0.845720 0.228460 0.956990 -0.647546
O50   O     O_R   0.845720 0.771540 0.956990 -0.641213
O51   O     O_R   0.345720 0.728460 0.956990 -0.647634
O52   O     O_R   0.345720 0.271540 0.956990 -0.641285
C1    C     C_R   0.608093 0.249987 0.999965 0.783508
C2    C     C_R   0.608156 0.750076 0.000093 0.783548
C3    C     C_R   0.108093 0.749987 0.999965 0.783206
C4    C     C_R   0.108156 0.250076 0.000093 0.783197
C5    C     C_R   0.891750 0.249919 0.999911 0.783183
C6    C     C_R   0.891813 0.750018 0.000040 0.784194
C7    C     C_R   0.391750 0.749919 0.999912 0.782953
C8    C     C_R   0.391813 0.250018 0.000040 0.783939
C9    C     C_R   0.849555 0.249933 0.199188 0.825327
C10   C     C_R   0.849567 0.750068 0.199216 0.827511
C11   C     C_R   0.349555 0.749933 0.199188 0.825106
C12   C     C_R   0.349567 0.250068 0.199216 0.827422
C13   C     C_R   0.650347 0.249965 0.800784 0.827480
C14   C     C_R   0.650359 0.750034 0.800812 0.825727
C15   C     C_R   0.150347 0.749965 0.800784 0.827291
C16   C     C_R   0.150359 0.250034 0.800812 0.825625
C17   C     C_R   0.749980 0.150347 0.000000 0.822670
C18   C     C_R   0.749973 0.849653 0.000052 0.822550
C19   C     C_R   0.249980 0.650347 0.000000 0.822932
C20   C     C_R   0.249973 0.349653 0.000052 0.822801
C21   C     C_R   0.749915 0.349512 0.999966 0.826133
C22   C     C_R   0.749962 0.650488 0.999994 0.828809
C23   C     C_R   0.249919 0.849512 0.999967 0.824574
C24   C     C_R   0.249958 0.150488 0.999993 0.827517
C25   C     C_3   0.697964 0.477869 0.920880 0.056128
C26   C     C_3   0.693671 0.521301 0.920791 0.062156
C27   C     C_3   0.194182 0.977856 0.922621 0.056191
C28   C     C_3   0.190133 0.021292 0.922980 0.061911
C29   C     C_3   0.816619 0.478616 0.028097 -0.347431
C30   C     C_3   0.813927 0.521146 0.018344 -0.348859
C31   C     C_3   0.314879 0.978626 0.021609 -0.347641
C32   C     C_3   0.311443 0.021153 0.011568 -0.349270
H1    H     H_    0.852739 0.471860 0.087321 0.245513
H2    H     H_    0.855101 0.534291 0.069249 0.214525
H3    H     H_    0.354010 0.971890 0.079847 0.245494
H4    H     H_    0.354561 0.034315 0.060353 0.214467
H5    H     H_    0.834499 0.465359 0.998099 0.212444
H6    H     H_    0.820422 0.527823 0.974217 0.243972
H7    H     H_    0.328946 0.965365 0.987782 0.212258
H8    H     H_    0.313493 0.027817 0.964099 0.243842
C33   C     C_1   0.749989 0.610881 0.999778 -0.080217
C34   C     C_1   0.749838 0.389120 0.000280 -0.080103
C35   C     C_1   0.249962 0.110880 0.999756 -0.079956
C36   C     C_1   0.249868 0.889119 0.000287 -0.079951
C37   C     C_3   0.749791 0.463253 0.001209 -0.009227
C38   C     C_3   0.749257 0.536751 0.998705 -0.009152
C39   C     C_3   0.249913 0.963251 0.001263 -0.009018
C40   C     C_3   0.249143 0.036748 0.998628 -0.008982
C41   C     C_3   0.737027 0.522258 0.056387 0.056155
C42   C     C_3   0.731596 0.478837 0.053061 0.060852
C43   C     C_3   0.242866 0.022250 0.061051 0.056232
C44   C     C_3   0.237519 0.978830 0.058232 0.060671
C45   C     C_1   0.749768 0.577559 0.999317 0.058967
C46   C     C_1   0.749843 0.422444 0.000743 0.058459
C47   C     C_1   0.249688 0.077557 0.999253 0.059145
C48   C     C_1   0.249925 0.922442 0.000776 0.058279
H9    H     H_    0.680258 0.471870 0.025934 0.061521
H10   H     H_    0.689560 0.533197 0.039126 0.089356
H11   H     H_    0.187030 0.971851 0.035763 0.061297
H12   H     H_    0.196865 0.033178 0.048506 0.088994
H13   H     H_    0.650745 0.467100 0.904662 0.092215
H14   H     H_    0.648127 0.528436 0.913706 0.063347
H15   H     H_    0.148527 0.967091 0.911192 0.092022
H16   H     H_    0.146835 0.028439 0.920913 0.063138
C49   C     C_3   0.973204 0.283827 0.981541 -0.174264
C50   C     C_3   0.007908 0.725156 0.049826 -0.129569
C51   C     C_3   0.473181 0.783820 0.981496 -0.174589
C52   C     C_3   0.507920 0.225168 0.049850 -0.129650
C53   C     C_3   0.483450 0.759027 0.932170 -0.178516
C54   C     C_3   0.508313 0.216115 0.981813 -0.175566
C55   C     C_3   0.983457 0.259050 0.932183 -0.177984
C56   C     C_3   0.008297 0.716119 0.981781 -0.175019
H17   H     H_    0.470970 0.766430 0.876577 0.137082
H18   H     H_    0.516209 0.188343 0.966908 0.138809
H19   H     H_    0.970983 0.266472 0.876601 0.137410
H20   H     H_    0.016180 0.688351 0.966849 0.139191
H21   H     H_    0.950228 0.311549 0.966397 0.142410
H22   H     H_    0.013599 0.704752 0.090739 0.152300
H23   H     H_    0.450185 0.811536 0.966314 0.141785
H24   H     H_    0.513621 0.204774 0.090783 0.152583
C57   C     C_3   0.551012 0.750154 0.000278 0.049148
C58   C     C_3   0.550767 0.250094 0.999785 0.049107
C59   C     C_3   0.051013 0.250154 0.000278 0.049376
C60   C     C_3   0.050767 0.750094 0.999785 0.049028
C61   C     C_3   0.541642 0.774969 0.049646 -0.129677
C62   C     C_3   0.551229 0.259169 0.067777 -0.176446
C63   C     C_3   0.041658 0.274953 0.049680 -0.129951
C64   C     C_3   0.051233 0.759153 0.067785 -0.177083
C65   C     C_3   0.016453 0.240947 0.067829 -0.178092
C66   C     C_3   0.991612 0.783884 0.018231 -0.176422
C67   C     C_3   0.516460 0.740969 0.067843 -0.177478
C68   C     C_3   0.491597 0.283888 0.018200 -0.175803
C69   C     C_3   0.526730 0.716176 0.018517 -0.174290
C70   C     C_3   0.491989 0.274836 0.950163 -0.130221
C71   C     C_3   0.026706 0.216170 0.018470 -0.174662
C72   C     C_3   0.992001 0.774847 0.950187 -0.130230
C73   C     C_3   0.958252 0.225044 0.950332 -0.130222
C74   C     C_3   0.948677 0.740851 0.932227 -0.175868
C75   C     C_3   0.458269 0.725027 0.950367 -0.130516
C76   C     C_3   0.448681 0.240835 0.932236 -0.176504
C77   C     C_3   0.948897 0.249843 0.999734 0.049250
C78   C     C_3   0.949143 0.749909 0.000227 0.049084
C79   C     C_3   0.448898 0.749842 0.999735 0.049379
C80   C     C_3   0.449143 0.249909 0.000227 0.048983
H25   H     H_    0.576711 0.795479 0.090401 0.151217
H26   H     H_    0.594293 0.266682 0.123317 0.139166
H27   H     H_    0.076743 0.295447 0.090464 0.151026
H28   H     H_    0.094300 0.766652 0.123333 0.138710
H29   H     H_    0.028927 0.233524 0.123411 0.137241
H30   H     H_    0.983730 0.811652 0.033163 0.138491
H31   H     H_    0.528940 0.733566 0.123436 0.137641
H32   H     H_    0.483701 0.311660 0.033105 0.138934
H33   H     H_    0.549726 0.688460 0.033699 0.142573
H34   H     H_    0.486288 0.295230 0.909230 0.152087
H35   H     H_    0.049682 0.188448 0.033614 0.141742
H36   H     H_    0.986310 0.795251 0.909273 0.152436
H37   H     H_    0.923168 0.204549 0.909548 0.150950
H38   H     H_    0.905610 0.733351 0.876680 0.139336
H39   H     H_    0.423200 0.704517 0.909612 0.150790
H40   H     H_    0.405617 0.233322 0.876695 0.138898
C81   C     C_3   0.467547 0.262248 0.543032 -0.385440
C82   C     C_3   0.467875 0.737138 0.543023 -0.385304
C83   C     C_3   0.967536 0.762224 0.543032 -0.385050
C84   C     C_3   0.966662 0.240029 0.543021 -0.385583
C85   C     C_3   0.533559 0.210721 0.542949 -0.389353
C86   C     C_3   0.532519 0.789409 0.542970 -0.389377
C87   C     C_3   0.033594 0.710728 0.542949 -0.389442
C88   C     C_3   0.036649 0.288704 0.542970 -0.389329
C89   C     C_3   0.490554 0.210743 0.456951 -0.376924
C90   C     C_3   0.489518 0.789391 0.456969 -0.376516
C91   C     C_3   0.990591 0.710749 0.456951 -0.377448
C92   C     C_3   0.993648 0.288686 0.456969 -0.377292
H41   H     H_    0.383417 0.243214 0.436439 0.171128
H42   H     H_    0.383249 0.755821 0.436435 0.170761
H43   H     H_    0.883425 0.743175 0.436438 0.171374
H44   H     H_    0.884096 0.260327 0.436432 0.171283
H45   H     H_    0.447006 0.243183 0.563603 0.169182
H46   H     H_    0.446833 0.755848 0.563601 0.168951
H47   H     H_    0.947012 0.743143 0.563603 0.169393
H48   H     H_    0.947679 0.260353 0.563598 0.169205
H49   H     H_    0.582530 0.201260 0.563508 0.172930
H50   H     H_    0.581236 0.799309 0.563536 0.173150
H51   H     H_    0.082575 0.701285 0.563508 0.172615
H52   H     H_    0.086307 0.296528 0.563537 0.172585
H53   H     H_    0.514239 0.190702 0.563519 0.172167
H54   H     H_    0.512675 0.809087 0.563547 0.172019
H55   H     H_    0.014293 0.690695 0.563519 0.172216
H56   H     H_    0.018962 0.309930 0.563545 0.172385
H57   H     H_    0.450651 0.190733 0.436355 0.177382
H58   H     H_    0.449091 0.809060 0.436381 0.177133
H59   H     H_    0.950705 0.690727 0.436355 0.177304
H60   H     H_    0.955379 0.309902 0.436379 0.177661
H61   H     H_    0.518941 0.201292 0.436343 0.174758
H62   H     H_    0.517652 0.799282 0.436370 0.175279
H63   H     H_    0.018987 0.701317 0.436343 0.174248
H64   H     H_    0.022723 0.296501 0.436370 0.174121
C93   C     C_1   0.389264 0.250065 0.278610 -0.130983
C94   C     C_1   0.389259 0.749939 0.278590 -0.130221
C95   C     C_1   0.889264 0.750065 0.278610 -0.131274
C96   C     C_1   0.889260 0.249939 0.278590 -0.130461
C97   C     C_3   0.536517 0.250000 0.573089 0.335483
C98   C     C_3   0.536516 0.749998 0.573094 0.335467
C99   C     C_3   0.036517 0.750001 0.573089 0.335513
C100  C     C_3   0.036516 0.249998 0.573095 0.335391
C101  C     C_3   0.424543 0.262269 0.457033 -0.387145
C102  C     C_3   0.424873 0.737119 0.457022 -0.387231
C103  C     C_3   0.924533 0.762245 0.457033 -0.386890
C104  C     C_3   0.923661 0.240011 0.457021 -0.386824
C105  C     C_3   0.463420 0.250036 0.426911 0.334799
C106  C     C_3   0.463420 0.749966 0.426905 0.334570
C107  C     C_3   0.963421 0.750037 0.426911 0.335085
C108  C     C_3   0.963420 0.249966 0.426905 0.334927
C109  C     C_3   0.520303 0.277074 0.457018 -0.390223
C110  C     C_3   0.521012 0.723409 0.457006 -0.390167
C111  C     C_3   0.020279 0.777094 0.457018 -0.390367
C112  C     C_3   0.018094 0.221221 0.457009 -0.390444
C113  C     C_3   0.563307 0.277052 0.543016 -0.381156
C114  C     C_3   0.564013 0.723428 0.543007 -0.381274
C115  C     C_3   0.063282 0.777073 0.543017 -0.381414
C116  C     C_3   0.061094 0.221239 0.543010 -0.380775
C117  C     C_1   0.422646 0.250055 0.345370 -0.119354
C118  C     C_1   0.422644 0.749950 0.345355 -0.119351
C119  C     C_1   0.922647 0.750056 0.345370 -0.119530
C120  C     C_1   0.922644 0.249949 0.345355 -0.119464
C121  C     C_1   0.577289 0.249980 0.654630 -0.119254
C122  C     C_1   0.577290 0.750015 0.654644 -0.119430
C123  C     C_1   0.077289 0.749981 0.654630 -0.119173
C124  C     C_1   0.077290 0.250015 0.654644 -0.119340
C125  C     C_1   0.610665 0.249970 0.721390 -0.131091
C126  C     C_1   0.610668 0.750026 0.721410 -0.130909
C127  C     C_1   0.110664 0.749970 0.721390 -0.130882
C128  C     C_1   0.110668 0.250026 0.721410 -0.130644
H65   H     H_    0.565753 0.305565 0.563635 0.178555
H66   H     H_    0.567211 0.694829 0.563611 0.178347
H67   H     H_    0.065701 0.805581 0.563636 0.178623
H68   H     H_    0.061292 0.193103 0.563614 0.178842
H69   H     H_    0.612829 0.268819 0.563576 0.170119
H70   H     H_    0.613312 0.732107 0.563574 0.170059
H71   H     H_    0.112811 0.768856 0.563577 0.169789
H72   H     H_    0.111204 0.227816 0.563577 0.169856
H73   H     H_    0.502165 0.305596 0.436471 0.173069
H74   H     H_    0.503628 0.694802 0.436446 0.173014
H75   H     H_    0.002114 0.805613 0.436472 0.173063
H76   H     H_    0.997710 0.193076 0.436448 0.173286
H77   H     H_    0.468222 0.290486 0.563651 0.176488
H78   H     H_    0.469294 0.708793 0.563627 0.176607
H79   H     H_    0.968185 0.790458 0.563651 0.176984
H80   H     H_    0.965113 0.212241 0.563626 0.176512
H81   H     H_    0.404633 0.290517 0.436487 0.173195
H82   H     H_    0.405709 0.708766 0.436461 0.173369
H83   H     H_    0.904597 0.790489 0.436486 0.173448
H84   H     H_    0.901529 0.212214 0.436460 0.173347
H85   H     H_    0.549241 0.268850 0.436412 0.170139
H86   H     H_    0.549729 0.732080 0.436408 0.170133
H87   H     H_    0.049224 0.768887 0.436413 0.169828
H88   H     H_    0.047621 0.227789 0.436412 0.169667
C129  C     C_3   0.777664 0.021523 0.078734 -0.385344
C130  C     C_3   0.777656 0.978552 0.078777 -0.385656
C131  C     C_3   0.273762 0.521527 0.077585 -0.385282
C132  C     C_3   0.273753 0.478556 0.077628 -0.385591
C133  C     C_3   0.791312 0.021406 0.975023 -0.385530
C134  C     C_3   0.791304 0.978435 0.975066 -0.385570
C135  C     C_3   0.294612 0.521407 0.979696 -0.385447
C136  C     C_3   0.294604 0.478435 0.979740 -0.385518
H89   H     H_    0.827367 0.968241 0.118586 0.170615
H90   H     H_    0.827380 0.031776 0.118523 0.170688
H91   H     H_    0.322963 0.468248 0.119927 0.170933
H92   H     H_    0.322975 0.531783 0.119864 0.171006
H93   H     H_    0.772346 0.031660 0.918398 0.172411
H94   H     H_    0.772335 0.968124 0.918462 0.172528
H95   H     H_    0.278492 0.531658 0.923979 0.172261
H96   H     H_    0.278481 0.468120 0.924043 0.172375
H97   H     H_    0.841281 0.031658 0.012888 0.170973
H98   H     H_    0.841269 0.968122 0.012950 0.170827
H99   H     H_    0.344210 0.531662 0.020160 0.171383
H100  H     H_    0.344199 0.468124 0.020224 0.171238
C137  C     C_1   0.749972 0.889341 0.000094 -0.136824
C138  C     C_1   0.749998 0.110659 0.999953 -0.136840
C139  C     C_1   0.249973 0.389341 0.000094 -0.136678
C140  C     C_1   0.249998 0.610659 0.999953 -0.136690
C141  C     C_3   0.749997 0.036530 0.999985 0.338560
C142  C     C_3   0.749983 0.963470 0.000058 0.338547
C143  C     C_3   0.249997 0.536530 0.999985 0.338202
C144  C     C_3   0.249984 0.463469 0.000058 0.338202
C145  C     C_3   0.680998 0.978556 0.946287 -0.386112
C146  C     C_3   0.681007 0.021527 0.946244 -0.386499
C147  C     C_3   0.181603 0.478552 0.942763 -0.385875
C148  C     C_3   0.181611 0.521523 0.942720 -0.386257
C149  C     C_1   0.749976 0.922708 0.000092 -0.123392
C150  C     C_1   0.750002 0.077291 0.999952 -0.123375
C151  C     C_1   0.249976 0.422708 0.000093 -0.123199
C152  C     C_1   0.250003 0.577292 0.999952 -0.123182
H101  H     H_    0.650262 0.031867 0.963049 0.171474
H102  H     H_    0.650250 0.968332 0.963114 0.171571
H103  H     H_    0.148523 0.531863 0.956127 0.171704
H104  H     H_    0.148512 0.468327 0.956191 0.171806
H105  H     H_    0.659995 0.031782 0.889085 0.170801
H106  H     H_    0.659983 0.968246 0.889149 0.170857
H107  H     H_    0.163395 0.531775 0.886316 0.170958
H108  H     H_    0.163383 0.468239 0.886380 0.171010
H109  H     H_    0.748713 0.031863 0.097998 0.172835
H110  H     H_    0.748700 0.968327 0.098060 0.172780
H111  H     H_    0.242385 0.531868 0.093495 0.172722
H112  H     H_    0.242372 0.468331 0.093557 0.172669
N1    N     N_R   0.688794 0.538064 0.856969 0.272612
O53   O     O_R   0.733016 0.559545 0.864780 -0.378582
O54   O     O_R   0.637222 0.532603 0.790686 -0.331631
N2    N     N_R   0.708201 0.463621 0.866130 0.265507
O55   O     O_R   0.756238 0.474532 0.865561 -0.352708
O56   O     O_R   0.667097 0.440659 0.815256 -0.360071
N3    N     N_R   0.179905 0.038029 0.856135 0.272772
O57   O     O_R   0.221798 0.059740 0.859150 -0.378714
O58   O     O_R   0.125876 0.032356 0.792217 -0.330736
N4    N     N_R   0.198861 0.963579 0.863561 0.265626
O59   O     O_R   0.243776 0.974480 0.857156 -0.352979
O60   O     O_R   0.155845 0.940591 0.814814 -0.359111
N5    N     N_R   0.766413 0.462033 0.127470 0.269882
O61   O     O_R   0.745868 0.467803 0.168371 -0.335214
O62   O     O_R   0.815258 0.440188 0.152445 -0.373664
N6    N     N_R   0.784684 0.536420 0.131591 0.267064
O63   O     O_R   0.766958 0.559522 0.161617 -0.365206
O64   O     O_R   0.843883 0.525292 0.170119 -0.347945
N7    N     N_R   0.276814 0.962039 0.132676 0.269812
O65   O     O_R   0.261264 0.967811 0.178381 -0.335211
O66   O     O_R   0.324777 0.940190 0.153175 -0.372798
N8    N     N_R   0.294210 0.036424 0.134769 0.267253
O67   O     O_R   0.280278 0.059502 0.168633 -0.364729
O68   O     O_R   0.353107 0.025339 0.168325 -0.347746

loop_
_geom_bond_atom_site_label_1
_geom_bond_atom_site_label_2
_geom_bond_distance
_ccdc_geom_bond_type
C31   H3    1.108806 S    
Zn5   O21   1.911388 S    
C86   C98   1.550310 S    
C135  C136  1.552034 S    
O23   C19   1.276203 A    
C105  C117  1.471366 S    
N1    O53   1.301528 A    
C26   N1    1.474732 S    
C109  C113  1.551807 S    
C71   C73   1.546701 S    
C36   C48   1.203574 T    
O42   C14   1.276879 A    
C30   C38   1.556069 S    
C129  H109  1.113060 S    
C61   H25   1.110135 S    
C108  C112  1.550316 S    
O46   C2    1.264819 A    
C84   C100  1.550326 S    
C101  C105  1.550313 S    
C65   C77   1.533527 S    
C25   N2    1.473139 S    
C89   C105  1.550307 S    
C82   H46   1.113064 S    
C37   C46   1.473959 S    
C60   C64   1.533468 S    
C32   C40   1.556012 S    
C67   C69   1.547429 S    
Zn3   O3    1.931774 S    
C59   C63   1.535431 S    
C12   C93   1.432623 S    
C41   H10   1.115718 S    
Zn16  O28   1.911065 S    
O28   C24   1.275279 A    
C147  H108  1.113055 S    
C29   H5    1.110161 S    
C43   H12   1.115726 S    
C74   H38   1.110127 S    
Zn4   O40   1.910428 S    
C90   H58   1.113062 S    
C103  C107  1.550309 S    
O11   C7    1.266246 A    
C44   N7    1.474857 S    
C73   C77   1.535432 S    
C50   H22   1.110133 S    
C99   C115  1.550305 S    
C112  H88   1.113069 S    
C71   H35   1.110088 S    
C139  C151  1.205144 T    
C140  C152  1.205143 T    
N4    O59   1.301372 A    
C75   C79   1.535433 S    
C148  H107  1.113056 S    
C30   H2    1.110142 S    
C58   C70   1.535531 S    
C82   C98   1.550331 S    
Zn8   O16   1.910103 S    
C86   H54   1.113061 S    
C136  C144  1.550376 S    
H42   C102  1.113067 S    
C3    C60   1.468395 S    
Zn16  O4    1.932188 S    
C4    C59   1.468381 S    
C143  C152  1.472206 S    
Zn12  O4    1.931658 S    
C68   C80   1.533467 S    
C144  C151  1.472206 S    
Zn13  O5    1.940090 S    
Zn2   O10   1.939933 S    
Zn6   O14   1.910103 S    
O47   C3    1.266607 A    
C49   C55   1.547424 S    
Zn7   O3    1.932067 S    
C92   H60   1.113062 S    
C49   H21   1.110088 S    
C95   C119  1.204659 T    
C51   C53   1.547428 S    
C81   H77   1.113060 S    
C112  H76   1.113062 S    
C113  H69   1.113067 S    
N2    O55   1.301386 A    
C24   C35   1.430559 S    
C85   H53   1.113057 S    
C30   H6    1.108735 S    
C103  H83   1.113064 S    
O24   C20   1.276296 A    
Zn11  O19   1.910381 S    
C66   H30   1.110096 S    
C133  H93   1.113055 S    
H44   C104  1.113066 S    
C84   H80   1.113063 S    
C33   C45   1.203557 T    
C129  C141  1.550379 S    
Zn10  O2    1.931658 S    
C88   H56   1.113060 S    
C64   C66   1.547454 S    
N6    O63   1.301153 A    
Zn9   O49   1.940004 S    
C88   H52   1.113063 S    
C9    C96   1.432782 S    
C83   C99   1.550310 S    
Zn7   O23   1.911388 S    
C28   C40   1.572050 S    
C107  C111  1.550305 S    
Zn8   O24   1.912377 S    
O26   C22   1.275330 A    
C110  H86   1.113068 S    
C115  H67   1.113065 S    
C131  H111  1.113059 S    
C68   C70   1.546669 S    
C116  H68   1.113061 S    
O25   C21   1.275570 A    
C102  H82   1.113060 S    
C40   C47   1.473962 S    
C14   C126  1.432783 S    
N7    O65   1.301286 A    
C32   H4    1.110154 S    
C113  H65   1.113060 S    
C29   C30   1.547233 S    
C44   H11   1.114873 S    
C87   H51   1.113070 S    
Zn12  O52   1.939095 S    
O39   C11   1.276886 A    
C26   H14   1.114960 S    
O22   C18   1.276298 A    
C1    C58   1.468393 S    
C89   H61   1.113064 S    
Zn13  O41   1.910148 S    
O50   C6    1.266433 A    
C69   C75   1.546708 S    
C54   C76   1.547454 S    
Zn16  O44   1.910371 S    
C8    C80   1.468387 S    
Zn1   O37   1.910651 S    
C68   H32   1.110088 S    
C57   C61   1.535433 S    
Zn2   O34   1.912050 S    
Zn3   O39   1.910651 S    
C88   C100  1.550309 S    
Zn6   O22   1.912377 S    
C81   C101  1.551802 S    
C115  H71   1.113069 S    
C106  C118  1.471527 S    
C83   H79   1.113069 S    
O34   C22   1.275629 A    
C87   C91   1.551809 S    
Zn10  O50   1.939095 S    
C133  C141  1.550353 S    
C32   H8    1.108817 S    
C62   H26   1.110131 S    
C135  C143  1.550338 S    
C91   H59   1.113067 S    
C41   N6    1.473130 S    
C66   C78   1.533468 S    
C19   C140  1.433453 S    
C21   C34   1.430573 S    
O5    C1    1.264759 A    
C100  C116  1.550317 S    
O31   C19   1.276306 A    
C23   C36   1.430539 S    
C147  H104  1.113062 S    
C86   H50   1.113066 S    
C141  C150  1.472199 S    
C133  C134  1.552023 S    
Zn5   O45   1.939064 S    
C83   H47   1.113070 S    
Zn7   O47   1.939064 S    
C52   H24   1.110132 S    
Zn8   O48   1.939974 S    
C70   C76   1.546668 S    
C74   C78   1.533466 S    
C51   H23   1.110088 S    
C138  C150  1.205147 T    
O51   C7    1.264647 A    
O8    C4    1.266412 A    
C10   C95   1.432621 S    
C56   C60   1.533469 S    
C104  H84   1.113064 S    
C91   C107  1.550304 S    
C98   C114  1.550323 S    
C142  C149  1.472203 S    
O52   C8    1.266435 A    
N8    O68   1.301376 A    
O40   C12   1.275770 A    
C144  C147  1.550351 S    
C105  C109  1.550312 S    
Zn14  O6    1.939160 S    
Zn3   O11   1.939003 S    
Zn15  O27   1.911942 S    
C41   C42   1.572527 S    
C7    C79   1.468384 S    
C86   C90   1.551849 S    
C124  C128  1.204752 T    
C55   C59   1.533529 S    
C109  H73   1.113056 S    
O9    C5    1.266248 A    
C69   H33   1.110090 S    
C38   C41   1.571270 S    
C121  C125  1.204659 T    
O13   C9    1.276897 A    
N8    O67   1.301156 A    
C82   H78   1.113060 S    
O18   C14   1.276901 A    
C22   C33   1.430519 S    
C96   C120  1.204752 T    
C114  H70   1.113066 S    
O6    C2    1.266412 A    
C17   C138  1.433457 S    
Zn9   O17   1.910381 S    
Zn9   O29   1.912399 S    
C76   H40   1.110133 S    
C63   C65   1.546698 S    
C133  H97   1.113057 S    
Zn11  O31   1.912399 S    
C134  H94   1.113055 S    
C85   C97   1.550302 S    
C145  H102  1.113062 S    
Zn12  O32   1.911407 S    
C135  H99   1.113044 S    
Zn13  O25   1.911942 S    
Zn15  O3    1.930453 S    
C130  C142  1.550343 S    
Zn11  O3    1.929702 S    
C110  C114  1.551847 S    
C67   C79   1.533537 S    
Zn7   O15   1.910215 S    
O43   C15   1.275760 A    
C31   C39   1.556127 S    
C130  H110  1.113056 S    
N4    O60   1.301155 A    
Zn5   O1    1.932067 S    
C83   C103  1.551807 S    
C102  C106  1.550326 S    
C49   C77   1.533511 S    
C90   C106  1.550318 S    
O35   C23   1.275345 A    
C38   C45   1.473931 S    
C50   C64   1.546675 S    
C52   C80   1.535531 S    
C81   H45   1.113063 S    
C129  H90   1.113052 S    
O32   C20   1.276212 A    
C15   C127  1.432621 S    
C42   H9    1.114857 S    
C51   C79   1.533514 S    
N5    O62   1.301427 A    
C99   C123  1.471372 S    
C11   C94   1.432782 S    
C87   H55   1.113068 S    
C114  H66   1.113059 S    
C147  C148  1.552016 S    
C27   H15   1.115724 S    
C2    C57   1.468383 S    
C25   H13   1.115736 S    
C84   C104  1.551847 S    
N1    O54   1.301323 A    
C56   C74   1.547451 S    
Zn14  O42   1.910371 S    
C35   C47   1.203581 T    
O7    C3    1.264759 A    
N2    O56   1.301160 A    
Zn2   O38   1.910428 S    
O33   C21   1.275407 A    
O19   C15   1.275796 A    
C112  C116  1.551849 S    
O37   C9    1.276883 A    
C92   C108  1.550317 S    
H43   C103  1.113071 S    
C129  C130  1.552019 S    
C52   C62   1.546673 S    
H41   C101  1.113064 S    
N3    O57   1.301401 A    
N6    O64   1.301404 A    
C25   C37   1.571337 S    
O15   C11   1.276895 A    
C108  C120  1.471527 S    
C111  C115  1.551811 S    
C54   H18   1.110089 S    
C136  H96   1.113051 S    
C57   C69   1.533515 S    
C5    C77   1.468382 S    
O12   C8    1.264594 A    
C53   C75   1.546690 S    
C63   H27   1.110133 S    
C94   C118  1.204751 T    
C27   N4    1.473149 S    
C53   H17   1.110147 S    
C64   H28   1.110126 S    
Zn3   O35   1.911172 S    
C39   C48   1.473951 S    
Zn15  O43   1.910148 S    
C56   H20   1.110097 S    
C43   N8    1.473151 S    
C67   H31   1.110145 S    
C98   C122  1.471529 S    
C132  H112  1.113059 S    
C43   C44   1.572445 S    
N7    O66   1.301422 A    
Zn13  O1    1.930453 S    
C31   H7    1.110152 S    
Zn6   O46   1.939974 S    
C42   N5    1.474804 S    
C34   C46   1.203592 T    
C145  C146  1.552012 S    
C111  H75   1.113064 S    
C76   C80   1.533466 S    
O38   C10   1.275769 A    
C142  C145  1.550362 S    
C25   C26   1.572285 S    
Zn2   O2    1.930040 S    
Zn14  O2    1.932188 S    
C81   C97   1.550316 S    
C27   C28   1.572438 S    
C100  C124  1.471529 S    
C88   C92   1.551849 S    
C26   C38   1.571856 S    
C54   C58   1.533466 S    
Zn8   O4    1.930113 S    
Zn4   O36   1.912050 S    
C110  H74   1.113059 S    
O21   C17   1.276203 A    
C90   H62   1.113066 S    
C70   H34   1.110131 S    
C50   C56   1.546672 S    
O16   C12   1.275788 A    
C122  C126  1.204752 T    
O49   C5    1.264647 A    
C131  H92   1.113056 S    
C89   H57   1.113060 S    
C55   C73   1.546692 S    
C132  H91   1.113053 S    
C111  H87   1.113077 S    
C18   C137  1.433457 S    
C131  C132  1.552023 S    
C148  H103  1.113063 S    
C27   C39   1.571278 S    
Zn10  O30   1.911407 S    
C146  H105  1.113051 S    
C82   C102  1.551847 S    
C145  H106  1.113051 S    
Zn12  O20   1.910494 S    
C135  H95   1.113050 S    
C65   C71   1.547427 S    
C66   C72   1.546668 S    
C28   H16   1.114878 S    
Zn15  O7    1.940090 S    
Zn16  O8    1.939160 S    
C143  C148  1.550352 S    
Zn1   O9    1.939003 S    
C84   H48   1.113063 S    
C53   C57   1.533536 S    
C55   H19   1.110135 S    
Zn4   O12   1.939933 S    
Zn11  O51   1.940004 S    
Zn5   O13   1.910215 S    
Zn6   O2    1.930113 S    
C123  C127  1.204659 T    
C137  C149  1.205144 T    
C107  C119  1.471374 S    
C92   H64   1.113066 S    
C52   C54   1.546672 S    
O27   C23   1.275632 A    
C104  C108  1.550324 S    
C130  H89   1.113052 S    
C61   C67   1.546699 S    
O29   C17   1.276309 A    
C62   C68   1.547457 S    
C72   H36   1.110134 S    
C146  H101  1.113061 S    
C85   H49   1.113061 S    
C31   C32   1.547240 S    
C75   H39   1.110135 S    
C87   C99   1.550294 S    
Zn10  O18   1.910494 S    
C28   N3    1.474869 S    
C65   H29   1.110134 S    
C60   C72   1.535526 S    
C134  H98   1.113057 S    
Zn9   O1    1.929702 S    
N3    O58   1.301291 A    
C59   C71   1.533513 S    
C50   C78   1.535526 S    
O41   C13   1.275764 A    
C29   C37   1.556072 S    
O45   C1    1.266609 A    
C93   C117  1.204659 T    
C73   H37   1.110132 S    
C49   C63   1.546704 S    
C16   C128  1.432781 S    
C109  H85   1.113066 S    
C97   C121  1.471368 S    
C134  C142  1.550393 S    
C116  H72   1.113065 S    
Zn4   O4    1.930040 S    
C101  H81   1.113058 S    
C106  C110  1.550321 S    
C13   C125  1.432625 S    
C51   C61   1.546711 S    
C40   C43   1.571342 S    
Zn14  O26   1.911065 S    
C72   C74   1.546666 S    
C97   C113  1.550309 S    
C141  C146  1.550364 S    
O44   C16   1.276877 A    
O17   C13   1.275793 A    
O20   C16   1.276904 A    
C85   C89   1.551807 S    
O10   C6    1.264593 A    
C136  H100  1.113043 S    
O48   C4    1.264821 A    
C6    C78   1.468392 S    
O36   C24   1.275701 A    
C37   C42   1.572014 S    
O14   C10   1.275787 A    
C91   H63   1.113073 S    
Zn1   O1    1.931774 S    
C20   C139  1.433450 S    
C39   C44   1.571941 S    
C58   C62   1.533468 S    
C131  C143  1.550372 S    
N5    O61   1.301292 A    
Zn1   O33   1.911172 S    
C132  C144  1.550334 S    
C29   H1    1.108821 S    
O30   C18   1.276214 A    
