data_mof_unit_15114.cif
_audit_creation_date              2012-12-11T15:43:08-0500
_audit_creation_method            fapswitch 2.2
_symmetry_space_group_name_H-M    P1
_symmetry_Int_Tables_number       1
_space_group_crystal_system       triclinic
_cell_length_a                    19.237233
_cell_length_b                    10.912031
_cell_length_c                    18.663793
_cell_angle_alpha                 89.822484
_cell_angle_beta                  90.184217
_cell_angle_gamma                 90.191292
_cell_volume                      3917.79195438

loop_
_atom_site_label
_atom_site_type_symbol
_atom_type_description
_atom_site_fract_x
_atom_site_fract_y
_atom_site_fract_z
_atom_type_partial_charge
C1    C     C_R   0.711228 0.328207 0.139006 0.570225
C2    C     C_R   0.994264 0.003193 0.036355 -0.167159
C3    C     C_R   0.736541 0.389173 0.584399 0.010282
C4    C     C_R   0.710665 0.328368 0.359243 0.604159
C5    C     C_R   0.269791 0.381152 0.648820 0.554367
C6    C     C_R   0.229238 0.878222 0.352353 0.556280
C7    C     C_R   0.789372 0.830223 0.640478 0.573489
C8    C     C_R   0.531926 0.156288 0.352810 0.543138
C9    C     C_R   0.462570 0.155817 0.643773 0.586725
C10   C     C_R   0.064192 0.653396 0.361260 0.563055
C11   C     C_R   0.969938 0.657178 0.648237 0.538973
C12   C     C_R   0.743074 0.966482 0.352468 0.542378
C13   C     C_R   0.505833 0.503357 0.962816 -0.166600
C14   C     C_R   0.258176 0.972212 0.645753 0.539730
C15   C     C_R   0.239920 0.475269 0.356141 0.536363
C16   C     C_R   0.756812 0.465774 0.647151 0.527046
C17   C     C_R   0.498899 0.165604 0.924968 0.005076
C18   C     C_R   0.501030 0.165510 0.075021 0.003939
C19   C     C_R   0.998824 0.665602 0.925023 0.004564
C20   C     C_R   0.000926 0.665506 0.075083 0.007620
C21   C     C_R   0.502278 0.279188 0.961948 0.026856
C22   C     C_R   0.497708 0.279094 0.037741 0.026496
C23   C     C_R   0.002198 0.779181 0.962008 0.027593
C24   C     C_R   0.494301 0.503209 0.036279 -0.165585
C25   C     C_R   0.997614 0.779084 0.037802 0.026881
C26   C     C_R   0.498142 0.055830 0.036755 -0.172862
C27   C     C_R   0.501618 0.055898 0.963530 -0.172650
C28   C     C_R   0.998012 0.555830 0.036817 -0.171911
C29   C     C_R   0.001514 0.555899 0.963590 -0.172357
C30   C     C_R   0.780007 0.838813 0.938711 0.004273
C31   C     C_R   0.219587 0.838486 0.061469 0.005804
C32   C     C_R   0.279992 0.338831 0.938701 0.006727
C33   C     C_R   0.719610 0.338557 0.061483 0.003328
C34   C     C_R   0.722449 0.791815 0.975929 0.025085
C35   C     C_R   0.276835 0.791172 0.024325 0.025657
C36   C     C_R   0.222377 0.291980 0.975884 0.027840
C37   C     C_R   0.288628 0.328144 0.861198 0.563697
C38   C     C_R   0.776887 0.291312 0.024366 0.024889
C39   C     C_R   0.711964 0.821532 0.047585 0.032049
C40   C     C_R   0.287335 0.820800 0.952557 0.023924
C41   C     C_R   0.211883 0.321722 0.047532 0.024971
C42   C     C_R   0.787387 0.320922 0.952595 0.027001
C43   C     C_R   0.822536 0.924055 0.050033 -0.146205
C44   C     C_R   0.177245 0.923723 0.950004 -0.150322
C45   C     C_R   0.322541 0.423960 0.050042 -0.150593
C46   C     C_R   0.677259 0.423721 0.950006 -0.148158
C47   C     C_R   0.832276 0.896325 0.978333 -0.153075
C48   C     C_R   0.211219 0.828182 0.139004 0.564313
C49   C     C_R   0.167491 0.896064 0.021786 -0.152956
C50   C     C_R   0.332291 0.396207 0.978345 -0.152863
C51   C     C_R   0.667511 0.396103 0.021792 -0.151907
C52   C     C_3   0.646735 0.801858 0.959103 -0.265883
C53   C     C_3   0.352645 0.800878 0.040951 -0.263683
C54   C     C_3   0.146683 0.302242 0.959015 -0.265522
C55   C     C_3   0.852677 0.301247 0.041033 -0.266378
C56   C     C_3   0.635569 0.834716 0.037179 -0.275342
C57   C     C_3   0.363822 0.833600 0.962730 -0.274987
C58   C     C_3   0.135507 0.335144 0.037080 -0.275586
C59   C     C_R   0.788629 0.828140 0.861200 0.568482
C60   C     C_3   0.863855 0.333962 0.962815 -0.274683
C61   C     C_R   0.759266 0.897355 0.083851 0.024398
C62   C     C_R   0.240365 0.896901 0.916192 0.015852
C63   C     C_R   0.259234 0.397407 0.083826 0.015955
C64   C     C_R   0.740383 0.396926 0.916203 0.018541
C65   C     C_R   0.530403 0.155893 0.147318 0.531198
C66   C     C_R   0.469585 0.155939 0.852672 0.538464
C67   C     C_R   0.030354 0.655894 0.147358 0.551824
C68   C     C_R   0.969560 0.655939 0.852698 0.527850
C69   C     C_R   0.474712 0.158683 0.567919 0.034799
C70   C     C_R   0.509942 0.392623 0.925782 -0.109237
C71   C     C_R   0.496808 0.161740 0.420469 0.007203
C72   C     C_R   0.996518 0.664643 0.576420 0.057990
C73   C     C_R   0.040351 0.667725 0.433792 0.022454
C74   C     C_R   0.460101 0.053463 0.526697 -0.052554
C75   C     C_R   0.479004 0.053413 0.455842 -0.013054
C76   C     C_R   0.953260 0.624902 0.521040 -0.023227
C77   C     C_R   0.972739 0.634953 0.450906 0.034698
C78   C     C_R   0.492768 0.271898 0.457849 -0.168893
C79   C     C_R   0.487123 0.269910 0.532318 -0.165991
C80   C     C_R   0.083955 0.715606 0.487758 -0.166907
C81   C     C_R   0.490106 0.392337 0.073610 -0.109715
C82   C     C_R   0.061232 0.716692 0.559387 -0.149973
C83   C     C_3   0.477821 0.918871 0.533937 0.173936
C84   C     C_3   0.515184 0.932018 0.462869 0.181846
C85   C     C_3   0.915048 0.506514 0.507032 0.145463
C86   C     C_3   0.930681 0.527530 0.427641 0.127080
C87   C     C_R   0.781335 0.842776 0.562752 -0.003298
C88   C     C_R   0.248030 0.920829 0.422802 0.025229
C89   C     C_R   0.247617 0.433970 0.581407 0.011695
C90   C     C_R   0.717451 0.333538 0.437665 0.029318
C91   C     C_R   0.837790 0.865825 0.517768 0.007460
C92   C     C_R   0.009895 0.892615 0.925852 -0.109783
C93   C     C_R   0.207633 0.009660 0.456684 0.015821
C94   C     C_R   0.291497 0.515241 0.545020 0.002002
C95   C     C_R   0.665044 0.386539 0.477301 -0.007327
C96   C     C_R   0.827880 0.890949 0.445916 0.107163
C97   C     C_R   0.208330 0.018311 0.529902 0.036211
C98   C     C_R   0.289634 0.518874 0.471740 0.004080
C99   C     C_R   0.672963 0.409097 0.549738 0.004443
C100  C     C_R   0.707122 0.841676 0.456555 -0.130973
C101  C     C_R   0.293738 0.858279 0.538716 -0.181625
C102  C     C_R   0.189459 0.388491 0.468718 -0.129537
C103  C     C_R   0.990030 0.892319 0.073678 -0.109495
C104  C     C_R   0.782539 0.308588 0.549881 -0.130076
C105  C     C_R   0.716802 0.822405 0.529910 -0.149606
C106  C     C_R   0.293897 0.850035 0.464411 -0.142993
C107  C     C_R   0.192250 0.379993 0.543543 -0.106739
C108  C     C_R   0.773632 0.282419 0.476142 -0.121432
C109  C     C_3   0.899025 0.949674 0.523062 -0.279825
C110  C     C_3   0.130841 0.034765 0.453375 -0.270436
C111  C     C_3   0.369411 0.526272 0.544180 -0.241234
C112  C     C_3   0.628082 0.503549 0.464007 -0.200107
C113  C     C_R   0.741889 0.967018 0.148209 0.544936
C114  C     C_R   0.005811 0.003344 0.962895 -0.165082
C115  C     C_R   0.258024 0.966921 0.851771 0.530656
C116  C     C_R   0.241878 0.467054 0.148192 0.537693
C117  C     C_R   0.758027 0.466927 0.851773 0.534971
C118  C     C_3   0.889877 0.973482 0.443128 -0.261556
C119  C     C_3   0.131968 0.041687 0.534081 -0.269912
C120  C     C_3   0.365769 0.525585 0.463558 -0.261822
C121  C     C_3   0.632424 0.523152 0.543212 -0.219749
C122  C     C_R   0.760687 0.893813 0.416021 0.065431
C123  C     C_R   0.248824 0.939649 0.571965 0.014474
C124  C     C_R   0.242951 0.449934 0.432079 0.007366
Cr1   Cr    Cr6+3 0.772010 0.169670 0.250090 1.039730
Cr2   Cr    Cr6+3 0.383290 0.010760 0.749160 1.089916
Cr3   Cr    Cr6+3 0.116710 0.510760 0.250840 1.006822
Cr4   Cr    Cr6+3 0.883290 0.510760 0.749160 1.067932
Cr5   Cr    Cr6+3 0.227990 0.169670 0.749910 1.017638
Cr6   Cr    Cr6+3 0.272010 0.669670 0.250090 1.049941
Cr7   Cr    Cr6+3 0.727990 0.669670 0.749910 1.032604
Cr8   Cr    Cr6+3 0.615000 0.323260 0.249260 1.019812
Cr9   Cr    Cr6+3 0.385000 0.323260 0.750740 1.009795
Cr10  Cr    Cr6+3 0.115000 0.823260 0.249260 1.008324
Cr11  Cr    Cr6+3 0.885000 0.823260 0.750740 1.007800
Cr12  Cr    Cr6+3 0.616710 0.010760 0.250840 1.097498
H1    H     H_    0.498106 0.967573 0.063525 0.140630
H2    H     H_    0.960920 0.452904 0.402453 0.184282
H3    H     H_    0.430769 0.861407 0.528741 0.137072
H4    H     H_    0.571853 0.946328 0.469637 0.115360
H5    H     H_    0.656084 0.828808 0.433812 0.181700
H6    H     H_    0.326956 0.799549 0.570439 0.133726
H7    H     H_    0.147689 0.343591 0.439896 0.157373
H8    H     H_    0.827775 0.275014 0.577411 0.205005
H9    H     H_    0.672712 0.802173 0.562059 0.219249
H10   H     H_    0.324718 0.780134 0.440249 0.184032
H11   H     H_    0.155387 0.322515 0.571179 0.177996
H12   H     H_    0.501575 0.967716 0.936996 0.140597
H13   H     H_    0.813115 0.231967 0.448365 0.173036
H14   H     H_    0.947964 0.900764 0.536004 0.144976
H15   H     H_    0.098701 0.956943 0.433907 0.165272
H16   H     H_    0.395580 0.444455 0.565531 0.171452
H17   H     H_    0.574903 0.491931 0.444510 0.147157
H18   H     H_    0.888505 0.031816 0.556385 0.183046
H19   H     H_    0.119161 0.124058 0.427324 0.142728
H20   H     H_    0.388513 0.614421 0.566511 0.172710
H21   H     H_    0.659229 0.571358 0.433145 0.216451
H22   H     H_    0.877292 0.069524 0.430056 0.175484
H23   H     H_    0.997974 0.467573 0.063588 0.136235
H24   H     H_    0.119118 0.133655 0.554703 0.162250
H25   H     H_    0.380715 0.611808 0.437496 0.204975
H26   H     H_    0.664207 0.603812 0.556359 0.180232
H27   H     H_    0.932443 0.933751 0.410498 0.169350
H28   H     H_    0.103064 0.965944 0.560501 0.137153
H29   H     H_    0.387044 0.441621 0.438611 0.140101
H30   H     H_    0.581677 0.511726 0.570629 0.168006
H31   H     H_    0.521282 0.397271 0.869163 0.141348
H32   H     H_    0.478815 0.396689 0.130227 0.140834
H33   H     H_    0.021247 0.897265 0.869236 0.138112
H34   H     H_    0.001482 0.467719 0.937056 0.137683
H35   H     H_    0.978727 0.896656 0.130294 0.145947
H36   H     H_    0.010848 0.089351 0.934322 0.110218
H37   H     H_    0.989294 0.089082 0.064696 0.108321
H38   H     H_    0.510840 0.589362 0.934234 0.112990
H39   H     H_    0.489317 0.589099 0.064616 0.114226
H40   H     H_    0.861038 0.980698 0.076001 0.146472
H41   H     H_    0.138999 0.980655 0.923993 0.146961
H42   H     H_    0.361080 0.480483 0.076042 0.146392
H43   H     H_    0.639005 0.480612 0.923980 0.147065
H44   H     H_    0.877650 0.931275 0.951981 0.168717
H45   H     H_    0.500194 0.357037 0.430045 0.122676
H46   H     H_    0.122363 0.931310 0.048101 0.168288
H47   H     H_    0.377707 0.431021 0.952012 0.169023
H48   H     H_    0.622382 0.431349 0.048102 0.168464
H49   H     H_    0.123508 0.212456 0.944155 0.136426
H50   H     H_    0.875442 0.211404 0.056215 0.134801
H51   H     H_    0.623635 0.712011 0.944253 0.137707
H52   H     H_    0.375336 0.710964 0.056106 0.138089
H53   H     H_    0.634756 0.878464 0.921656 0.160195
H54   H     H_    0.365108 0.877481 0.078056 0.157515
H55   H     H_    0.134796 0.378880 0.921559 0.152891
H56   H     H_    0.495212 0.353478 0.562031 0.125161
H57   H     H_    0.865046 0.377900 0.078139 0.157216
H58   H     H_    0.618777 0.930813 0.044887 0.155816
H59   H     H_    0.381113 0.929594 0.954609 0.158070
H60   H     H_    0.118804 0.431296 0.044773 0.159122
H61   H     H_    0.881034 0.430012 0.954685 0.159383
H62   H     H_    0.605492 0.764423 0.067305 0.145439
H63   H     H_    0.393452 0.763124 0.932812 0.141949
H64   H     H_    0.105341 0.264946 0.067186 0.137711
H65   H     H_    0.893576 0.263573 0.932924 0.140048
H66   H     H_    0.578750 0.694173 0.628664 0.354633
H67   H     H_    0.136058 0.746380 0.475109 0.113111
H68   H     H_    0.494450 0.620485 0.399269 0.341620
H69   H     H_    0.983657 0.194479 0.493739 0.357107
H70   H     H_    0.896275 0.489123 0.275603 0.340630
H71   H     H_    0.095223 0.750723 0.601234 0.112399
H72   H     H_    0.859526 0.509993 0.522183 0.133278
O1    O     O_R   0.787520 0.042810 0.170440 -0.536171
O2    O     O_R   0.454050 0.051210 0.669140 -0.417950
O3    O     O_R   0.045950 0.551210 0.330860 -0.523164
O4    O     O_R   0.954050 0.551210 0.669140 -0.430355
O5    O     O_R   0.681390 0.959480 0.325510 -0.478971
O6    O     O_R   0.318610 0.959480 0.674490 -0.492377
O7    O     O_R   0.181390 0.459480 0.325510 -0.518877
O8    O     O_R   0.818610 0.459480 0.674490 -0.473607
O9    O     O_3   0.667900 0.167900 0.250060 -0.321851
O10   O     O_3   0.332100 0.167900 0.749940 -0.284829
O11   O     O_3   0.167900 0.667900 0.250060 -0.299075
O12   O     O_R   0.212480 0.042810 0.829560 -0.537539
O13   O     O_3   0.832100 0.667900 0.749940 -0.305218
O14   O     O_R   0.765640 0.292100 0.175020 -0.477984
O15   O     O_R   0.234360 0.292100 0.824980 -0.496311
O16   O     O_R   0.265640 0.792100 0.175020 -0.486667
O17   O     O_R   0.734360 0.792100 0.824980 -0.481015
O18   O     O_R   0.670190 0.408840 0.168540 -0.495502
O19   O     O_R   0.329810 0.408840 0.831460 -0.516469
O20   O     O_R   0.170190 0.908840 0.168540 -0.518490
O21   O     O_R   0.829810 0.908840 0.831460 -0.508773
O22   O     O_R   0.556620 0.251410 0.175160 -0.532749
O23   O     O_R   0.287520 0.542810 0.170440 -0.531700
O24   O     O_R   0.443380 0.251410 0.824840 -0.529558
O25   O     O_R   0.056620 0.751410 0.175160 -0.518336
O26   O     O_R   0.943380 0.751410 0.824840 -0.530116
O27   O     O_R   0.545960 0.049620 0.170320 -0.507000
O28   O     O_R   0.454040 0.049620 0.829680 -0.503950
O29   O     O_R   0.045960 0.549620 0.170320 -0.525551
O30   O     O_R   0.954040 0.549620 0.829680 -0.521324
O31   O     O_R   0.681390 0.958010 0.176690 -0.490150
O32   O     O_R   0.318610 0.958010 0.823310 -0.499077
O33   O     O_R   0.181390 0.458010 0.176690 -0.500127
O34   O     O_R   0.712480 0.542810 0.829560 -0.536147
O35   O     O_R   0.818610 0.458010 0.823310 -0.498093
O36   O     O_R   0.787510 0.044390 0.330970 -0.539311
O37   O     O_R   0.212490 0.044390 0.669030 -0.518760
O38   O     O_R   0.287510 0.544390 0.330970 -0.510146
O39   O     O_R   0.712490 0.544390 0.669030 -0.542363
O40   O     O_R   0.765630 0.293570 0.323840 -0.434189
O41   O     O_R   0.234370 0.293570 0.676160 -0.498163
O42   O     O_R   0.265630 0.793570 0.323840 -0.472502
O43   O     O_R   0.734370 0.793570 0.676160 -0.470536
O44   O     O_R   0.670190 0.410420 0.329080 -0.472665
O45   O     O_R   0.556610 0.252880 0.323980 -0.541888
O46   O     O_R   0.329810 0.410420 0.670920 -0.519420
O47   O     O_R   0.170190 0.910420 0.329080 -0.534599
O48   O     O_R   0.829810 0.910420 0.670920 -0.496338
O49   O     O_2   0.587260 0.951160 0.625499 -0.296796
O50   O     O_2   0.485794 0.835713 0.671377 -0.276345
O51   O     O_3   0.562027 0.729188 0.582664 -0.560818
O52   O     O_2   0.424196 0.839238 0.365202 -0.311132
O53   O     O_2   0.548117 0.814640 0.339849 -0.267909
O54   O     O_3   0.496305 0.680251 0.439082 -0.554580
O55   O     O_2   0.038746 0.402009 0.536922 -0.333635
O56   O     O_R   0.443390 0.252880 0.676020 -0.526497
O57   O     O_2   0.942271 0.335676 0.612403 -0.269830
O58   O     O_3   0.947309 0.255557 0.482112 -0.600277
O59   O     O_2   0.793398 0.581751 0.412865 -0.304933
O60   O     O_2   0.875263 0.703573 0.342070 -0.288928
O61   O     O_3   0.852107 0.481298 0.302406 -0.456973
O62   O     O_R   0.056610 0.752880 0.323980 -0.487476
O63   O     O_R   0.943390 0.752880 0.676020 -0.538859
O64   O     O_R   0.545950 0.051210 0.330860 -0.443124
S1    S     S_3+6 0.529834 0.863019 0.606747 -0.014210
S2    S     S_3+6 0.494337 0.816648 0.398031 -0.023210
S3    S     S_3+6 0.962512 0.373219 0.537883 -0.054861
S4    S     S_3+6 0.860243 0.578025 0.371703 0.004506

loop_
_geom_bond_atom_site_label_1
_geom_bond_atom_site_label_2
_ccdc_geom_bond_type
C3    C104  A    
C44   C49   A    
Cr9   O56   S    
C9    O56   A    
C73   C80   A    
C87   C91   A    
C7    O48   A    
C35   C53   S    
C120  H25   S    
C8    O45   A    
C20   C67   S    
C50   H47   S    
C18   C26   A    
C74   C83   S    
C72   C76   A    
C26   H1    S    
Cr2   O32   S    
C111  H16   S    
C102  C124  A    
C83   H3    S    
Cr6   O38   S    
C119  H28   S    
C1    C33   S    
C90   C95   A    
Cr5   O37   S    
C85   C86   S    
C68   O26   A    
C18   C65   S    
C98   C124  A    
C121  H30   S    
C58   H64   S    
C100  C105  A    
Cr5   O10   S    
C65   O22   A    
C57   H59   S    
C32   C36   A    
C96   C118  S    
C28   C29   A    
C2    C103  A    
C53   H52   S    
C9    C69   S    
C41   C58   S    
C38   C42   A    
Cr5   O12   S    
C84   S2    S    
C95   C112  S    
C2    H37   S    
C115  O32   A    
C48   O20   A    
C10   C73   S    
C95   C99   A    
C75   C84   S    
C80   H67   S    
C20   C25   A    
C94   C98   A    
Cr4   O30   S    
Cr10  O11   S    
Cr12  O27   S    
C66   O24   A    
C94   C111  S    
C6    C88   S    
C108  H13   S    
C14   O6    A    
Cr1   O36   S    
Cr8   O9    S    
C101  H6    S    
C55   H50   S    
C83   S1    S    
C89   C94   A    
C16   O8    A    
C4    O40   A    
C110  C119  S    
C110  H19   S    
Cr2   O6    S    
C91   C96   A    
C88   C93   A    
C52   C56   S    
Cr1   O9    S    
O57   S3    D    
C67   O25   A    
C38   C55   S    
C83   C84   S    
C27   H12   S    
C12   O36   A    
C54   H49   S    
Cr3   O33   S    
C109  C118  S    
C121  H26   S    
C104  H8    S    
O51   S1    S    
C40   C57   S    
C52   H51   S    
Cr11  O48   S    
Cr2   O28   S    
C53   H54   S    
O58   S3    S    
Cr12  O31   S    
C4    C90   S    
C23   C92   A    
Cr5   O15   S    
C93   C110  S    
C99   C121  S    
C14   O37   A    
O52   S2    D    
C117  O34   A    
C40   C62   A    
C18   C22   A    
C55   C60   S    
C57   H63   S    
O50   S1    D    
C103  H35   S    
C5    C89   S    
O60   S4    D    
C36   C41   A    
C15   O38   A    
C12   O5    A    
C31   C49   A    
O54   S2    S    
C82   H71   S    
C92   H33   S    
Cr7   O43   S    
C120  H29   S    
C56   H62   S    
Cr6   O42   S    
Cr8   O45   S    
C13   H38   S    
Cr11  O13   S    
Cr5   O41   S    
O59   S4    D    
C1    O14   A    
C54   H55   S    
C6    O42   A    
Cr3   O11   S    
C34   C39   A    
C17   C27   A    
C22   C81   A    
C5    O41   A    
C30   C47   A    
C102  C107  A    
C36   C54   S    
C76   C77   A    
C4    O44   A    
C15   O7    A    
C110  H15   S    
Cr2   O2    S    
C42   C60   S    
C53   C57   S    
C11   C72   S    
C119  H24   S    
O53   S2    D    
C48   O16   A    
C44   C62   A    
C107  H11   S    
Cr1   O14   S    
C46   C51   A    
C67   O29   A    
C28   H23   S    
C17   C21   A    
C64   C117  S    
C85   S3    S    
C13   C24   A    
C66   O28   A    
C111  C120  S    
C86   S4    S    
C5    O46   A    
C97   C119  S    
C19   C23   A    
C24   C81   A    
C60   H65   S    
C47   H44   S    
Cr8   O18   S    
C11   O4    A    
C88   C106  A    
C43   H40   S    
Cr7   O17   S    
C93   C97   A    
C10   O62   A    
C39   C56   S    
C87   C105  A    
C1    O18   A    
C37   O19   A    
C9    O2    A    
C105  H9    S    
C30   C59   S    
C89   C107  A    
Cr11  O63   S    
C26   C27   A    
Cr11  O26   S    
C12   C122  S    
C19   C68   S    
Cr12  O64   S    
Cr8   O44   S    
C101  C123  A    
C32   C37   S    
C98   C120  S    
C109  H18   S    
C97   C123  A    
C32   C50   A    
Cr7   O39   S    
C45   H42   S    
Cr4   O8    S    
C56   H58   S    
C63   C116  S    
C60   H61   S    
C80   C82   A    
C15   C124  S    
C55   H57   S    
C77   C86   S    
C51   H48   S    
C37   O15   A    
O55   S3    D    
C79   H56   S    
C116  O23   A    
Cr11  O21   S    
C29   H34   S    
C31   C35   A    
C115  O12   A    
C69   C79   A    
C33   C51   A    
C102  H7    S    
C41   C63   A    
C59   O21   A    
C34   C52   S    
C117  O35   A    
C74   C75   A    
C104  C108  A    
C39   C61   A    
C43   C61   A    
Cr12  O5    S    
C54   C58   S    
C16   O39   A    
Cr3   O3    S    
C101  C106  A    
C116  O33   A    
C30   C34   A    
C8    C71   S    
Cr1   O1    S    
C14   C123  S    
O61   S4    S    
C112  C121  S    
C78   C79   A    
C11   O63   A    
C46   H43   S    
C65   O27   A    
C25   C103  A    
C112  H17   S    
Cr9   O19   S    
Cr1   O40   S    
Cr7   O34   S    
Cr8   O22   S    
Cr4   O13   S    
Cr10  O47   S    
C44   H41   S    
C42   C64   A    
Cr3   O29   S    
Cr12  O9    S    
Cr10  O62   S    
C20   C28   A    
O49   S1    D    
Cr9   O10   S    
C106  H10   S    
C96   C122  A    
C21   C70   A    
C31   C48   S    
C78   H45   S    
C91   C109  S    
Cr6   O16   S    
C100  H5    S    
Cr9   O24   S    
C113  O1    A    
C62   C115  S    
C8    O64   A    
C68   O30   A    
H66   O51   S    
Cr4   O4    S    
C71   C75   A    
C2    C114  A    
Cr3   O7    S    
Cr9   O46   S    
C43   C47   A    
Cr6   O23   S    
C114  H36   S    
C81   H32   S    
C118  H27   S    
C58   H60   S    
Cr10  O25   S    
C45   C63   A    
C6    O47   A    
C109  H14   S    
C100  C122  A    
C52   H53   S    
C23   C25   A    
C35   C40   A    
C17   C66   S    
Cr6   O11   S    
C59   O17   A    
C70   H31   S    
C118  H22   S    
C86   H2    S    
C61   C113  S    
C90   C108  A    
C49   H46   S    
C3    C99   A    
C10   O3    A    
C113  O31   A    
C111  H20   S    
C7    C87   S    
H69   O58   S    
C84   H4    S    
H68   O54   S    
C13   C70   A    
H70   O61   S    
C46   C64   A    
Cr4   O35   S    
C73   C77   A    
C69   C74   A    
C112  H21   S    
C33   C38   A    
C45   C50   A    
C7    O43   A    
C21   C22   A    
C24   H39   S    
C92   C114  A    
C76   C85   S    
Cr7   O13   S    
C71   C78   A    
C72   C82   A    
C3    C16   S    
Cr2   O10   S    
C85   H72   S    
Cr10  O20   S    
C19   C29   A    
