data_mof_unit_63140.cif
_audit_creation_date              2012-12-10T21:03:45-0500
_audit_creation_method            fapswitch 2.2
_symmetry_space_group_name_H-M    P1
_symmetry_Int_Tables_number       1
_space_group_crystal_system       triclinic
_cell_length_a                    15.84954
_cell_length_b                    15.064142
_cell_length_c                    23.457433
_cell_angle_alpha                 90.00004
_cell_angle_beta                  89.991812
_cell_angle_gamma                 90.000139
_cell_volume                      5600.69010581

loop_
_atom_site_label
_atom_site_type_symbol
_atom_type_description
_atom_site_fract_x
_atom_site_fract_y
_atom_site_fract_z
_atom_type_partial_charge
C1    C     C_R   0.338852 0.500000 0.500028 0.914827
C2    C     C_R   0.500319 0.580705 0.703076 -0.181912
C3    C     C_R   0.499515 0.419419 0.237757 -0.076263
C4    C     C_R   0.500499 0.580581 0.762243 -0.076272
C5    C     C_R   0.499428 0.500002 0.208271 0.273389
C6    C     C_R   0.500556 0.499998 0.791728 0.273400
C7    C     C_R   0.956256 0.580810 0.499979 -0.156305
C8    C     C_R   0.043743 0.419190 0.500020 -0.156305
C9    C     C_R   0.043744 0.580810 0.499997 -0.155110
C10   C     C_R   0.956256 0.419190 0.500003 -0.155110
C11   C     C_R   0.913151 0.500000 0.499982 0.155921
C12   C     C_R   0.661148 0.500000 0.499972 0.914827
C13   C     C_R   0.086849 0.500000 0.500018 0.155921
C14   C     C_1   0.824374 0.500000 0.499971 -0.043463
C15   C     C_1   0.175626 0.500000 0.500029 -0.043463
C16   C     C_1   0.250461 0.500000 0.500032 -0.148161
C17   C     C_1   0.749539 0.500000 0.499968 -0.148161
C18   C     C_R   0.499949 0.500000 0.389012 0.880194
C19   C     C_R   0.500050 0.500000 0.610988 0.880193
C20   C     C_R   0.486683 0.953097 0.449261 0.515803
C21   C     C_R   0.513317 0.046903 0.550739 0.515804
C22   C     C_R   0.513316 0.953097 0.550738 0.515461
C23   C     C_R   0.499507 0.580583 0.237758 -0.079516
C24   C     C_R   0.486684 0.046903 0.449261 0.515461
C25   C     C_R   0.500000 0.905054 0.500000 -0.412935
C26   C     C_R   0.500000 0.094946 0.500000 -0.412936
C27   C     C_1   0.500000 0.807157 0.500000 0.358200
C28   C     C_1   0.500000 0.192843 0.500000 0.358200
C29   C     C_R   0.572318 0.475248 0.880530 0.560812
C30   C     C_R   0.427663 0.524748 0.119469 0.560812
C31   C     C_R   0.428889 0.524688 0.880478 0.560760
C32   C     C_R   0.571094 0.475315 0.119521 0.560757
C33   C     C_R   0.427260 0.525341 0.939950 -0.079546
C34   C     C_R   0.500451 0.419417 0.762242 -0.079519
C35   C     C_R   0.572722 0.474659 0.060049 -0.079544
C36   C     C_R   0.500308 0.499937 0.970015 -0.090854
C37   C     C_R   0.499673 0.500061 0.029984 -0.090853
C38   C     C_R   0.573909 0.474435 0.940246 -0.151196
C39   C     C_R   0.426072 0.525562 0.059753 -0.151196
C40   C     C_R   0.354433 0.550560 0.969766 -0.218866
C41   C     C_R   0.645549 0.449440 0.030233 -0.218866
C42   C     C_R   0.353526 0.550788 0.029062 0.688074
C43   C     C_R   0.646455 0.449210 0.970938 0.688073
C44   C     C_R   0.499686 0.580706 0.296925 -0.179872
C45   C     C_R   0.500279 0.419294 0.703075 -0.179866
C46   C     C_R   0.499796 0.500000 0.326855 -0.066149
C47   C     C_R   0.500200 0.500000 0.673145 -0.066150
C48   C     C_R   0.499701 0.419295 0.296924 -0.181916
F1    F     F_    0.281418 0.575828 0.055867 -0.583451
F2    F     F_    0.718563 0.424169 0.944132 -0.583451
F3    F     F_    0.473639 0.090886 0.399526 -0.591387
F4    F     F_    0.526361 0.909114 0.600474 -0.591387
F5    F     F_    0.526362 0.090885 0.600474 -0.590734
F6    F     F_    0.473638 0.909115 0.399526 -0.590735
H1    H     H_    0.297727 0.570278 0.947311 0.225383
H2    H     H_    0.500306 0.643745 0.680875 0.190554
H3    H     H_    0.077658 0.643288 0.499994 0.158184
H4    H     H_    0.922342 0.356712 0.500006 0.158184
H5    H     H_    0.922343 0.643288 0.499965 0.157858
H6    H     H_    0.077657 0.356712 0.500035 0.157858
H7    H     H_    0.702255 0.429723 0.052688 0.225383
H8    H     H_    0.499781 0.643745 0.319125 0.190827
H9    H     H_    0.500166 0.356255 0.680874 0.190824
H10   H     H_    0.499304 0.357117 0.214720 0.160114
H11   H     H_    0.500731 0.642881 0.785281 0.160107
H12   H     H_    0.499617 0.642885 0.214721 0.160949
H13   H     H_    0.500317 0.357115 0.785279 0.160938
H14   H     H_    0.499738 0.356254 0.319124 0.190552
N1    N     N_R   0.500597 0.499992 0.852374 -0.369844
N2    N     N_R   0.499385 0.500008 0.147626 -0.369840
N3    N     N_1   0.500000 0.270550 0.500000 -0.096956
N4    N     N_1   0.500000 0.729450 0.500000 -0.096956
O1    O     O_R   0.378020 0.573650 0.500020 -0.606712
O2    O     O_2   0.358367 0.547807 0.149445 -0.446881
O3    O     O_2   0.359372 0.547957 0.850767 -0.530502
O4    O     O_2   0.640613 0.452052 0.149231 -0.530509
O5    O     O_R   0.621980 0.426350 0.499980 -0.606711
O6    O     O_R   0.621980 0.573650 0.499980 -0.607781
O7    O     O_R   0.378020 0.426350 0.500020 -0.607781
O8    O     O_R   0.499980 0.573680 0.416160 -0.613570
O9    O     O_R   0.500020 0.426320 0.583840 -0.613570
O10   O     O_R   0.500020 0.573680 0.583840 -0.613647
O11   O     O_R   0.499980 0.426320 0.416160 -0.613646
O12   O     O_2   0.641613 0.452183 0.850555 -0.446874
Zn1   Zn    Zn3+2 0.500000 0.598370 0.500000 1.024312
Zn2   Zn    Zn3+2 0.500000 0.401630 0.500000 1.024312

loop_
_geom_bond_atom_site_label_1
_geom_bond_atom_site_label_2
_ccdc_geom_bond_type
C6    N1    S    
C21   C26   A    
C8    C13   A    
C41   H7    S    
N4    Zn1   S    
C18   O8    A    
C3    H10   S    
C7    C11   A    
C5    N2    S    
C23   H12   S    
C36   C37   A    
C35   C37   A    
C24   C26   A    
C4    H11   S    
C30   O2    S    
C11   C14   S    
C19   C47   S    
C20   C25   A    
C15   C16   T    
C3    C48   A    
C33   C36   A    
C9    C13   A    
C20   C24   A    
C22   C25   A    
C12   O6    A    
C29   C38   A    
C31   C33   A    
C19   O10   A    
O9    Zn2   S    
C24   F3    S    
C40   C42   A    
C21   C22   A    
C41   C43   A    
C14   C17   T    
C18   C46   S    
C7    H5    S    
C30   N2    A    
C44   C46   A    
C39   C42   A    
C29   N1    A    
C45   C47   A    
C46   C48   A    
C33   C40   A    
C32   C35   A    
C29   O12   S    
C20   F6    S    
C34   C45   A    
C32   N2    A    
C44   H8    S    
C45   H9    S    
C23   C44   A    
C6    C34   A    
C12   C17   S    
C2    C4    A    
O8    Zn1   S    
N3    Zn2   S    
C31   O3    S    
C5    C23   A    
C40   H1    S    
C12   O5    A    
C18   O11   A    
C1    C16   S    
C48   H14   S    
O1    Zn1   S    
O6    Zn1   S    
C4    C6    A    
O5    Zn2   S    
C13   C15   S    
C1    O7    A    
C28   N3    T    
C22   F4    S    
C7    C9    A    
C10   H4    S    
C3    C5    A    
C34   H13   S    
C32   O4    S    
C43   F2    S    
C2    C47   A    
C25   C27   S    
O10   Zn1   S    
C26   C28   S    
C1    O1    A    
C36   C38   A    
C38   C43   A    
C37   C39   A    
C2    H2    S    
C8    H6    S    
C21   F5    S    
C30   C39   A    
C9    H3    S    
C35   C41   A    
C10   C11   A    
C42   F1    S    
C31   N1    A    
O11   Zn2   S    
C8    C10   A    
C19   O9    A    
O7    Zn2   S    
C27   N4    T    
