data_mof_unit_53718.cif
_audit_creation_date              2012-12-10T16:52:09-0500
_audit_creation_method            fapswitch 2.2
_symmetry_space_group_name_H-M    P1
_symmetry_Int_Tables_number       1
_space_group_crystal_system       triclinic
_cell_length_a                    7.775806
_cell_length_b                    8.562078
_cell_length_c                    14.875486
_cell_angle_alpha                 91.094559
_cell_angle_beta                  86.007085
_cell_angle_gamma                 93.69162
_cell_volume                      985.805850713

loop_
_atom_site_label
_atom_site_type_symbol
_atom_type_description
_atom_site_fract_x
_atom_site_fract_y
_atom_site_fract_z
_atom_type_partial_charge
C1    C     C_R   0.545763 0.794682 0.497650 0.950610
C2    C     C_R   0.547004 0.634744 0.812350 -0.284470
C3    C     C_R   0.493242 0.505183 0.232426 -0.078507
C4    C     C_R   0.506754 0.494818 0.767574 -0.078507
C5    C     C_R   0.534382 0.646072 0.186929 0.020700
C6    C     C_R   0.465601 0.353932 0.813072 0.020699
C7    C     C_R   0.536981 0.644775 0.093057 0.129375
C8    C     C_R   0.462986 0.355233 0.906944 0.129377
C9    C     C_R   0.498016 0.501785 0.046957 0.023919
C10   C     C_R   0.501948 0.498224 0.953044 0.023919
C11   C     C_R   0.455442 0.362123 0.094735 0.132481
C12   C     C_R   0.454236 0.205318 0.502350 0.950611
C13   C     C_R   0.544528 0.637885 0.905265 0.132480
C14   C     C_R   0.578872 0.782379 0.044249 -0.198305
C15   C     C_R   0.421091 0.217631 0.955751 -0.198304
C16   C     C_R   0.582600 0.778741 0.950875 -0.228174
C17   C     C_R   0.417365 0.221268 0.049125 -0.228175
C18   C     C_2   0.569828 0.958230 0.496207 -0.386122
C19   C     C_2   0.430173 0.041770 0.503793 -0.386121
C20   C     C_R   0.502244 0.499092 0.672607 0.880341
C21   C     C_R   0.497756 0.500907 0.327393 0.880341
C22   C     C_R   0.452981 0.365260 0.187650 -0.284471
H1    H     H_    0.422213 0.258669 0.225484 0.141229
H2    H     H_    0.986456 0.617458 0.567931 0.194606
H3    H     H_    0.468223 0.811229 0.280427 0.187055
H4    H     H_    0.680677 0.774920 0.272594 0.199289
H5    H     H_    0.531807 0.188757 0.719596 0.187052
H6    H     H_    0.319358 0.225086 0.727382 0.199289
H7    H     H_    0.577777 0.741333 0.774516 0.141228
H8    H     H_    0.609391 0.893057 0.077785 0.175604
H9    H     H_    0.390573 0.106953 0.922216 0.175605
H10   H     H_    0.615305 0.886067 0.914283 0.154183
H11   H     H_    0.384662 0.113942 0.085717 0.154184
H12   H     H_    0.701707 0.009328 0.488894 0.182701
H13   H     H_    0.298293 0.990672 0.511106 0.182701
H14   H     H_    0.013544 0.382541 0.432068 0.194606
N1    N     N_2   0.950330 0.457950 0.475660 -0.173846
N2    N     N_2   0.049670 0.542050 0.524340 -0.173846
N3    N     N_3   0.573650 0.789326 0.235453 -0.480663
N4    N     N_3   0.426351 0.210675 0.764548 -0.480663
O1    O     O_R   0.389250 0.738570 0.505970 -0.612373
O2    O     O_R   0.610750 0.261430 0.494030 -0.612372
O3    O     O_R   0.678390 0.711620 0.490370 -0.633418
O4    O     O_R   0.321610 0.288380 0.509630 -0.633420
O5    O     O_R   0.355420 0.513510 0.639950 -0.614195
O6    O     O_R   0.644580 0.486490 0.360050 -0.614195
O7    O     O_R   0.644560 0.486560 0.624350 -0.624428
O8    O     O_R   0.355440 0.513440 0.375650 -0.624428
Zn1   Zn    Zn3+2 0.306940 0.517990 0.510420 0.942411
Zn2   Zn    Zn3+2 0.693060 0.482010 0.489580 0.942411

loop_
_geom_bond_atom_site_label_1
_geom_bond_atom_site_label_2
_ccdc_geom_bond_type
O4    Zn1   S    
C2    C4    A    
O3    Zn2   S    
C15   H9    S    
N1    N2    D    
C16   H10   S    
C9    C11   A    
C9    C10   A    
O6    Zn2   S    
C11   C22   A    
H2    N2    S    
C20   O5    A    
O5    Zn1   S    
H5    N4    S    
C21   O8    A    
C12   O4    A    
N2    Zn1   S    
C19   H13   S    
H3    N3    S    
N1    Zn2   S    
C18   H12   S    
C1    C18   S    
C17   H11   S    
C14   H8    S    
C2    H7    S    
C6    C8    A    
C12   C19   S    
O1    Zn1   S    
O8    Zn1   S    
O2    Zn2   S    
C18   C19   D    
O7    Zn2   S    
C6    N4    S    
C5    N3    S    
C14   C16   A    
H4    N3    S    
C3    C21   S    
C20   O7    A    
H6    N4    S    
C4    C20   S    
C7    C9    A    
C7    C14   A    
C4    C6    A    
C21   O6    A    
C13   C16   A    
C1    O1    A    
C5    C7    A    
C2    C13   A    
C22   H1    S    
H14   N1    S    
C3    C22   A    
C12   O2    A    
C8    C15   A    
C15   C17   A    
C1    O3    A    
C8    C10   A    
C11   C17   A    
C3    C5    A    
C10   C13   A    
