data_mof_unit_65621.cif
_audit_creation_date              2012-12-10T18:17:24-0500
_audit_creation_method            fapswitch 2.2
_symmetry_space_group_name_H-M    P1
_symmetry_Int_Tables_number       1
_space_group_crystal_system       triclinic
_cell_length_a                    26.181069
_cell_length_b                    33.019467
_cell_length_c                    33.023284
_cell_angle_alpha                 89.999988
_cell_angle_beta                  89.996226
_cell_angle_gamma                 89.989413
_cell_volume                      28548.1312659

loop_
_atom_site_label
_atom_site_type_symbol
_atom_type_description
_atom_site_fract_x
_atom_site_fract_y
_atom_site_fract_z
_atom_type_partial_charge
C1    C     C_R   0.392389 0.499374 0.750489 0.892971
C2    C     C_R   0.107611 0.999570 0.249314 0.892858
C3    C     C_1   0.749938 0.000004 0.399520 -0.172908
C4    C     C_1   0.249950 0.000008 0.100480 -0.172824
C5    C     C_1   0.750059 0.000003 0.899518 -0.177274
C6    C     C_1   0.750064 0.000007 0.100482 -0.175927
C7    C     C_1   0.249948 0.000010 0.899519 -0.174881
C8    C     C_1   0.249913 0.500000 0.563023 -0.012319
C9    C     C_1   0.750091 0.500002 0.436977 -0.010860
C10   C     C_1   0.750088 0.500005 0.563023 -0.011326
C11   C     C_1   0.249912 0.500005 0.436978 -0.010393
C12   C     C_1   0.749905 0.499992 0.063022 -0.010560
C13   C     C_R   0.107611 0.999570 0.750687 0.893510
C14   C     C_1   0.250106 0.499975 0.936976 -0.012503
C15   C     C_1   0.250105 0.499990 0.063023 -0.011167
C16   C     C_1   0.749892 0.499983 0.936978 -0.012137
C17   C     C_1   0.749895 0.999980 0.563022 -0.012442
C18   C     C_1   0.250102 0.999988 0.436977 -0.011124
C19   C     C_1   0.250110 0.999978 0.563023 -0.012204
C20   C     C_1   0.749902 0.999995 0.436978 -0.010611
C21   C     C_1   0.249920 0.000005 0.063022 -0.010357
C22   C     C_1   0.750095 0.999999 0.936976 -0.012089
C23   C     C_1   0.750100 0.000002 0.063023 -0.010896
C24   C     C_R   0.892379 0.999628 0.249398 0.908733
C25   C     C_1   0.249919 0.000006 0.936977 -0.011559
C26   C     C_1   0.249892 0.500001 0.518730 0.001976
C27   C     C_1   0.750111 0.500002 0.481271 0.002349
C28   C     C_1   0.750110 0.500003 0.518729 0.002202
C29   C     C_1   0.249891 0.500002 0.481272 0.002335
C30   C     C_1   0.749878 0.499985 0.018729 0.002023
C31   C     C_1   0.250128 0.499975 0.981271 0.001073
C32   C     C_1   0.250128 0.499980 0.018729 0.001732
C33   C     C_1   0.749874 0.499981 0.981271 0.001502
C34   C     C_1   0.749875 0.999981 0.518729 0.001388
C35   C     C_R   0.392379 0.999626 0.250602 0.908638
C36   C     C_1   0.250128 0.999979 0.481271 0.001788
C37   C     C_1   0.250130 0.999976 0.518729 0.001184
C38   C     C_1   0.749877 0.999985 0.481271 0.001962
C39   C     C_1   0.249901 0.000005 0.018728 0.002519
C40   C     C_1   0.750119 0.999998 0.981270 0.001912
C41   C     C_1   0.750121 0.999999 0.018729 0.002164
C42   C     C_1   0.249901 0.000005 0.981271 0.002266
C43   C     C_R   0.250026 0.500012 0.854458 0.798911
C44   C     C_R   0.749982 0.500021 0.145540 0.811402
C45   C     C_R   0.749974 0.500015 0.854460 0.806150
C46   C     C_R   0.607621 0.999456 0.749565 0.908295
C47   C     C_R   0.250021 0.500021 0.145542 0.813245
C48   C     C_R   0.750019 0.500021 0.354458 0.813315
C49   C     C_R   0.249982 0.500021 0.645540 0.811843
C50   C     C_R   0.249982 0.500023 0.354460 0.811460
C51   C     C_R   0.750018 0.500023 0.645542 0.811346
C52   C     C_R   0.750019 0.000020 0.854458 0.812040
C53   C     C_R   0.249984 0.000022 0.145540 0.811467
C54   C     C_R   0.249983 0.000023 0.854460 0.811164
C55   C     C_R   0.750021 0.000022 0.145542 0.813313
C56   C     C_R   0.250020 0.000020 0.354458 0.813249
C57   C     C_R   0.607611 0.999571 0.250686 0.892862
C58   C     C_R   0.749975 0.000014 0.645540 0.804865
C59   C     C_R   0.749981 0.000022 0.354460 0.811402
C60   C     C_R   0.250028 0.000013 0.645542 0.800209
C61   C     C_R   0.249997 0.604459 0.749999 0.802517
C62   C     C_R   0.749997 0.604459 0.249998 0.800548
C63   C     C_R   0.749999 0.604460 0.750002 0.800976
C64   C     C_R   0.249998 0.604459 0.250001 0.800582
C65   C     C_R   0.749999 0.104459 0.749998 0.801248
C66   C     C_R   0.249997 0.104459 0.249998 0.800548
C67   C     C_R   0.249996 0.104460 0.750001 0.802257
C68   C     C_R   0.392389 0.999374 0.749509 0.893528
C69   C     C_R   0.749998 0.104459 0.250001 0.800584
C70   C     C_R   0.249994 0.395588 0.749990 0.814804
C71   C     C_R   0.750001 0.395588 0.249996 0.802327
C72   C     C_R   0.750009 0.395589 0.749993 0.809603
C73   C     C_R   0.250001 0.395589 0.250003 0.802269
C74   C     C_R   0.750008 0.895588 0.750005 0.815474
C75   C     C_R   0.250001 0.895588 0.249996 0.802299
C76   C     C_R   0.249993 0.895589 0.750012 0.808940
C77   C     C_R   0.750001 0.895589 0.250003 0.802308
C78   C     C_1   0.249985 0.350524 0.749976 -0.179003
C79   C     C_1   0.249984 0.149530 0.749998 -0.174746
C80   C     C_1   0.750007 0.350524 0.249993 -0.184132
C81   C     C_1   0.750015 0.350525 0.749985 -0.180720
C82   C     C_1   0.250007 0.350524 0.250007 -0.184137
C83   C     C_1   0.750018 0.850524 0.750013 -0.182021
C84   C     C_1   0.250007 0.850524 0.249993 -0.184168
C85   C     C_1   0.249988 0.850525 0.750026 -0.177747
C86   C     C_1   0.750007 0.850524 0.250007 -0.184116
C87   C     C_1   0.249979 0.313061 0.749972 -0.012083
C88   C     C_1   0.750008 0.313061 0.249994 -0.015187
C89   C     C_1   0.750014 0.313062 0.749979 -0.012879
C90   C     C_1   0.749994 0.149529 0.250004 -0.177192
C91   C     C_1   0.250008 0.313061 0.250006 -0.015208
C92   C     C_1   0.750019 0.813061 0.750018 -0.012874
C93   C     C_1   0.250008 0.813061 0.249994 -0.015214
C94   C     C_1   0.249985 0.813061 0.750031 -0.012097
C95   C     C_1   0.750008 0.813061 0.250006 -0.015181
C96   C     C_1   0.249975 0.268760 0.749975 0.001290
C97   C     C_1   0.750005 0.268760 0.249997 -0.001476
C98   C     C_1   0.750010 0.268761 0.749977 0.000900
C99   C     C_1   0.250005 0.268760 0.250003 -0.001491
C100  C     C_1   0.750017 0.768760 0.750019 0.000957
C101  C     C_1   0.750000 0.149530 0.749991 -0.174096
C102  C     C_1   0.250005 0.768760 0.249997 -0.001498
C103  C     C_1   0.249983 0.768761 0.750028 0.001229
C104  C     C_1   0.750005 0.768760 0.250003 -0.001468
C105  C     C_1   0.249975 0.231297 0.749982 0.000867
C106  C     C_1   0.750001 0.231296 0.250000 -0.001491
C107  C     C_1   0.750006 0.231297 0.749980 0.000721
C108  C     C_1   0.250001 0.231296 0.250000 -0.001500
C109  C     C_1   0.750013 0.731297 0.750017 0.000588
C110  C     C_1   0.250001 0.731296 0.250000 -0.001507
C111  C     C_1   0.249982 0.731297 0.750021 0.000996
C112  C     C_R   0.607611 0.499570 0.249315 0.892781
C113  C     C_1   0.249994 0.149529 0.249996 -0.177171
C114  C     C_1   0.750001 0.731296 0.250000 -0.001484
C115  C     C_1   0.249978 0.186995 0.749992 -0.012390
C116  C     C_1   0.749996 0.186995 0.250003 -0.015058
C117  C     C_1   0.750002 0.186995 0.749986 -0.012476
C118  C     C_1   0.249996 0.186994 0.249997 -0.015062
C119  C     C_1   0.750007 0.686995 0.750013 -0.012713
C120  C     C_1   0.249996 0.686995 0.250003 -0.015069
C121  C     C_1   0.249983 0.686995 0.750010 -0.012157
C122  C     C_1   0.749996 0.686994 0.249997 -0.015053
C123  C     C_3   0.068983 0.394661 0.725889 -0.267322
C124  C     C_1   0.750002 0.649530 0.750008 -0.174653
C125  C     C_3   0.931067 0.394657 0.274099 -0.265874
C126  C     C_3   0.923758 0.403097 0.712398 -0.250947
C127  C     C_3   0.076284 0.403097 0.287602 -0.250208
C128  C     C_3   0.576291 0.403100 0.212389 -0.251482
C129  C     C_3   0.430984 0.401478 0.704629 -0.224011
C130  C     C_3   0.431068 0.394665 0.225875 -0.266929
C131  C     C_3   0.568757 0.396865 0.718929 -0.201995
C132  C     C_3   0.568764 0.896846 0.781008 -0.202368
C133  C     C_3   0.431027 0.894669 0.274084 -0.266972
C134  C     C_3   0.430973 0.901428 0.795256 -0.223803
C135  C     C_1   0.249994 0.649529 0.250004 -0.177199
C136  C     C_3   0.576255 0.903055 0.287544 -0.251495
C137  C     C_3   0.076287 0.903090 0.212408 -0.250199
C138  C     C_3   0.931024 0.894660 0.774045 -0.267118
C139  C     C_3   0.931067 0.894657 0.225908 -0.265877
C140  C     C_3   0.076252 0.903029 0.787490 -0.251213
C141  C     C_3   0.068730 0.531115 0.646810 -0.202355
C142  C     C_3   0.931259 0.531106 0.353192 -0.202254
C143  C     C_3   0.930962 0.545458 0.651436 -0.224453
C144  C     C_3   0.069019 0.545458 0.348564 -0.224528
C145  C     C_3   0.569035 0.545468 0.151441 -0.225945
C146  C     C_1   0.249987 0.649529 0.750002 -0.174193
C147  C     C_3   0.423756 0.462478 0.846974 -0.249235
C148  C     C_3   0.431275 0.531134 0.146816 -0.204315
C149  C     C_3   0.568978 0.475934 0.855375 -0.264356
C150  C     C_3   0.569028 0.976000 0.644621 -0.264651
C151  C     C_3   0.431254 0.031096 0.353195 -0.204357
C152  C     C_3   0.423799 0.962591 0.652961 -0.248927
C153  C     C_3   0.569022 0.045405 0.348587 -0.225978
C154  C     C_3   0.069035 0.045447 0.151431 -0.224396
C155  C     C_3   0.931247 0.031056 0.853207 -0.202544
C156  C     C_3   0.931274 0.031099 0.146806 -0.202411
C157  C     C_1   0.749994 0.649529 0.249996 -0.177167
C158  C     C_3   0.069024 0.045345 0.848614 -0.224396
C159  C     C_3   0.029854 0.454629 0.747009 0.393613
C160  C     C_3   0.970170 0.454627 0.252985 0.393518
C161  C     C_3   0.970219 0.454739 0.744015 0.367367
C162  C     C_3   0.029804 0.454742 0.255985 0.367285
C163  C     C_3   0.529804 0.454742 0.244009 0.367490
C164  C     C_R   0.607621 0.499458 0.750434 0.908786
C165  C     C_3   0.470376 0.462115 0.724476 0.403510
C166  C     C_3   0.470169 0.454629 0.247005 0.393708
C167  C     C_3   0.529885 0.460497 0.726920 0.380942
C168  C     C_3   0.529881 0.960477 0.773049 0.380919
C169  C     C_3   0.470170 0.954626 0.252977 0.393673
C170  C     C_3   0.470370 0.962089 0.775485 0.403486
C171  C     C_3   0.529805 0.954739 0.255965 0.367558
C172  C     C_3   0.029804 0.954740 0.244019 0.367276
C173  C     C_3   0.970170 0.954623 0.752959 0.393548
C174  C     C_3   0.970169 0.954627 0.247017 0.393529
C175  C     C_R   0.392379 0.499628 0.249398 0.908659
C176  C     C_3   0.029805 0.954735 0.755943 0.367469
C177  C     C_3   0.029415 0.519616 0.786949 -0.644069
C178  C     C_3   0.970577 0.519616 0.213050 -0.644362
C179  C     C_3   0.970504 0.517316 0.788006 -0.632556
C180  C     C_3   0.029489 0.517320 0.211996 -0.632552
C181  C     C_3   0.529483 0.517313 0.288007 -0.632899
C182  C     C_3   0.470502 0.538067 0.732739 -0.631963
C183  C     C_3   0.470571 0.519609 0.286954 -0.644671
C184  C     C_3   0.529415 0.537017 0.730452 -0.643810
C185  C     C_3   0.529413 0.036999 0.769575 -0.643650
C186  C     C_R   0.892379 0.499627 0.250601 0.908738
C187  C     C_3   0.470576 0.019623 0.213055 -0.644653
C188  C     C_3   0.470500 0.038049 0.767296 -0.632141
C189  C     C_3   0.529489 0.017336 0.212004 -0.632924
C190  C     C_3   0.029482 0.017322 0.288002 -0.632555
C191  C     C_3   0.970576 0.019638 0.713065 -0.644229
C192  C     C_3   0.970571 0.019619 0.286947 -0.644361
C193  C     C_3   0.029489 0.017354 0.712014 -0.632408
C194  C     C_3   0.029871 0.523141 0.710438 0.380950
C195  C     C_3   0.970117 0.523137 0.289562 0.381031
C196  C     C_3   0.970362 0.525589 0.712064 0.403892
C197  C     C_R   0.107621 0.499629 0.749396 0.908770
C198  C     C_3   0.029625 0.525591 0.287938 0.403830
C199  C     C_3   0.529632 0.525596 0.212066 0.403971
C200  C     C_3   0.470203 0.494079 0.795313 0.367267
C201  C     C_3   0.470124 0.523146 0.210443 0.381239
C202  C     C_3   0.529837 0.497067 0.795427 0.393320
C203  C     C_3   0.529846 0.997098 0.704569 0.393331
C204  C     C_3   0.470117 0.023128 0.289567 0.381259
C205  C     C_3   0.470211 0.994123 0.704679 0.367309
C206  C     C_3   0.529625 0.025575 0.287949 0.403920
C207  C     C_3   0.029631 0.025586 0.212060 0.403828
C208  C     C_R   0.107611 0.499571 0.250686 0.892849
C209  C     C_3   0.970117 0.023110 0.789579 0.381105
C210  C     C_3   0.970124 0.023134 0.210435 0.381034
C211  C     C_3   0.029626 0.025553 0.787964 0.403683
C212  C     C_3   0.050357 0.499075 0.748074 -0.103617
C213  C     C_3   0.949644 0.499072 0.251922 -0.103441
C214  C     C_3   0.949670 0.499069 0.747953 -0.101912
C215  C     C_3   0.050331 0.499073 0.252049 -0.101789
C216  C     C_3   0.550331 0.499072 0.247952 -0.101592
C217  C     C_3   0.449670 0.498011 0.750987 -0.102070
C218  C     C_3   0.449644 0.499074 0.248077 -0.103273
C219  C     C_R   0.892389 0.499568 0.749316 0.892900
C220  C     C_3   0.550356 0.498137 0.750988 -0.103699
C221  C     C_3   0.550357 0.998135 0.749010 -0.103495
C222  C     C_3   0.449644 0.999071 0.251922 -0.103269
C223  C     C_3   0.449670 0.998012 0.749009 -0.102280
C224  C     C_3   0.550331 0.999072 0.252049 -0.101601
C225  C     C_3   0.050331 0.999071 0.247951 -0.101791
C226  C     C_3   0.949644 0.999069 0.751924 -0.103333
C227  C     C_3   0.949644 0.999073 0.248077 -0.103441
C228  C     C_3   0.050331 0.999070 0.752050 -0.102194
C229  C     C_1   0.249945 0.500004 0.600481 -0.177875
C230  C     C_R   0.892379 0.999625 0.750603 0.908253
C231  C     C_1   0.750058 0.500006 0.399518 -0.175922
C232  C     C_1   0.750055 0.500009 0.600482 -0.174261
C233  C     C_1   0.249944 0.500010 0.399520 -0.172828
C234  C     C_1   0.749942 0.500001 0.100480 -0.172868
C235  C     C_1   0.250071 0.499985 0.899518 -0.177184
C236  C     C_1   0.250068 0.500001 0.100482 -0.176020
C237  C     C_1   0.749926 0.499992 0.899519 -0.178597
C238  C     C_1   0.749930 0.999989 0.600480 -0.178512
C239  C     C_1   0.250064 0.999998 0.399518 -0.175999
C240  C     C_1   0.250075 0.999988 0.600482 -0.177296
H1    H     H_    0.040268 0.440773 0.776871 0.013546
H2    H     H_    0.459760 0.940775 0.223113 0.013227
H3    H     H_    0.586808 0.890517 0.317556 0.189337
H4    H     H_    0.055029 0.879238 0.229153 0.133867
H5    H     H_    0.112217 0.910861 0.228556 0.151619
H6    H     H_    0.086840 0.890567 0.182389 0.189776
H7    H     H_    0.962234 0.876811 0.759778 0.135026
H8    H     H_    0.898021 0.897328 0.753012 0.159379
H9    H     H_    0.917949 0.877938 0.801264 0.191795
H10   H     H_    0.898076 0.897287 0.246961 0.159711
H11   H     H_    0.962307 0.876818 0.240143 0.134739
H12   H     H_    0.917990 0.877947 0.198683 0.192077
H13   H     H_    0.459801 0.969293 0.807565 -0.002348
H14   H     H_    0.112183 0.910786 0.771333 0.151452
H15   H     H_    0.054955 0.879207 0.770733 0.133981
H16   H     H_    0.086804 0.890471 0.817493 0.189585
H17   H     H_    0.106185 0.541879 0.658230 0.176720
H18   H     H_    0.043644 0.557429 0.640507 0.114797
H19   H     H_    0.075598 0.515247 0.617714 0.184165
H20   H     H_    0.893798 0.541870 0.341776 0.176685
H21   H     H_    0.956335 0.557419 0.359494 0.114725
H22   H     H_    0.924404 0.515237 0.382288 0.184159
H23   H     H_    0.959753 0.570018 0.648922 0.104709
H24   H     H_    0.544264 0.937351 0.229184 0.008168
H25   H     H_    0.895176 0.557938 0.664431 0.181439
H26   H     H_    0.922335 0.534568 0.620411 0.185361
H27   H     H_    0.040217 0.570019 0.351082 0.104718
H28   H     H_    0.104798 0.557939 0.335566 0.181423
H29   H     H_    0.077656 0.534569 0.379588 0.185355
H30   H     H_    0.604814 0.557945 0.164439 0.181816
H31   H     H_    0.540237 0.570032 0.148929 0.105010
H32   H     H_    0.577673 0.534582 0.120415 0.184532
H33   H     H_    0.387822 0.478639 0.839221 0.151569
H34   H     H_    0.445039 0.479220 0.870814 0.134679
H35   H     H_    0.044263 0.937338 0.270790 0.008262
H36   H     H_    0.413210 0.432459 0.859502 0.190091
H37   H     H_    0.456352 0.557449 0.140522 0.115013
H38   H     H_    0.393811 0.541894 0.158233 0.177181
H39   H     H_    0.424426 0.515273 0.117715 0.182960
H40   H     H_    0.537756 0.490180 0.873226 0.135410
H41   H     H_    0.601972 0.496979 0.852734 0.159331
H42   H     H_    0.582062 0.448699 0.872074 0.192668
H43   H     H_    0.602037 0.997024 0.647299 0.159438
H44   H     H_    0.537837 0.990280 0.626767 0.135462
H45   H     H_    0.582106 0.948774 0.627903 0.192613
H46   H     H_    0.959757 0.940784 0.723090 0.013465
H47   H     H_    0.393794 0.041863 0.341780 0.177198
H48   H     H_    0.456332 0.057407 0.359499 0.115015
H49   H     H_    0.424396 0.015225 0.382290 0.182970
H50   H     H_    0.445122 0.979348 0.629153 0.134580
H51   H     H_    0.387864 0.978758 0.660707 0.151693
H52   H     H_    0.413251 0.932589 0.640397 0.190166
H53   H     H_    0.540227 0.069970 0.351115 0.105034
H54   H     H_    0.604804 0.057885 0.335596 0.181811
H55   H     H_    0.577653 0.034498 0.379606 0.184534
H56   H     H_    0.104811 0.057930 0.164427 0.181409
H57   H     H_    0.959760 0.940775 0.276882 0.013415
H58   H     H_    0.040232 0.070008 0.148911 0.104689
H59   H     H_    0.077676 0.034554 0.120408 0.185452
H60   H     H_    0.893787 0.041826 0.841793 0.176792
H61   H     H_    0.956324 0.057365 0.859520 0.114788
H62   H     H_    0.924389 0.015175 0.882296 0.184059
H63   H     H_    0.956350 0.057412 0.140501 0.114747
H64   H     H_    0.893811 0.041863 0.158222 0.176694
H65   H     H_    0.924422 0.015227 0.117711 0.184054
H66   H     H_    0.040229 0.069908 0.851162 0.104747
H67   H     H_    0.104805 0.057833 0.835629 0.181389
H68   H     H_    0.044261 0.937362 0.729151 0.008349
H69   H     H_    0.077660 0.034417 0.879625 0.185488
H70   H     H_    0.045212 0.504646 0.814433 0.225516
H71   H     H_    0.954791 0.504647 0.185564 0.225345
H72   H     H_    0.958255 0.498404 0.814166 0.223835
H73   H     H_    0.959767 0.440773 0.223122 0.013412
H74   H     H_    0.041751 0.498410 0.185836 0.223747
H75   H     H_    0.541740 0.498400 0.314165 0.223521
H76   H     H_    0.454598 0.542912 0.701856 0.209869
H77   H     H_    0.454780 0.504634 0.314436 0.225123
H78   H     H_    0.541701 0.537989 0.698197 0.208529
H79   H     H_    0.541699 0.037951 0.801828 0.208549
H80   H     H_    0.454795 0.004656 0.185566 0.225099
H81   H     H_    0.454596 0.042861 0.798185 0.209869
H82   H     H_    0.541757 0.998440 0.185835 0.223520
H83   H     H_    0.041739 0.998414 0.314164 0.223745
H84   H     H_    0.955767 0.437334 0.770784 0.008278
H85   H     H_    0.954797 0.004680 0.685570 0.225417
H86   H     H_    0.954778 0.004653 0.314434 0.225342
H87   H     H_    0.041760 0.998474 0.685835 0.223875
H88   H     H_    0.044709 0.554852 0.712928 -0.002376
H89   H     H_    0.955262 0.554848 0.287074 -0.002398
H90   H     H_    0.959804 0.557666 0.719311 -0.002701
H91   H     H_    0.040165 0.557668 0.280692 -0.002702
H92   H     H_    0.540174 0.557672 0.219316 -0.002664
H93   H     H_    0.455743 0.520857 0.812709 0.008329
H94   H     H_    0.455271 0.554857 0.212939 -0.002333
H95   H     H_    0.044269 0.437337 0.229216 0.008266
H96   H     H_    0.540246 0.526930 0.809288 0.013399
H97   H     H_    0.540265 0.026967 0.690728 0.013422
H98   H     H_    0.455268 0.054841 0.287081 -0.002303
H99   H     H_    0.455762 0.020924 0.687314 0.008295
H100  H     H_    0.540173 0.057655 0.280720 -0.002648
H101  H     H_    0.040172 0.057664 0.219303 -0.002699
H102  H     H_    0.955271 0.054824 0.787104 -0.002317
H103  H     H_    0.955269 0.054845 0.212921 -0.002398
H104  H     H_    0.040178 0.057637 0.780754 -0.002674
H105  H     H_    0.041680 0.551876 0.787915 0.208330
H106  H     H_    0.544262 0.437335 0.270777 0.008147
H107  H     H_    0.958294 0.551876 0.212085 0.208251
H108  H     H_    0.954582 0.548198 0.792859 0.209635
H109  H     H_    0.045394 0.548203 0.207145 0.209551
H110  H     H_    0.545386 0.548197 0.292862 0.209464
H111  H     H_    0.458233 0.564232 0.751641 0.224034
H112  H     H_    0.458286 0.551869 0.287926 0.208173
H113  H     H_    0.545194 0.564503 0.745427 0.225664
H114  H     H_    0.545190 0.064496 0.754615 0.225643
H115  H     H_    0.458286 0.051882 0.212094 0.208181
H116  H     H_    0.458228 0.064234 0.748423 0.224018
H117  H     H_    0.459822 0.469356 0.692402 -0.002352
H118  H     H_    0.545388 0.048224 0.207168 0.209469
H119  H     H_    0.045387 0.048206 0.292851 0.209556
H120  H     H_    0.958283 0.051896 0.712116 0.208316
H121  H     H_    0.958288 0.051880 0.287909 0.208248
H122  H     H_    0.045386 0.048246 0.707197 0.209684
H123  H     H_    0.037748 0.376821 0.740121 0.135094
H124  H     H_    0.101971 0.397285 0.746942 0.159329
H125  H     H_    0.082070 0.377955 0.698660 0.191756
H126  H     H_    0.962312 0.376818 0.259866 0.134742
H127  H     H_    0.898081 0.397282 0.253044 0.159701
H128  H     H_    0.459758 0.440768 0.276865 0.013255
H129  H     H_    0.917986 0.377949 0.301325 0.192070
H130  H     H_    0.887823 0.410870 0.728548 0.151329
H131  H     H_    0.945021 0.379240 0.729139 0.133955
H132  H     H_    0.913212 0.390579 0.682378 0.189616
H133  H     H_    0.112217 0.410868 0.271456 0.151619
H134  H     H_    0.055032 0.379242 0.270857 0.133867
H135  H     H_    0.086829 0.390575 0.317623 0.189781
H136  H     H_    0.555033 0.379244 0.229128 0.134028
H137  H     H_    0.612220 0.410869 0.228539 0.151881
H138  H     H_    0.586845 0.390583 0.182367 0.189341
H139  H     H_    0.544729 0.462995 0.695212 -0.002057
H140  H     H_    0.459776 0.398955 0.680066 0.105383
H141  H     H_    0.395199 0.414476 0.692154 0.181455
H142  H     H_    0.422356 0.370453 0.715525 0.185385
H143  H     H_    0.398075 0.397288 0.246927 0.159888
H144  H     H_    0.462307 0.376822 0.240107 0.134854
H145  H     H_    0.417994 0.377964 0.198644 0.191742
H146  H     H_    0.606213 0.408286 0.708165 0.176881
H147  H     H_    0.543674 0.390569 0.692620 0.115218
H148  H     H_    0.575624 0.367761 0.734787 0.183806
H149  H     H_    0.543676 0.890536 0.807314 0.115360
H150  H     H_    0.544711 0.962958 0.804762 -0.001984
H151  H     H_    0.606217 0.908265 0.791778 0.176817
H152  H     H_    0.575637 0.867751 0.765135 0.183792
H153  H     H_    0.462241 0.876816 0.259827 0.134826
H154  H     H_    0.398027 0.897326 0.253047 0.159953
H155  H     H_    0.417950 0.877957 0.301309 0.191745
H156  H     H_    0.395182 0.914413 0.807740 0.181480
H157  H     H_    0.459754 0.898875 0.819820 0.105304
H158  H     H_    0.422347 0.870416 0.784323 0.185393
H159  H     H_    0.612185 0.910807 0.271384 0.151921
H160  H     H_    0.554963 0.879221 0.270801 0.134055
O1    O     O_3   0.250000 0.500030 0.750000 -0.432026
O2    O     O_R   0.633160 0.478000 0.271990 -0.664622
O3    O     O_R   0.866840 0.022050 0.227940 -0.651406
O4    O     O_R   0.366840 0.022050 0.272060 -0.651399
O5    O     O_R   0.633160 0.022050 0.727940 -0.654475
O6    O     O_R   0.633160 0.022050 0.272060 -0.635660
O7    O     O_R   0.366840 0.022050 0.727940 -0.663555
O8    O     O_3   0.051884 0.433344 0.713855 -0.510090
O9    O     O_3   0.948148 0.433339 0.286136 -0.510191
O10   O     O_3   0.954279 0.437793 0.706448 -0.495135
O11   O     O_3   0.045749 0.437794 0.293552 -0.495283
O12   O     O_3   0.545759 0.437800 0.206441 -0.495556
O13   O     O_R   0.633160 0.478000 0.728010 -0.651756
O14   O     O_3   0.448808 0.424757 0.737647 -0.503584
O15   O     O_3   0.448156 0.433349 0.213847 -0.510404
O16   O     O_3   0.546084 0.424225 0.746462 -0.493858
O17   O     O_3   0.546094 0.924219 0.753488 -0.493962
O18   O     O_3   0.448160 0.933334 0.286130 -0.510374
O19   O     O_3   0.448812 0.924744 0.762268 -0.503471
O20   O     O_3   0.545764 0.937773 0.293519 -0.495579
O21   O     O_3   0.045757 0.937789 0.206455 -0.495276
O22   O     O_3   0.948163 0.933319 0.786106 -0.510078
O23   O     O_3   0.948154 0.933337 0.213867 -0.510193
O24   O     O_R   0.366840 0.478000 0.271990 -0.654848
O25   O     O_3   0.045768 0.937747 0.793487 -0.495129
O26   O     O_3   0.046060 0.503589 0.674172 -0.493622
O27   O     O_3   0.953937 0.503581 0.325826 -0.493533
O28   O     O_3   0.948785 0.512427 0.674709 -0.503154
O29   O     O_3   0.051208 0.512428 0.325293 -0.503137
O30   O     O_3   0.551219 0.512436 0.174709 -0.503397
O31   O     O_3   0.454253 0.456514 0.812265 -0.495679
O32   O     O_3   0.453947 0.503601 0.174174 -0.493727
O33   O     O_3   0.551856 0.463903 0.816705 -0.510558
O34   O     O_3   0.551857 0.963941 0.683271 -0.510587
O35   O     O_R   0.866840 0.478000 0.228010 -0.654738
O36   O     O_3   0.453929 0.003571 0.325828 -0.493746
O37   O     O_3   0.454248 0.956581 0.687686 -0.495695
O38   O     O_3   0.551202 0.012390 0.325298 -0.503392
O39   O     O_3   0.051221 0.012420 0.174706 -0.503142
O40   O     O_3   0.953924 0.003540 0.825831 -0.493621
O41   O     O_3   0.953950 0.003576 0.174172 -0.493511
O42   O     O_3   0.051200 0.012345 0.825306 -0.503171
O43   O     O_R   0.133160 0.478000 0.771990 -0.654650
O44   O     O_R   0.133160 0.478000 0.228010 -0.664501
O45   O     O_R   0.866840 0.478000 0.771990 -0.664486
O46   O     O_R   0.866840 0.978000 0.728010 -0.655224
O47   O     O_R   0.133160 0.978000 0.271990 -0.664505
O48   O     O_R   0.133160 0.978000 0.728010 -0.663929
O49   O     O_3   0.750000 0.500030 0.250000 -0.431855
O50   O     O_R   0.866840 0.978000 0.271990 -0.654736
O51   O     O_R   0.366840 0.978000 0.228010 -0.654885
O52   O     O_R   0.633160 0.978000 0.771990 -0.652255
O53   O     O_R   0.633160 0.978000 0.228010 -0.664597
O54   O     O_R   0.366840 0.978000 0.771990 -0.635952
O55   O     O_R   0.280630 0.522060 0.834040 -0.633121
O56   O     O_R   0.719370 0.522060 0.165960 -0.629537
O57   O     O_R   0.719370 0.522060 0.834040 -0.631647
O58   O     O_R   0.280630 0.522060 0.165960 -0.635000
O59   O     O_R   0.780630 0.522060 0.334040 -0.634914
O60   O     O_3   0.750000 0.500030 0.750000 -0.432022
O61   O     O_R   0.219370 0.522060 0.665960 -0.633532
O62   O     O_R   0.219370 0.522060 0.334040 -0.629456
O63   O     O_R   0.780630 0.522060 0.665960 -0.628474
O64   O     O_R   0.780630 0.022060 0.834040 -0.633970
O65   O     O_R   0.219370 0.022060 0.165960 -0.629421
O66   O     O_R   0.219370 0.022060 0.834040 -0.628092
O67   O     O_R   0.780630 0.022060 0.165960 -0.634951
O68   O     O_R   0.280630 0.022060 0.334040 -0.634998
O69   O     O_R   0.719370 0.022060 0.665960 -0.631697
O70   O     O_R   0.719370 0.022060 0.334040 -0.629569
O71   O     O_3   0.250000 0.500030 0.250000 -0.431848
O72   O     O_R   0.280630 0.022060 0.665960 -0.633117
O73   O     O_R   0.280630 0.584040 0.772060 -0.624625
O74   O     O_R   0.719370 0.584040 0.227940 -0.635563
O75   O     O_R   0.719370 0.584040 0.772060 -0.626466
O76   O     O_R   0.280630 0.584040 0.227940 -0.633061
O77   O     O_R   0.780630 0.584040 0.272060 -0.633095
O78   O     O_R   0.219370 0.584040 0.727940 -0.634506
O79   O     O_R   0.219370 0.584040 0.272060 -0.635600
O80   O     O_R   0.780630 0.584040 0.727940 -0.636649
O81   O     O_R   0.780630 0.084040 0.772060 -0.634467
O82   O     O_3   0.750000 0.000030 0.750000 -0.431786
O83   O     O_R   0.219370 0.084040 0.227940 -0.635604
O84   O     O_R   0.219370 0.084040 0.772060 -0.636653
O85   O     O_R   0.780630 0.084040 0.227940 -0.633093
O86   O     O_R   0.280630 0.084040 0.272060 -0.633046
O87   O     O_R   0.719370 0.084040 0.727940 -0.626885
O88   O     O_R   0.719370 0.084040 0.272060 -0.635559
O89   O     O_R   0.280630 0.084040 0.727940 -0.624218
O90   O     O_R   0.280630 0.416020 0.728000 -0.626767
O91   O     O_R   0.719370 0.416020 0.272000 -0.630358
O92   O     O_R   0.719370 0.416020 0.728000 -0.632107
O93   O     O_3   0.250000 0.000030 0.250000 -0.431845
O94   O     O_R   0.280630 0.416020 0.272000 -0.628853
O95   O     O_R   0.780630 0.416020 0.228000 -0.628848
O96   O     O_R   0.219370 0.416020 0.772000 -0.631579
O97   O     O_R   0.219370 0.416020 0.228000 -0.630364
O98   O     O_R   0.780630 0.416020 0.772000 -0.631145
O99   O     O_R   0.780630 0.916020 0.728000 -0.629756
O100  O     O_R   0.219370 0.916020 0.272000 -0.630349
O101  O     O_R   0.219370 0.916020 0.728000 -0.633000
O102  O     O_R   0.780630 0.916020 0.272000 -0.628857
O103  O     O_R   0.280630 0.916020 0.228000 -0.628887
O104  O     O_3   0.250000 0.000030 0.750000 -0.432241
O105  O     O_R   0.719370 0.916020 0.772000 -0.632195
O106  O     O_R   0.719370 0.916020 0.228000 -0.630353
O107  O     O_R   0.280630 0.916020 0.772000 -0.626704
O108  O     O_R   0.219370 0.478010 0.834030 -0.625173
O109  O     O_R   0.780630 0.478010 0.165970 -0.628009
O110  O     O_R   0.780630 0.478010 0.834030 -0.623103
O111  O     O_R   0.219370 0.478010 0.165970 -0.623927
O112  O     O_R   0.719370 0.478010 0.334030 -0.624093
O113  O     O_R   0.280630 0.478010 0.665970 -0.634669
O114  O     O_R   0.280630 0.478010 0.334030 -0.628174
O115  O     O_3   0.750000 0.000030 0.250000 -0.431851
O116  O     O_R   0.719370 0.478010 0.665970 -0.634396
O117  O     O_R   0.719370 0.978010 0.834030 -0.632475
O118  O     O_R   0.280630 0.978010 0.165970 -0.628213
O119  O     O_R   0.280630 0.978010 0.834030 -0.636539
O120  O     O_R   0.719370 0.978010 0.165970 -0.624056
O121  O     O_R   0.219370 0.978010 0.334030 -0.623928
O122  O     O_R   0.780630 0.978010 0.665970 -0.625313
O123  O     O_R   0.780630 0.978010 0.334030 -0.627999
O124  O     O_R   0.219370 0.978010 0.665970 -0.622958
O125  O     O_R   0.366840 0.522050 0.772060 -0.663685
O126  O     O_R   0.366840 0.478000 0.728010 -0.636366
O127  O     O_R   0.633160 0.522050 0.227940 -0.635603
O128  O     O_R   0.633160 0.522050 0.772060 -0.654327
O129  O     O_R   0.366840 0.522050 0.227940 -0.651404
O130  O     O_R   0.866840 0.522050 0.272060 -0.651393
O131  O     O_R   0.133160 0.522050 0.727940 -0.651478
O132  O     O_R   0.133160 0.522050 0.272060 -0.635596
O133  O     O_R   0.866840 0.522050 0.727940 -0.635620
O134  O     O_R   0.866840 0.022050 0.772060 -0.651603
O135  O     O_R   0.133160 0.022050 0.227940 -0.635590
O136  O     O_R   0.133160 0.022050 0.772060 -0.635592
Zn1   Zn    Zn3+2 0.206230 0.468570 0.781490 0.979500
Zn2   Zn    Zn3+2 0.293770 0.968570 0.218510 0.979016
Zn3   Zn    Zn3+2 0.293770 0.968570 0.781490 0.976802
Zn4   Zn    Zn3+2 0.706230 0.968570 0.218510 0.975735
Zn5   Zn    Zn3+2 0.206230 0.968570 0.281490 0.975938
Zn6   Zn    Zn3+2 0.793770 0.968570 0.718510 0.982397
Zn7   Zn    Zn3+2 0.793770 0.968570 0.281490 0.979337
Zn8   Zn    Zn3+2 0.206230 0.968570 0.718510 0.973202
Zn9   Zn    Zn3+2 0.293770 0.531500 0.781500 0.969464
Zn10  Zn    Zn3+2 0.706230 0.531500 0.218500 0.972657
Zn11  Zn    Zn3+2 0.706230 0.531500 0.781500 0.976216
Zn12  Zn    Zn3+2 0.793770 0.468570 0.218510 0.979348
Zn13  Zn    Zn3+2 0.293770 0.531500 0.218500 0.970789
Zn14  Zn    Zn3+2 0.793770 0.531500 0.281500 0.970917
Zn15  Zn    Zn3+2 0.206230 0.531500 0.718500 0.971102
Zn16  Zn    Zn3+2 0.206230 0.531500 0.281500 0.972791
Zn17  Zn    Zn3+2 0.793770 0.531500 0.718500 0.972900
Zn18  Zn    Zn3+2 0.793770 0.031500 0.781500 0.970694
Zn19  Zn    Zn3+2 0.206230 0.031500 0.218500 0.972805
Zn20  Zn    Zn3+2 0.206230 0.031500 0.781500 0.973302
Zn21  Zn    Zn3+2 0.793770 0.031500 0.218500 0.970904
Zn22  Zn    Zn3+2 0.293770 0.031500 0.281500 0.970788
Zn23  Zn    Zn3+2 0.793770 0.468570 0.781490 0.976100
Zn24  Zn    Zn3+2 0.706230 0.031500 0.718500 0.975786
Zn25  Zn    Zn3+2 0.706230 0.031500 0.281500 0.972653
Zn26  Zn    Zn3+2 0.293770 0.031500 0.718500 0.969876
Zn27  Zn    Zn3+2 0.206230 0.468570 0.218510 0.975914
Zn28  Zn    Zn3+2 0.706230 0.468570 0.281490 0.975693
Zn29  Zn    Zn3+2 0.293770 0.468570 0.718510 0.979803
Zn30  Zn    Zn3+2 0.293770 0.468570 0.281490 0.979067
Zn31  Zn    Zn3+2 0.706230 0.468570 0.718510 0.974623
Zn32  Zn    Zn3+2 0.706230 0.968570 0.781490 0.977641

loop_
_geom_bond_atom_site_label_1
_geom_bond_atom_site_label_2
_ccdc_geom_bond_type
C194  C196  S    
C127  H133  S    
C190  C225  S    
C8    C26   S    
O117  Zn32  S    
O85   Zn21  S    
C178  H71   S    
C169  H2    S    
C161  C214  S    
C138  H9    S    
C154  O39   S    
C175  O129  A    
C187  H80   S    
C15   C32   S    
C153  H55   S    
C203  C205  S    
C154  H56   S    
C143  H23   S    
C177  H70   S    
O51   Zn2   S    
C193  H87   S    
O115  Zn4   S    
O132  Zn16  S    
C166  H128  S    
C10   C28   S    
C131  H148  S    
C128  H136  S    
C76   O101  A    
C74   O105  A    
O119  Zn3   S    
C148  H37   S    
C149  H40   S    
O73   Zn9   S    
C19   C37   S    
O92   Zn31  S    
C168  H150  S    
O4    Zn22  S    
C112  O2    A    
C165  O14   S    
C207  C210  S    
C141  H18   S    
C159  C161  S    
C60   C240  S    
C150  H45   S    
C90   C116  T    
C74   C83   S    
C88   C97   S    
C35   O4    A    
C195  C198  S    
C204  C222  S    
O120  Zn4   S    
C100  C109  T    
O57   Zn11  S    
C185  C221  S    
C131  O16   S    
C123  H123  S    
O87   Zn24  S    
C181  C183  S    
C210  H103  S    
C58   O69   A    
C54   O66   A    
C46   O5    A    
C67   C79   S    
C145  O30   S    
C53   O65   A    
O114  Zn30  S    
C76   O107  A    
C155  H60   S    
C205  C223  S    
C194  H88   S    
C82   C91   T    
C191  H85   S    
C13   O136  A    
C142  O27   S    
C204  O36   S    
C25   C42   S    
C50   C233  S    
C174  C227  S    
O90   Zn29  S    
O125  Zn9   S    
C163  C216  S    
O122  Zn6   S    
O88   Zn25  S    
O5    Zn24  S    
C130  H143  S    
C10   C232  T    
C211  H104  S    
C59   O70   A    
O44   Zn27  S    
O115  Zn7   S    
C175  O24   A    
C196  O28   S    
C13   O48   A    
O1    Zn9   S    
C160  H73   S    
C230  O134  A    
O133  Zn17  S    
C230  O46   A    
O96   Zn1   S    
C197  O131  A    
C144  H27   S    
C1    O125  A    
C17   C34   S    
O47   Zn5   S    
C172  H35   S    
C68   O54   A    
C70   O90   A    
C178  C213  S    
C43   O108  A    
C180  C215  S    
C152  H50   S    
C132  H149  S    
C151  H47   S    
O49   Zn10  S    
O72   Zn26  S    
C187  C222  S    
C179  H108  S    
C131  H146  S    
C156  H65   S    
C23   C41   S    
C148  H39   S    
C120  C135  T    
C158  H69   S    
C180  H109  S    
C80   C88   T    
C182  H111  S    
C179  C214  S    
O50   Zn7   S    
C125  O9    S    
C166  O15   S    
C181  C216  S    
C84   C93   T    
O130  Zn14  S    
C184  H78   S    
O53   Zn4   S    
C86   C95   T    
C65   O87   A    
C194  C212  S    
O1    Zn29  S    
C184  C220  S    
C200  C202  S    
C2    O135  A    
C203  O34   S    
C149  H41   S    
C155  O40   S    
O104  Zn20  S    
O60   Zn11  S    
C181  H110  S    
C76   C85   S    
O110  Zn23  S    
C183  H112  S    
C71   O95   A    
C78   C87   T    
C11   C233  T    
C186  C213  S    
C211  O42   S    
C47   O111  A    
C186  O35   A    
C66   C113  S    
C79   C115  T    
C134  H158  S    
O129  Zn13  S    
C65   C101  S    
C14   C31   S    
O71   Zn30  S    
C149  O33   S    
C63   C124  S    
O43   Zn1   S    
C129  H140  S    
C75   O103  A    
C133  H153  S    
C99   C108  T    
C74   O99   A    
C183  H77   S    
C36   C37   T    
C49   O61   A    
C77   C86   S    
C44   C234  S    
O67   Zn21  S    
C75   C84   S    
C174  O23   S    
C176  H68   S    
C196  C214  S    
C163  O12   S    
C202  C220  S    
C126  H131  S    
O113  Zn29  S    
C170  O19   S    
C67   O89   A    
C195  O27   S    
C52   O64   A    
O76   Zn13  S    
C128  H137  S    
C206  C224  S    
C177  C179  S    
C125  H127  S    
C15   C236  T    
C186  O130  A    
C142  H21   S    
O86   Zn22  S    
O60   Zn31  S    
O62   Zn16  S    
C165  C217  S    
C150  H43   S    
O123  Zn7   S    
C136  H160  S    
C87   C96   S    
O101  Zn8   S    
C49   C229  S    
C169  C171  S    
C151  O36   S    
C152  H52   S    
C67   O84   A    
C132  H151  S    
O49   Zn12  S    
C14   C235  T    
C172  C174  S    
C45   C237  S    
C51   O116  A    
O82   Zn32  S    
C199  H92   S    
C176  C228  S    
C196  H90   S    
O82   Zn18  S    
C73   O97   A    
C45   O57   A    
C43   O55   A    
C226  C230  S    
O71   Zn27  S    
O54   Zn3   S    
C145  H30   S    
C160  C162  S    
C125  H129  S    
O93   Zn2   S    
C137  H5    S    
C8    C229  T    
C169  C222  S    
O45   Zn23  S    
O79   Zn16  S    
C155  H61   S    
C201  O32   S    
C158  H66   S    
C168  O17   S    
C140  H15   S    
O107  Zn3   S    
C156  O41   S    
C52   O117  A    
C147  H33   S    
C202  O33   S    
C184  H113  S    
C62   O74   A    
C61   O73   A    
C185  H79   S    
C208  C215  S    
C211  C228  S    
C134  H156  S    
C198  O29   S    
C160  O9    S    
O69   Zn24  S    
C129  H142  S    
C204  H98   S    
C132  O17   S    
O52   Zn32  S    
O56   Zn10  S    
O55   Zn9   S    
C170  H13   S    
O106  Zn4   S    
C105  C115  S    
C156  H64   S    
O82   Zn6   S    
C144  O29   S    
C154  H59   S    
C56   O68   A    
C5    C22   T    
C162  H95   S    
C48   O112  A    
C142  H22   S    
C89   C98   S    
C150  O34   S    
O63   Zn17  S    
C43   C235  S    
C162  O11   S    
C95   C104  S    
O75   Zn11  S    
O71   Zn13  S    
C60   O124  A    
C131  H147  S    
C112  O127  A    
C159  H1    S    
C112  C216  S    
C181  H75   S    
O60   Zn17  S    
C182  C184  S    
C64   O76   A    
C55   O120  A    
C68   C223  S    
C188  C223  S    
C72   O92   A    
C73   O94   A    
C154  H58   S    
C182  C217  S    
C69   O88   A    
C68   O7    A    
C141  H17   S    
C121  C146  T    
C40   C41   T    
C91   C99   S    
O49   Zn14  S    
O104  Zn3   S    
C176  O25   S    
C130  O15   S    
C205  O37   S    
C96   C105  T    
O3    Zn21  S    
C4    C53   S    
O84   Zn20  S    
O82   Zn24  S    
C139  H12   S    
C6    C55   S    
O93   Zn5   S    
C57   O6    A    
O48   Zn8   S    
C189  C224  S    
C18   C239  T    
C139  O23   S    
C56   O121  A    
C145  H32   S    
C126  O10   S    
C177  C212  S    
C183  C218  S    
C201  C218  S    
C133  H155  S    
O103  Zn2   S    
O128  Zn11  S    
C111  C121  S    
C163  H106  S    
C178  H107  S    
O135  Zn19  S    
C103  C111  T    
C210  C227  S    
C141  O26   S    
C138  H7    S    
C48   C231  S    
C63   O80   A    
C192  C227  S    
C173  H46   S    
C161  H84   S    
C130  H144  S    
O49   Zn28  S    
O64   Zn18  S    
C24   C227  S    
C66   O86   A    
O127  Zn10  S    
C72   C81   S    
C136  H3    S    
O89   Zn26  S    
C59   O123  A    
C81   C89   T    
C17   C238  T    
C168  C170  S    
C208  O44   A    
O2    Zn28  S    
C127  H134  S    
C182  H76   S    
C151  H48   S    
C200  C217  S    
C144  H28   S    
C190  H83   S    
C198  C215  S    
C189  H118  S    
C39   C42   T    
O60   Zn23  S    
C205  H99   S    
C55   O67   A    
C208  O132  A    
C163  C166  S    
C167  H139  S    
O1    Zn15  S    
C35   C222  S    
C219  O133  A    
C128  O12   S    
C77   O106  A    
C169  O18   S    
C189  H82   S    
O115  Zn21  S    
O58   Zn13  S    
C159  C212  S    
C106  C116  S    
C143  O28   S    
C165  H117  S    
C191  C193  S    
C140  O25   S    
C195  H89   S    
O91   Zn28  S    
C199  O30   S    
C141  H19   S    
C3    C20   T    
C202  H96   S    
C159  O8    S    
C48   O59   A    
C148  O32   S    
O74   Zn10  S    
O105  Zn32  S    
C97   C106  T    
C207  O39   S    
C94   C103  S    
C191  C226  S    
C71   O91   A    
O80   Zn17  S    
O116  Zn31  S    
C153  H54   S    
C175  C218  S    
C51   O63   A    
C102  C110  T    
C139  H10   S    
C140  H14   S    
C123  H124  S    
C73   C82   S    
C109  C119  S    
O104  Zn8   S    
C47   C236  S    
C62   O77   A    
C63   O75   A    
C61   O78   A    
O7    Zn26  S    
C190  C192  S    
O13   Zn31  S    
C209  O40   S    
C12   C30   S    
C93   C102  S    
C178  C180  S    
C200  H93   S    
C7    C25   T    
C145  H31   S    
C214  C219  S    
C143  H26   S    
C101  C117  T    
C144  H29   S    
C164  O128  A    
C197  C212  S    
O108  Zn1   S    
C70   O96   A    
O6    Zn25  S    
C122  C157  T    
C194  O26   S    
C126  H132  S    
C171  H24   S    
C195  C213  S    
O81   Zn18  S    
O99   Zn6   S    
C170  C223  S    
C130  H145  S    
C190  H119  S    
C199  C201  S    
C168  C221  S    
C1    C217  S    
C1    O126  A    
C50   O114  A    
C7    C54   S    
C143  H25   S    
C18   C36   S    
C107  C117  S    
C53   O118  A    
O93   Zn19  S    
C2    C225  S    
C57   C224  S    
C4    C21   T    
C69   O85   A    
C70   C78   S    
C173  O22   S    
C197  O43   A    
C56   C239  S    
O71   Zn16  S    
C24   O50   A    
C61   C146  S    
O1    Zn1   S    
C171  O20   S    
C58   O122  A    
C13   C228  S    
C171  C224  S    
O115  Zn25  S    
C65   O81   A    
O118  Zn2   S    
C119  C124  T    
C12   C234  T    
C83   C92   T    
C46   C221  S    
C185  H114  S    
C50   O62   A    
C44   O56   A    
C173  C226  S    
C160  C213  S    
C210  O41   S    
C206  H100  S    
C198  H91   S    
C203  C221  S    
C136  O20   S    
C123  O8    S    
C57   O53   A    
C161  O10   S    
C137  H4    S    
C207  C225  S    
C128  H138  S    
O95   Zn12  S    
C148  H38   S    
C206  O38   S    
C24   O3    A    
O78   Zn15  S    
C149  H42   S    
O46   Zn6   S    
C5    C52   S    
C46   O52   A    
C140  H16   S    
O61   Zn15  S    
C187  H115  S    
C166  C218  S    
C147  H36   S    
C9    C27   S    
C138  O22   S    
O111  Zn27  S    
C164  C220  S    
C60   O72   A    
C64   C135  S    
C192  H121  S    
C134  H157  S    
O102  Zn7   S    
C164  O13   A    
O68   Zn22  S    
C137  O21   S    
C71   C80   S    
C129  H141  S    
O66   Zn20  S    
C162  C215  S    
C62   C157  S    
C127  H135  S    
C125  H126  S    
C199  C216  S    
C108  C118  S    
C153  O38   S    
C179  H72   S    
C110  C120  S    
O93   Zn22  S    
C185  C188  S    
C150  H44   S    
C153  H53   S    
C152  O37   S    
C66   O83   A    
C151  H49   S    
C114  C122  S    
C126  H130  S    
C201  H94   S    
C192  H86   S    
C16   C33   S    
C20   C38   S    
C85   C94   T    
C209  H102  S    
C21   C39   S    
C207  H101  S    
C158  H67   S    
C22   C40   S    
C133  O18   S    
O35   Zn12  S    
C156  H63   S    
C142  H20   S    
C172  C225  S    
O94   Zn30  S    
O131  Zn15  S    
C104  C114  T    
C54   O119  A    
O98   Zn23  S    
O97   Zn27  S    
C204  C206  S    
C16   C237  T    
C136  H159  S    
C172  O21   S    
C147  O31   S    
C44   O109  A    
C200  O31   S    
C152  H51   S    
C69   C90   S    
C167  C220  S    
C134  O19   S    
C92   C100  S    
C77   O102  A    
C173  C176  S    
C132  H152  S    
O104  Zn26  S    
C203  H97   S    
C75   O100  A    
C30   C33   T    
C51   C232  S    
C34   C38   T    
C49   O113  A    
C31   C32   T    
C139  H11   S    
C193  C228  S    
C123  H125  S    
O77   Zn14  S    
O112  Zn28  S    
O121  Zn5   S    
C167  O16   S    
C174  H57   S    
C35   O51   A    
C45   O110  A    
C9    C231  T    
C133  H154  S    
C19   C240  T    
C137  H6    S    
C219  O45   A    
O134  Zn18  S    
C180  H74   S    
O136  Zn20  S    
C6    C23   T    
C158  O42   S    
C155  H62   S    
C129  O14   S    
C209  C211  S    
C188  H81   S    
C64   O79   A    
O59   Zn14  S    
O24   Zn30  S    
O65   Zn19  S    
C187  C189  S    
C147  H34   S    
C138  H8    S    
C113  C118  T    
O109  Zn12  S    
C72   O98   A    
C193  H122  S    
O100  Zn5   S    
O126  Zn29  S    
O83   Zn19  S    
C2    O47   A    
C11   C29   S    
C26   C29   T    
C165  C167  S    
C209  C226  S    
C127  O11   S    
C27   C28   T    
C188  H116  S    
C58   C238  S    
O70   Zn25  S    
O124  Zn8   S    
C47   O58   A    
C177  H105  S    
C191  H120  S    
C98   C107  T    
C3    C59   S    
