data_mof_unit_53587.cif
_audit_creation_date              2012-12-10T18:50:20-0500
_audit_creation_method            fapswitch 2.2
_symmetry_space_group_name_H-M    P1
_symmetry_Int_Tables_number       1
_space_group_crystal_system       triclinic
_cell_length_a                    15.87645
_cell_length_b                    19.373427
_cell_length_c                    18.182899
_cell_angle_alpha                 90.352441
_cell_angle_beta                  89.063493
_cell_angle_gamma                 89.351613
_cell_volume                      5591.50129861

loop_
_atom_site_label
_atom_site_type_symbol
_atom_type_description
_atom_site_fract_x
_atom_site_fract_y
_atom_site_fract_z
_atom_type_partial_charge
C1    C     C_R   0.501812 0.367258 0.499753 0.836857
C2    C     C_R   0.501223 0.632049 0.500185 0.884985
C3    C     C_R   0.445156 0.820049 0.498619 -0.293363
C4    C     C_R   0.499259 0.179585 0.556298 -0.302714
C5    C     C_R   0.525026 0.850054 0.500619 0.057346
C6    C     C_R   0.526724 0.146846 0.491320 0.045245
C7    C     C_R   0.598420 0.808396 0.504201 0.527555
C8    C     C_R   0.547329 0.185652 0.428465 0.524624
C9    C     C_R   0.588681 0.735863 0.504334 -0.424317
C10   C     C_R   0.537009 0.258217 0.432685 -0.431040
C11   C     C_R   0.508599 0.706730 0.500738 -0.156635
C12   C     C_R   0.509603 0.291181 0.498170 -0.175266
C13   C     C_R   0.570392 0.964127 0.551435 0.386411
C14   C     C_R   0.485799 0.032663 0.438128 0.392911
C15   C     C_R   0.577801 0.035665 0.544455 0.291086
C16   C     C_R   0.491122 0.960606 0.437679 0.266202
C17   C     C_R   0.531652 0.070696 0.490143 -0.203506
C18   C     C_R   0.530078 0.925943 0.496250 -0.200815
C19   C     C_R   0.446872 0.461617 0.728015 0.270526
C20   C     C_R   0.551266 0.459110 0.271481 0.300264
C21   C     C_R   0.451702 0.466460 0.805242 -0.273163
C22   C     C_R   0.546517 0.464242 0.194306 -0.265859
C23   C     C_R   0.339685 0.500089 0.500525 0.848018
C24   C     C_R   0.660313 0.499158 0.499440 0.814124
C25   C     C_R   0.501427 0.516157 0.838882 0.093937
C26   C     C_R   0.498605 0.516179 0.161476 0.093771
C27   C     C_R   0.554148 0.555310 0.792914 -0.315610
C28   C     C_R   0.447427 0.557530 0.208022 -0.318367
C29   C     C_R   0.553336 0.545724 0.715980 0.069755
C30   C     C_R   0.448104 0.547831 0.284770 0.070412
C31   C     C_R   0.575204 0.526808 0.959595 -0.248092
C32   C     C_R   0.424886 0.529156 0.041028 -0.245775
C33   C     C_R   0.577679 0.529324 0.037273 0.106769
C34   C     C_R   0.422383 0.531764 0.963378 0.107301
C35   C     C_R   0.501125 0.525401 0.079061 0.071984
C36   C     C_R   0.498907 0.525460 0.921465 0.072438
C37   C     C_3   0.968816 0.520763 0.562615 0.114755
C38   C     C_3   0.031548 0.469499 0.435833 0.110209
C39   C     C_3   0.027759 0.456680 0.556007 -0.246473
C40   C     C_3   0.972357 0.533435 0.442373 -0.247903
C41   C     C_1   0.250054 0.499425 0.501665 -0.192989
C42   C     C_1   0.749940 0.496559 0.498064 -0.189196
C43   C     C_3   0.024479 0.560582 0.507446 0.112728
C44   C     C_3   0.975440 0.429614 0.490889 0.113940
C45   C     C_3   0.082934 0.496991 0.500503 0.074148
C46   C     C_3   0.917113 0.493425 0.498055 0.071092
C47   C     C_1   0.174588 0.498520 0.501799 -0.082486
C48   C     C_1   0.825418 0.494444 0.497415 -0.082610
C49   C     C_R   0.436769 0.748660 0.495926 0.404185
C50   C     C_R   0.493826 0.251299 0.561257 0.431014
Cu1   Cu    Cu3+1 0.499980 0.500000 0.573360 0.934709
Cu2   Cu    Cu3+1 0.500020 0.500000 0.426640 0.925572
H1    H     H_    0.051243 0.425154 0.602209 0.135992
H2    H     H_    0.948243 0.564555 0.395994 0.138126
H3    H     H_    0.414807 0.431891 0.839062 0.126701
H4    H     H_    0.581784 0.428019 0.159860 0.124895
H5    H     H_    0.595031 0.593809 0.816149 0.137901
H6    H     H_    0.407762 0.597678 0.185383 0.136650
H7    H     H_    0.594055 0.576982 0.681889 0.135083
H8    H     H_    0.408205 0.580374 0.319357 0.130890
H9    H     H_    0.633792 0.525554 0.928180 0.136572
H10   H     H_    0.366354 0.529703 0.072535 0.137884
H11   H     H_    0.389019 0.852343 0.497088 0.179574
H12   H     H_    0.482054 0.149028 0.603767 0.175186
H13   H     H_    0.642022 0.700879 0.505787 0.147389
H14   H     H_    0.551149 0.290156 0.386032 0.171105
N1    N     N_R   0.499990 0.500020 0.683620 -0.184716
N2    N     N_R   0.500010 0.499980 0.316380 -0.180963
O1    O     O_R   0.499960 0.400180 0.561980 -0.573679
O2    O     O_R   0.500040 0.599820 0.438020 -0.596082
O3    O     O_R   0.500000 0.400190 0.438070 -0.608101
O4    O     O_R   0.500000 0.599810 0.561930 -0.581546
O5    O     O_R   0.379060 0.499990 0.561940 -0.585539
O6    O     O_R   0.620940 0.500010 0.438060 -0.587433
O7    O     O_R   0.379100 0.500000 0.438040 -0.582413
O8    O     O_R   0.620900 0.500000 0.561960 -0.592369
C51   C     C_3   0.378505 0.415754 0.698716 -0.344165
C52   C     C_3   0.290955 0.448267 0.712525 -0.382050
C53   C     C_3   0.221711 0.402598 0.682439 -0.850345
H15   H     H_    0.229367 0.396011 0.621984 0.260203
H16   H     H_    0.223596 0.351110 0.708936 0.254528
H17   H     H_    0.159451 0.427063 0.694528 0.231182
H18   H     H_    0.279393 0.455522 0.772471 0.206979
H19   H     H_    0.287195 0.499698 0.685952 0.244560
H20   H     H_    0.386002 0.404189 0.640052 0.271726
H21   H     H_    0.381665 0.365213 0.727072 0.183104
C54   C     C_3   0.615663 0.408737 0.300647 -0.402035
C55   C     C_3   0.705807 0.431282 0.282250 -0.360569
C56   C     C_3   0.769872 0.381776 0.315471 -0.875536
H22   H     H_    0.763937 0.382250 0.376421 0.254879
H23   H     H_    0.760347 0.328445 0.294660 0.251393
H24   H     H_    0.834112 0.398174 0.299577 0.239798
H25   H     H_    0.716301 0.432118 0.221740 0.207046
H26   H     H_    0.716337 0.484083 0.304343 0.236757
H27   H     H_    0.611139 0.402658 0.360128 0.253362
H28   H     H_    0.604585 0.357148 0.276039 0.155719
C57   C     C_3   0.662750 0.539193 0.072740 -0.414762
C58   C     C_3   0.667480 0.609118 0.112570 -0.323617
C59   C     C_3   0.752476 0.617845 0.149294 -0.861044
H29   H     H_    0.762166 0.576845 0.190877 0.249909
H30   H     H_    0.804346 0.615187 0.107595 0.252496
H31   H     H_    0.754205 0.668860 0.177371 0.242857
H32   H     H_    0.658328 0.651439 0.072354 0.216373
H33   H     H_    0.617322 0.613827 0.155575 0.230706
H34   H     H_    0.677113 0.496649 0.110833 0.187166
H35   H     H_    0.713960 0.537226 0.030267 0.189235
C60   C     C_3   0.337254 0.544046 0.928341 -0.414324
C61   C     C_3   0.333519 0.613532 0.888325 -0.325569
C62   C     C_3   0.247721 0.625116 0.853473 -0.858769
H36   H     H_    0.235478 0.584003 0.812277 0.251109
H37   H     H_    0.197001 0.625084 0.896284 0.251089
H38   H     H_    0.246724 0.675784 0.825272 0.244939
H39   H     H_    0.345142 0.656038 0.928117 0.216129
H40   H     H_    0.382530 0.615592 0.844226 0.231735
H41   H     H_    0.321477 0.501455 0.890606 0.186613
H42   H     H_    0.286379 0.544383 0.971142 0.190070
C63   C     C_3   0.929080 0.545693 0.635380 -0.405457
C64   C     C_3   0.995909 0.567142 0.690642 -0.341102
C65   C     C_3   0.955132 0.592526 0.762520 -0.856265
H43   H     H_    0.914170 0.638252 0.752378 0.256763
H44   H     H_    0.916833 0.551025 0.787805 0.251286
H45   H     H_    0.004883 0.607519 0.801564 0.242883
H46   H     H_    0.037958 0.522452 0.702430 0.214815
H47   H     H_    0.034890 0.609217 0.667625 0.223790
H48   H     H_    0.885478 0.589445 0.624550 0.188732
H49   H     H_    0.891320 0.502930 0.658863 0.198335
C66   C     C_3   0.074842 0.445418 0.364183 -0.396289
C67   C     C_3   0.011530 0.422134 0.306942 -0.362283
C68   C     C_3   0.055452 0.404374 0.233914 -0.849457
H50   H     H_    0.087876 0.450392 0.211487 0.252794
H51   H     H_    0.102257 0.362048 0.241444 0.254526
H52   H     H_    0.008075 0.387136 0.193685 0.240727
H53   H     H_    0.978505 0.375571 0.326921 0.222136
H54   H     H_    0.964493 0.463984 0.297712 0.219443
H55   H     H_    0.111819 0.489225 0.341938 0.203425
H56   H     H_    0.119558 0.402629 0.376157 0.190466
C69   C     C_3   0.941742 0.356131 0.485359 -0.410478
C70   C     C_3   0.012857 0.302013 0.483729 -0.345633
C71   C     C_3   0.977618 0.229074 0.481722 -0.852471
H57   H     H_    0.937943 0.219644 0.531455 0.250901
H58   H     H_    0.939160 0.221664 0.431848 0.254404
H59   H     H_    0.030326 0.190885 0.480349 0.246456
H60   H     H_    0.053578 0.309269 0.434302 0.220005
H61   H     H_    0.052146 0.307659 0.533398 0.218901
H62   H     H_    0.899895 0.347054 0.533859 0.197231
H63   H     H_    0.903279 0.351451 0.435233 0.193209
C72   C     C_3   0.056673 0.634517 0.510360 -0.411791
C73   C     C_3   0.985009 0.687509 0.520276 -0.355052
C74   C     C_3   0.017169 0.760907 0.511086 -0.858930
H64   H     H_    0.066542 0.771819 0.552024 0.259339
H65   H     H_    0.043697 0.768003 0.454763 0.255415
H66   H     H_    0.964316 0.798250 0.519696 0.235580
H67   H     H_    0.935212 0.678168 0.479226 0.218919
H68   H     H_    0.956901 0.682870 0.576138 0.227188
H69   H     H_    0.102563 0.639733 0.555434 0.195779
H70   H     H_    0.089836 0.643988 0.457368 0.204370
O9    O     O_3   0.358007 0.719810 0.490062 -0.616381
C75   C     C_3   0.334571 0.722246 0.415504 0.047375
H71   H     H_    0.381436 0.693797 0.380088 0.139305
H72   H     H_    0.329312 0.776677 0.396405 0.152149
C76   C     C_3   0.248906 0.688598 0.407629 -0.330496
H73   H     H_    0.251505 0.635380 0.429953 0.226689
H74   H     H_    0.201549 0.719255 0.439903 0.223835
C77   C     C_3   0.222297 0.685389 0.327445 -0.954917
H75   H     H_    0.218065 0.738199 0.304245 0.259707
H76   H     H_    0.159542 0.660951 0.323964 0.254929
H77   H     H_    0.268332 0.654122 0.294360 0.251505
O10   O     O_3   0.468612 0.281832 0.627047 -0.623252
C78   C     C_3   0.534817 0.278327 0.678431 0.066815
H78   H     H_    0.548846 0.331888 0.696219 0.169299
H79   H     H_    0.595322 0.255887 0.656107 0.128508
C79   C     C_3   0.506444 0.237015 0.745701 -0.348340
H80   H     H_    0.446768 0.259326 0.768623 0.214984
H81   H     H_    0.494730 0.182705 0.729285 0.218549
C80   C     C_3   0.572953 0.237741 0.805316 -0.920418
H82   H     H_    0.632915 0.214504 0.784078 0.258361
H83   H     H_    0.550667 0.207215 0.853165 0.256490
H84   H     H_    0.584381 0.291502 0.823957 0.254270
O11   O     O_3   0.676265 0.841573 0.501846 -0.609593
C81   C     C_3   0.744048 0.804233 0.532947 0.082371
H85   H     H_    0.801661 0.835183 0.523535 0.157548
H86   H     H_    0.757290 0.754828 0.503589 0.122492
C82   C     C_3   0.733233 0.795387 0.616607 -0.333549
H87   H     H_    0.732080 0.846992 0.643583 0.248918
H88   H     H_    0.673114 0.769294 0.630143 0.211835
C83   C     C_3   0.805313 0.752737 0.648000 -0.971281
H89   H     H_    0.806711 0.700427 0.622707 0.250683
H90   H     H_    0.796036 0.747368 0.708342 0.259128
H91   H     H_    0.866438 0.778458 0.637403 0.265059
O12   O     O_3   0.580531 0.149330 0.367540 -0.602247
C84   C     C_3   0.581955 0.185356 0.300074 0.076786
H92   H     H_    0.618314 0.152605 0.260194 0.162815
H93   H     H_    0.618188 0.233870 0.303193 0.112889
C85   C     C_3   0.493096 0.195316 0.269154 -0.339616
H94   H     H_    0.463022 0.144125 0.263160 0.253642
H95   H     H_    0.453174 0.227236 0.307078 0.211947
C86   C     C_3   0.496149 0.230150 0.194139 -0.942435
H96   H     H_    0.524063 0.282229 0.198681 0.253476
H97   H     H_    0.431246 0.235788 0.172963 0.260848
H98   H     H_    0.534088 0.198512 0.154351 0.256152
O13   O     O_3   0.607113 0.931697 0.610649 -0.582322
C87   C     C_3   0.544894 0.916772 0.664750 0.046071
H99   H     H_    0.566473 0.870138 0.694643 0.155680
H100  H     H_    0.482404 0.903804 0.641375 0.122518
C88   C     C_3   0.535254 0.976685 0.719789 -0.310144
H101  H     H_    0.598092 0.990311 0.741322 0.239112
H102  H     H_    0.508438 0.022562 0.691820 0.223173
C89   C     C_3   0.477033 0.957843 0.783970 -0.952967
H103  H     H_    0.413511 0.944798 0.763660 0.257555
H104  H     H_    0.470846 0.002420 0.822435 0.259922
H105  H     H_    0.503252 0.913091 0.814284 0.257907
O14   O     O_3   0.438856 0.065305 0.384780 -0.572701
C90   C     C_3   0.360383 0.087881 0.414952 0.054028
H106  H     H_    0.342465 0.136267 0.386374 0.155985
H107  H     H_    0.362286 0.100912 0.474791 0.119401
C91   C     C_3   0.292588 0.033871 0.401402 -0.313172
H108  H     H_    0.291658 0.020510 0.341882 0.235442
H109  H     H_    0.307365 0.986346 0.432770 0.229447
C92   C     C_3   0.205606 0.060582 0.425586 -0.953885
H110  H     H_    0.204872 0.073389 0.485233 0.257276
H111  H     H_    0.158009 0.020202 0.415483 0.261184
H112  H     H_    0.188263 0.107349 0.393920 0.257592
O15   O     O_3   0.623854 0.071554 0.595893 -0.602660
C93   C     C_3   0.702059 0.091263 0.564466 0.078148
H113  H     H_    0.723470 0.137487 0.595086 0.151383
H114  H     H_    0.697565 0.106995 0.505707 0.142020
C94   C     C_3   0.768064 0.033509 0.572448 -0.312801
H115  H     H_    0.770839 0.017500 0.630969 0.235060
H116  H     H_    0.750043 0.988091 0.538828 0.243537
C95   C     C_3   0.855114 0.057132 0.547073 -0.956185
H117  H     H_    0.853831 0.073168 0.488540 0.263090
H118  H     H_    0.901155 0.013962 0.552482 0.261289
H119  H     H_    0.876040 0.101127 0.581429 0.255539
O16   O     O_3   0.451047 0.923981 0.383177 -0.603952
C96   C     C_3   0.510906 0.905185 0.328151 0.107504
H120  H     H_    0.569035 0.882033 0.351945 0.144573
H121  H     H_    0.528325 0.951489 0.295498 0.165103
C97   C     C_3   0.472042 0.851557 0.277369 -0.345102
H122  H     H_    0.453347 0.805814 0.310149 0.210087
H123  H     H_    0.414714 0.873814 0.251925 0.223180
C98   C     C_3   0.533980 0.828420 0.216821 -0.936191
H124  H     H_    0.552869 0.873127 0.182592 0.256961
H125  H     H_    0.503709 0.789583 0.181022 0.255472
H126  H     H_    0.590963 0.804538 0.241152 0.258721

loop_
_geom_bond_atom_site_label_1
_geom_bond_atom_site_label_2
_ccdc_geom_bond_type
C85   H95   S    
C54   C55   S    
C44   C69   S    
C89   H104  S    
C27   C29   A    
C24   C42   S    
O13   C87   S    
C31   H9    S    
O15   C93   S    
C91   C92   S    
Cu2   O7    S    
C67   C68   S    
C57   C58   S    
C3    C49   A    
C74   H64   S    
C80   H83   S    
C90   H106  S    
C81   H85   S    
C40   C46   S    
C97   C98   S    
C1    O3    A    
C87   H100  S    
C13   C18   A    
C34   C60   S    
C28   H6    S    
C69   H62   S    
C77   H75   S    
C19   C21   A    
C66   H55   S    
Cu2   O6    S    
C70   H60   S    
C82   H88   S    
C71   H59   S    
C88   C89   S    
C85   C86   S    
C58   H32   S    
C20   C54   S    
C42   C48   T    
C61   C62   S    
C95   H119  S    
C15   C17   A    
C98   H124  S    
C78   H78   S    
C61   H40   S    
C86   H97   S    
C64   C65   S    
C38   C45   S    
C21   C25   A    
C38   C66   S    
C72   C73   S    
C29   N1    A    
C52   H18   S    
C40   C43   S    
C29   H7    S    
C8    O12   S    
C89   H103  S    
C87   C88   S    
C30   H8    S    
C96   H120  S    
C31   C33   A    
C19   N1    A    
C56   H23   S    
C72   H69   S    
C63   H49   S    
C34   C36   A    
Cu2   N2    S    
C81   C82   S    
C39   C45   S    
C68   H52   S    
C57   H34   S    
C10   H14   S    
C85   H94   S    
C64   H47   S    
C51   H20   S    
O14   C90   S    
C74   H65   S    
C93   H113  S    
C75   H72   S    
C96   H121  S    
C14   C17   A    
C49   O9    S    
C86   H96   S    
C1    C12   S    
C73   H68   S    
C23   O5    A    
C2    O4    A    
C2    C11   S    
C76   H74   S    
C79   H81   S    
C76   H73   S    
C80   H84   S    
C55   H26   S    
C45   C47   S    
C46   C48   S    
C87   H99   S    
Cu1   Cu2   S    
C32   C35   A    
C69   H63   S    
C43   C72   S    
C66   H56   S    
C4    C6    A    
C27   H5    S    
C82   C83   S    
C97   H123  S    
C92   H110  S    
C53   H16   S    
C55   H25   S    
C52   C53   S    
C24   O8    A    
C6    C8    A    
C5    C18   S    
C44   C46   S    
C51   C52   S    
C1    O1    A    
C62   H38   S    
O9    C75   S    
C4    C50   A    
C98   H125  S    
C32   C34   A    
C61   H39   S    
C37   C43   S    
C86   H98   S    
C82   H87   S    
C84   H93   S    
O12   C84   S    
C38   C44   S    
C11   C49   A    
C67   H54   S    
C92   H111  S    
C9    C11   A    
C94   H115  S    
C16   O16   S    
C60   C61   S    
C91   H108  S    
C54   H28   S    
C59   H31   S    
C41   C47   T    
C7    O11   S    
Cu1   N1    S    
C73   C74   S    
C56   H24   S    
C95   H118  S    
C72   H70   S    
C43   C45   S    
C60   H41   S    
C65   H44   S    
C10   C12   A    
C57   H35   S    
C8    C10   A    
O10   C78   S    
C94   H116  S    
C20   C22   A    
C51   H21   S    
C58   C59   S    
C40   H2    S    
C13   C15   A    
C50   O10   S    
C75   H71   S    
C96   C97   S    
C14   C16   A    
C74   H66   S    
O16   C96   S    
C83   H90   S    
C66   C67   S    
C56   H22   S    
C93   C94   S    
Cu1   O4    S    
C76   C77   S    
C79   H80   S    
C5    C7    A    
C68   H50   S    
C78   H79   S    
C90   C91   S    
C84   H92   S    
C7    C9    A    
C6    C17   S    
C88   H101  S    
C97   H122  S    
C21   H3    S    
C81   H86   S    
C59   H30   S    
C65   H45   S    
C20   N2    A    
C77   H77   S    
C75   C76   S    
Cu1   O5    S    
C23   O7    A    
C3    C5    A    
C93   H114  S    
C53   H17   S    
C12   C50   A    
C71   H57   S    
C79   C80   S    
C39   C44   S    
C3    H11   S    
O11   C81   S    
C25   C27   A    
C69   C70   S    
C4    H12   S    
C26   C28   A    
C23   C41   S    
C59   H29   S    
C22   H4    S    
C98   H126  S    
C83   H91   S    
C77   H76   S    
C83   H89   S    
C90   H107  S    
C32   H10   S    
C14   O14   S    
C37   C39   S    
C80   H82   S    
C70   H61   S    
C63   C64   S    
C92   H112  S    
C38   C40   S    
C71   H58   S    
C24   O6    A    
C39   H1    S    
C2    O2    A    
C19   C51   S    
C89   H105  S    
C58   H33   S    
C62   H37   S    
C28   C30   A    
C33   C35   A    
C13   O13   S    
C33   C57   S    
C64   H46   S    
C15   O15   S    
C95   H117  S    
C9    H13   S    
C60   H42   S    
C84   C85   S    
Cu2   O2    S    
C70   C71   S    
C25   C36   S    
C22   C26   A    
C53   H15   S    
C52   H19   S    
C26   C35   S    
C94   C95   S    
C37   C63   S    
C55   C56   S    
C54   H27   S    
C16   C18   A    
C65   H43   S    
C73   H67   S    
C62   H36   S    
Cu1   O8    S    
Cu2   O3    S    
C31   C36   A    
C78   C79   S    
Cu1   O1    S    
C37   C46   S    
C67   H53   S    
C88   H102  S    
C63   H48   S    
C30   N2    A    
C91   H109  S    
C68   H51   S    
