data_mof_unit_5879.cif
_audit_creation_date              2012-12-10T17:35:44-0500
_audit_creation_method            fapswitch 2.2
_symmetry_space_group_name_H-M    P1
_symmetry_Int_Tables_number       1
_space_group_crystal_system       triclinic
_cell_length_a                    10.508941
_cell_length_b                    12.0048
_cell_length_c                    12.700791
_cell_angle_alpha                 95.856949
_cell_angle_beta                  90.238603
_cell_angle_gamma                 85.261592
_cell_volume                      1588.47623049

loop_
_atom_site_label
_atom_site_type_symbol
_atom_type_description
_atom_site_fract_x
_atom_site_fract_y
_atom_site_fract_z
_atom_type_partial_charge
C1    C     C_R   0.500730 0.524647 0.700661 1.015848
C2    C     C_R   0.615068 0.162885 0.583093 0.704592
C3    C     C_R   0.558535 0.858470 0.535920 -0.141125
C4    C     C_R   0.441082 0.141560 0.464620 -0.145321
C5    C     C_R   0.547953 0.975778 0.531390 0.029850
C6    C     C_R   0.451716 0.024270 0.469130 0.030132
C7    C     C_R   0.742390 0.498941 0.498041 0.954888
C8    C     C_R   0.257647 0.501164 0.502614 0.962058
C9    C     C_3   0.950999 0.541904 0.597833 -0.436436
C10   C     C_3   0.049049 0.458229 0.403316 -0.444630
C11   C     C_3   0.027511 0.605664 0.523954 0.151479
C12   C     C_R   0.499266 0.475235 0.299236 1.004123
C13   C     C_3   0.972569 0.394458 0.477226 0.148345
C14   C     C_3   0.123137 0.502382 0.502467 -0.198585
C15   C     C_3   0.876932 0.497747 0.498698 -0.198739
C16   C     C_3   0.046740 0.437351 0.574658 0.569676
C17   C     C_3   0.953344 0.562829 0.426538 0.559868
C18   C     C_R   0.495747 0.453546 0.186455 -0.347983
C19   C     C_R   0.508127 0.544504 0.813209 -0.324245
C20   C     C_R   0.646738 0.570934 0.963329 0.171368
C21   C     C_R   0.371101 0.408532 0.031165 0.170116
C22   C     C_R   0.615070 0.590674 0.859611 0.359269
C23   C     C_R   0.419021 0.497468 0.871624 0.456460
C24   C     C_R   0.394296 0.400166 0.138119 0.380549
C25   C     C_3   0.957290 0.803839 0.567382 -0.766315
C26   C     C_3   0.043121 0.196356 0.433482 -0.769015
C27   C     C_3   0.013814 0.330568 0.710957 -0.290663
C28   C     C_3   0.984971 0.667982 0.288658 -0.265668
C29   C     C_3   0.780117 0.430022 0.191794 -0.228301
C30   C     C_3   0.221774 0.571388 0.830003 -0.340160
C31   C     C_3   0.347249 0.235809 0.196399 -0.297755
C32   C     C_3   0.655400 0.759611 0.808276 -0.338875
C33   C     C_3   0.877715 0.542899 0.969716 -0.733746
C34   C     C_R   0.588967 0.495686 0.127755 0.447550
C35   C     C_3   0.302144 0.249971 0.913922 -0.736152
C36   C     C_3   0.684046 0.229719 0.746664 -0.365196
C37   C     C_3   0.313566 0.771494 0.253907 -0.366766
C38   C     C_R   0.449704 0.472775 0.974426 -0.194989
C39   C     C_R   0.563818 0.512332 0.021803 -0.181357
C40   C     C_R   0.369189 0.954606 0.412488 -0.414820
C41   C     C_R   0.630389 0.045509 0.588093 -0.414331
C42   C     C_R   0.384700 0.837190 0.417180 0.706953
H1    H     H_    0.907532 0.576097 0.675100 0.204295
H2    H     H_    0.892058 0.801775 0.498401 0.280622
H3    H     H_    0.869011 0.274490 0.393746 0.226575
H4    H     H_    0.006702 0.111715 0.423429 0.230792
H5    H     H_    0.109874 0.199447 0.501464 0.279420
H6    H     H_    0.095132 0.209411 0.360462 0.225171
H7    H     H_    0.952240 0.275506 0.661481 0.224572
H8    H     H_    0.954589 0.399986 0.756315 0.152775
H9    H     H_    0.062393 0.278969 0.769130 0.181647
H10   H     H_    0.041300 0.597484 0.241983 0.147718
H11   H     H_    0.049281 0.721644 0.336777 0.217217
H12   H     H_    0.092827 0.424023 0.326133 0.205993
H13   H     H_    0.935482 0.720408 0.231476 0.188269
H14   H     H_    0.782231 0.365628 0.121886 0.116246
H15   H     H_    0.751012 0.392826 0.263539 0.131527
H16   H     H_    0.879243 0.453430 0.203816 0.205444
H17   H     H_    0.126906 0.550079 0.799629 0.211977
H18   H     H_    0.257078 0.632748 0.779399 0.150631
H19   H     H_    0.207926 0.610350 0.913016 0.139942
H20   H     H_    0.443975 0.221455 0.230811 0.169807
H21   H     H_    0.345396 0.191916 0.115284 0.171319
H22   H     H_    0.279036 0.196764 0.244597 0.161800
H23   H     H_    0.367450 0.180311 0.417449 0.154462
H24   H     H_    0.653862 0.798151 0.891730 0.138482
H25   H     H_    0.559393 0.774403 0.772768 0.183131
H26   H     H_    0.723434 0.803614 0.764324 0.172001
H27   H     H_    0.769395 0.693842 0.008016 0.223259
H28   H     H_    0.958553 0.565400 0.022030 0.215089
H29   H     H_    0.900515 0.560703 0.888189 0.238126
H30   H     H_    0.867142 0.451654 0.970346 0.222118
H31   H     H_    0.186837 0.399423 0.965953 0.253481
H32   H     H_    0.238977 0.184442 0.931230 0.209265
H33   H     H_    0.402890 0.217311 0.925256 0.208558
H34   H     H_    0.631680 0.819785 0.583724 0.155534
H35   H     H_    0.288841 0.265982 0.829984 0.288967
H36   H     H_    0.734727 0.152167 0.772171 0.145244
H37   H     H_    0.582089 0.237215 0.772286 0.175374
H38   H     H_    0.729018 0.302389 0.787901 0.187706
H39   H     H_    0.415082 0.765171 0.227222 0.177650
H40   H     H_    0.261377 0.848897 0.229486 0.146054
H41   H     H_    0.268936 0.698646 0.212673 0.183819
H42   H     H_    0.293166 0.990946 0.365675 0.151223
H43   H     H_    0.706230 0.009283 0.635163 0.151530
H44   H     H_    0.130640 0.725108 0.608334 0.228427
H45   H     H_    0.994024 0.888300 0.578987 0.229455
H46   H     H_    0.903466 0.790122 0.639323 0.225145
N1    N     N_R   0.523490 0.207800 0.519350 -0.141606
N2    N     N_R   0.476510 0.792200 0.480650 -0.141038
N3    N     N_2   0.063186 0.719255 0.549297 -0.266859
N4    N     N_2   0.937136 0.280735 0.452175 -0.267339
N5    N     N_2   0.762362 0.608739 0.007710 -0.213327
N6    N     N_2   0.268514 0.351430 0.983575 -0.248682
O1    O     O_R   0.506270 0.421700 0.658830 -0.574473
O2    O     O_3   0.892285 0.628664 0.352193 -0.579604
O3    O     O_3   0.700133 0.527767 0.176845 -0.546342
O4    O     O_3   0.304292 0.472018 0.824927 -0.575207
O5    O     O_3   0.308588 0.351372 0.197948 -0.606980
O6    O     O_3   0.696601 0.644112 0.800044 -0.614336
O7    O     O_3   0.697074 0.233167 0.636475 -0.585314
O8    O     O_3   0.302459 0.766920 0.364083 -0.585538
O9    O     O_R   0.493730 0.578300 0.341170 -0.570346
O10   O     O_R   0.491200 0.609310 0.646410 -0.644470
O11   O     O_R   0.508800 0.390690 0.353590 -0.644468
O12   O     O_R   0.693580 0.406210 0.506230 -0.605112
O13   O     O_R   0.306420 0.593790 0.493770 -0.602842
O14   O     O_R   0.678510 0.593830 0.493810 -0.584174
O15   O     O_R   0.321490 0.406170 0.506190 -0.588056
O16   O     O_3   0.107249 0.371830 0.649515 -0.584657
Zn1   Zn    Zn3+2 0.510060 0.374730 0.508290 0.997872
Zn2   Zn    Zn3+2 0.489940 0.625270 0.491710 1.003084

loop_
_geom_bond_atom_site_label_1
_geom_bond_atom_site_label_2
_ccdc_geom_bond_type
N1    Zn1   S    
C20   N5    S    
C35   H32   S    
C24   O5    S    
O13   Zn2   S    
C40   H42   S    
N2    Zn2   S    
C16   O16   S    
C35   H33   S    
C3    N2    A    
C18   C24   A    
C9    C16   S    
H27   N5    S    
H44   N3    S    
O15   Zn1   S    
C5    C6    A    
C11   C14   S    
C21   N6    S    
C10   C17   S    
C26   N4    S    
C25   H45   S    
C34   O3    S    
H3    N4    S    
C4    H23   S    
C33   H30   S    
C21   C38   A    
C27   O16   S    
C30   H18   S    
C31   O5    S    
C27   H8    S    
C26   H6    S    
C32   H26   S    
C40   C42   A    
O11   Zn1   S    
C9    H1    S    
C31   H20   S    
C37   H39   S    
H31   N6    S    
C42   O8    S    
C25   H2    S    
C28   H13   S    
C27   H9    S    
O12   Zn1   S    
C38   C39   A    
C32   O6    S    
C25   N3    S    
C22   O6    S    
C34   C39   A    
C31   H21   S    
C19   C22   A    
C12   O9    A    
C4    C6    A    
C36   H38   S    
O10   Zn2   S    
C20   C39   A    
C33   H29   S    
C2    O7    S    
C1    C19   S    
C35   H35   S    
C25   H46   S    
C37   O8    S    
O14   Zn2   S    
C36   O7    S    
C42   N2    A    
C2    N1    A    
C19   C23   A    
C18   C34   A    
C1    O1    A    
C30   H17   S    
C7    O12   A    
C17   O2    S    
C3    H34   S    
C9    C11   S    
C1    O10   A    
C33   H28   S    
C36   H37   S    
C32   H25   S    
C26   H5    S    
C20   C22   A    
C13   C15   S    
C13   N4    S    
C10   C14   S    
C14   C16   S    
C37   H40   S    
C30   H19   S    
C21   C24   A    
C8    O13   A    
C32   H24   S    
C4    N1    A    
C35   N6    S    
C15   C17   S    
C5    C41   A    
C11   C17   S    
C8    C14   S    
C31   H22   S    
C37   H41   S    
C29   H15   S    
C3    C5    A    
C10   C13   S    
C33   N5    S    
C28   H11   S    
C29   H14   S    
C23   C38   A    
C41   H43   S    
C30   O4    S    
C29   O3    S    
C28   O2    S    
C9    C15   S    
C36   H36   S    
C8    O15   A    
C28   H10   S    
C12   O11   A    
C7    C15   S    
C6    C40   A    
C10   H12   S    
C26   H4    S    
C11   N3    S    
C23   O4    S    
C29   H16   S    
C13   C16   S    
C12   C18   S    
C7    O14   A    
O9    Zn2   S    
O1    Zn1   S    
C2    C41   A    
C27   H7    S    
