data_mof_unit_40337.cif
_audit_creation_date              2012-12-10T19:01:20-0500
_audit_creation_method            fapswitch 2.2
_symmetry_space_group_name_H-M    P1
_symmetry_Int_Tables_number       1
_space_group_crystal_system       triclinic
_cell_length_a                    9.547491
_cell_length_b                    10.841337
_cell_length_c                    15.493878
_cell_angle_alpha                 89.725014
_cell_angle_beta                  74.36767
_cell_angle_gamma                 90.477114
_cell_volume                      1544.3177374

loop_
_atom_site_label
_atom_site_type_symbol
_atom_type_description
_atom_site_fract_x
_atom_site_fract_y
_atom_site_fract_z
_atom_type_partial_charge
C1    C     C_R   0.998508 0.262399 0.502109 0.817683
C2    C     C_R   0.675607 0.484016 0.908649 0.091233
C3    C     C_R   0.776681 0.514842 0.957603 0.147551
C4    C     C_R   0.526787 0.461807 0.954755 0.065672
C5    C     C_R   0.478757 0.482543 0.048789 0.070634
C6    C     C_R   0.583683 0.512242 0.095094 -0.183605
C7    C     C_R   0.729593 0.527425 0.050174 -0.193240
C8    C     C_R   0.425161 0.416996 0.910341 -0.207847
C9    C     C_R   0.280366 0.397504 0.955797 -0.207755
C10   C     C_R   0.230492 0.423503 0.046667 0.096641
C11   C     C_R   0.327938 0.469041 0.093749 0.102262
C12   C     C_R   0.918219 0.500072 0.672144 0.795561
C13   C     C_R   0.083904 0.402122 0.091224 -0.254238
C14   C     C_R   0.031085 0.425337 0.182599 0.362293
C15   C     C_R   0.270669 0.499798 0.184311 -0.300548
C16   C     C_R   0.114762 0.065186 0.519813 0.119283
C17   C     C_R   0.992892 0.129463 0.511794 -0.160862
C18   C     C_R   0.863679 0.063335 0.516625 -0.163465
C19   C     C_R   0.864542 0.934661 0.516159 -0.195923
C20   C     C_R   0.994660 0.871068 0.510701 -0.100119
C21   C     C_R   0.115791 0.938095 0.519022 0.070402
C22   C     C_3   0.270510 0.935070 0.464247 -0.512734
C23   C     C_R   0.999562 0.737825 0.501572 0.805382
C24   C     C_3   0.269345 0.074994 0.465311 0.241073
C25   C     C_R   0.607537 0.530215 0.424191 0.359942
C26   C     C_R   0.542243 0.457514 0.571850 -0.046582
C27   C     C_R   0.393511 0.458166 0.572037 -0.010046
C28   C     C_R   0.460245 0.529791 0.423971 0.292013
C29   C     C_3   0.479216 0.649574 0.374311 -0.540822
C30   C     C_3   0.637951 0.649246 0.374264 -0.494953
C31   C     C_R   0.081306 0.494550 0.327867 0.835125
C32   C     C_R   0.873082 0.500963 0.770535 -0.044910
C33   C     C_R   0.125222 0.475888 0.229961 -0.131972
C34   C     C_R   0.924244 0.533751 0.913262 -0.203968
C35   C     C_R   0.972510 0.525575 0.820293 -0.186361
C36   C     C_R   0.726451 0.480261 0.814766 -0.237753
Cu1   Cu    Cu3+1 0.140670 0.499980 0.500000 0.972870
Cu2   Cu    Cu3+1 0.859330 0.500020 0.500000 0.985855
H1    H     H_    0.806043 0.550695 0.088228 0.173848
H2    H     H_    0.010713 0.363990 0.055306 0.175197
H3    H     H_    0.764257 0.110305 0.515984 0.209323
H4    H     H_    0.765411 0.885860 0.515465 0.173106
H5    H     H_    0.342195 0.894015 0.502354 0.230484
H6    H     H_    0.281989 0.896850 0.396234 0.168151
H7    H     H_    0.282352 0.118227 0.398324 0.123798
H8    H     H_    0.570933 0.423809 0.630472 0.138849
H9    H     H_    0.312069 0.425640 0.630790 0.149456
H10   H     H_    0.463826 0.641485 0.306243 0.194062
H11   H     H_    0.337316 0.543489 0.221191 0.154815
H12   H     H_    0.416837 0.723759 0.415366 0.216334
H13   H     H_    0.713291 0.638135 0.306289 0.227038
H14   H     H_    0.667236 0.724860 0.414577 0.208333
H15   H     H_    0.206735 0.361650 0.919328 0.151616
H16   H     H_    0.002046 0.556566 0.950455 0.143159
H17   H     H_    0.086524 0.541845 0.787329 0.151622
H18   H     H_    0.653039 0.465199 0.773998 0.140943
H19   H     H_    0.557715 0.520637 0.166843 0.161193
H20   H     H_    0.454536 0.391429 0.840758 0.137972
N1    N     N_R   0.648210 0.500930 0.499430 -0.201477
N2    N     N_R   0.352300 0.500890 0.499430 -0.196556
O1    O     O_R   0.118810 0.319640 0.500000 -0.552109
O2    O     O_R   0.881230 0.319680 0.499990 -0.561378
O3    O     O_R   0.055580 0.499970 0.629840 -0.592928
O4    O     O_R   0.818000 0.500010 0.629830 -0.598016
O5    O     O_R   0.118770 0.680320 0.500010 -0.579410
O6    O     O_R   0.881190 0.680360 0.500000 -0.593990
O7    O     O_R   0.182000 0.499990 0.370170 -0.590037
O8    O     O_R   0.944420 0.500030 0.370160 -0.531761
Cl1   Cl    Cl    0.383701 0.139171 0.528087 -0.631570
Cl2   Cl    Cl    0.849117 0.382177 0.234071 -0.653840

loop_
_geom_bond_atom_site_label_1
_geom_bond_atom_site_label_2
_ccdc_geom_bond_type
Cu1   O1    S    
C30   H13   S    
C19   H4    S    
C34   H16   S    
C16   C21   A    
C36   H18   S    
C9    C10   A    
C1    C17   S    
C19   C20   A    
C20   C23   S    
C4    C8    A    
C1    O2    A    
C23   O5    A    
C14   C33   A    
C31   C33   S    
C2    C3    A    
C16   C24   S    
C21   C22   S    
C12   C32   S    
C25   C28   A    
C31   O7    A    
C14   Cl2   S    
C6    H19   S    
C26   C27   A    
C29   C30   S    
C2    C4    A    
C24   H7    S    
C32   C36   A    
C23   O6    A    
Cu1   O5    S    
C28   C29   S    
Cu1   O3    S    
Cu1   Cu2   S    
Cu2   O8    S    
C24   Cl1   S    
C5    C11   A    
C6    C7    A    
C3    C7    A    
C29   H12   S    
C28   N2    A    
C27   N2    A    
C5    C6    A    
C12   O4    A    
C22   C24   S    
Cu1   N2    S    
C9    H15   S    
C10   C11   A    
C26   H8    S    
C29   H10   S    
C35   H17   S    
Cu2   N1    S    
C32   C35   A    
Cu1   O7    S    
C4    C5    A    
C2    C36   A    
C31   O8    A    
C17   C18   A    
C34   C35   A    
C26   N1    A    
C18   H3    S    
C27   H9    S    
C25   C30   S    
C12   O3    A    
Cu2   O4    S    
C7    H1    S    
C18   C19   A    
C13   H2    S    
C30   H14   S    
C25   N1    A    
C3    C34   A    
C8    H20   S    
C20   C21   A    
C13   C14   A    
C11   C15   A    
C15   C33   A    
C22   H5    S    
C22   H6    S    
Cu2   O6    S    
C16   C17   A    
C15   H11   S    
C8    C9    A    
Cu2   O2    S    
C10   C13   A    
C1    O1    A    
