data_mof_unit_29014.cif
_audit_creation_date              2012-12-10T16:56:34-0500
_audit_creation_method            fapswitch 2.2
_symmetry_space_group_name_H-M    P1
_symmetry_Int_Tables_number       1
_space_group_crystal_system       triclinic
_cell_length_a                    10.81939
_cell_length_b                    10.962481
_cell_length_c                    9.722201
_cell_angle_alpha                 90.093799
_cell_angle_beta                  90.144527
_cell_angle_gamma                 89.743162
_cell_volume                      1153.10778966

loop_
_atom_site_label
_atom_site_type_symbol
_atom_type_description
_atom_site_fract_x
_atom_site_fract_y
_atom_site_fract_z
_atom_type_partial_charge
C1    C     C_R   0.491889 0.266052 0.499719 0.759454
C2    C     C_3   0.879863 0.504516 0.502998 -0.297924
C3    C     C_3   0.926753 0.604383 0.395175 0.485191
C4    C     C_3   0.931508 0.370416 0.465894 0.551795
C5    C     C_2   0.490509 0.934224 0.392994 0.394639
C6    C     C_2   0.529164 0.865119 0.499582 0.180331
C7    C     C_2   0.522044 0.065916 0.396451 0.397717
C8    C     C_2   0.473684 0.134388 0.498659 0.171702
C9    C     C_2   0.518233 0.404616 0.924967 0.614101
C10   C     C_2   0.472871 0.406627 0.074256 0.643094
C11   C     C_R   0.260466 0.505029 0.499801 0.994646
C12   C     C_R   0.505817 0.734197 0.499997 0.738396
C13   C     C_R   0.740452 0.501938 0.500609 0.932388
C14   C     C_3   0.072780 0.534410 0.654422 0.602807
C15   C     C_3   0.926672 0.542650 0.653908 0.665234
C16   C     C_3   0.072058 0.597852 0.382819 0.649655
C17   C     C_3   0.078922 0.370829 0.456747 0.672316
C18   C     C_3   0.122862 0.505583 0.499125 -0.344112
Cu1   Cu    Cu3+1 0.500030 0.500020 0.638630 1.048121
Cu2   Cu    Cu3+1 0.499970 0.499980 0.361370 1.069947
N1    N     N_2   0.498630 0.498660 0.846910 -0.050977
N2    N     N_2   0.498590 0.498630 0.153040 -0.051531
O1    O     O_R   0.500020 0.321960 0.617040 -0.558184
O2    O     O_R   0.499980 0.321920 0.382900 -0.512380
O3    O     O_R   0.317710 0.500000 0.617070 -0.559412
O4    O     O_R   0.317670 0.499960 0.382930 -0.523777
O5    O     O_R   0.500020 0.678080 0.617100 -0.615780
O6    O     O_R   0.499980 0.678040 0.382960 -0.574946
O7    O     O_R   0.682330 0.500040 0.617070 -0.526146
O8    O     O_R   0.682290 0.500000 0.382930 -0.559084
O9    O     O_3   0.130827 0.632155 0.729924 -0.628057
C19   C     C_3   0.142286 0.747804 0.670007 -0.293627
H1    H     H_    0.058690 0.778269 0.614410 0.252423
H2    H     H_    0.228541 0.752284 0.608924 0.221358
H3    H     H_    0.154764 0.814724 0.754518 0.168381
O10   O     O_3   0.878782 0.328209 0.340501 -0.770039
H4    H     H_    0.910262 0.376711 0.262768 0.373028
O11   O     O_3   0.102176 0.549522 0.249078 -0.539401
C20   C     C_3   0.155637 0.631205 0.153881 -0.128752
H5    H     H_    0.245016 0.667580 0.192391 0.226542
H6    H     H_    0.090484 0.705831 0.126360 0.097886
H7    H     H_    0.175919 0.580257 0.057855 0.178858
O12   O     O_3   0.873858 0.583349 0.264154 -0.732047
H8    H     H_    0.886584 0.657435 0.207373 0.331435
O13   O     O_3   0.430613 0.879873 0.280986 -0.587157
C21   C     C_3   0.358026 0.963475 0.205542 -0.286978
H9    H     H_    0.416922 0.026826 0.145866 0.204573
H10   H     H_    0.293330 0.014366 0.273264 0.140368
H11   H     H_    0.301241 0.911706 0.130559 0.179094
O14   O     O_3   0.596830 0.917987 0.605335 -0.741393
H12   H     H_    0.626995 0.853378 0.668347 0.354793
O15   O     O_3   0.597152 0.119399 0.296844 -0.588950
C22   C     C_3   0.686721 0.036537 0.246606 -0.365897
H13   H     H_    0.644685 0.971895 0.172062 0.196365
H14   H     H_    0.733960 0.985960 0.331082 0.166666
H15   H     H_    0.758749 0.088755 0.191441 0.199774
O16   O     O_3   0.403331 0.079841 0.600335 -0.749396
H16   H     H_    0.372532 0.143475 0.664335 0.349703
O17   O     O_3   0.578031 0.304096 0.867350 -0.591495
C23   C     C_3   0.637566 0.231041 0.966798 -0.310978
H17   H     H_    0.570089 0.169783 0.016966 0.216353
H18   H     H_    0.688702 0.286112 0.044461 0.169569
H19   H     H_    0.706358 0.172243 0.913958 0.195793
O18   O     O_3   0.419515 0.581489 0.899687 -0.662318
H20   H     H_    0.392217 0.632496 0.821842 0.392803
O19   O     O_3   0.408085 0.309542 0.129797 -0.578932
C24   C     C_3   0.312379 0.273852 0.039776 -0.325927
H21   H     H_    0.349583 0.225192 0.948370 0.167711
H22   H     H_    0.254311 0.353033 0.007789 0.182142
H23   H     H_    0.251357 0.209351 0.094837 0.191480
O20   O     O_3   0.103118 0.429779 0.733222 -0.634354
H24   H     H_    0.112249 0.450929 0.832026 0.344702
O21   O     O_3   0.580207 0.577768 0.099611 -0.660703
H25   H     H_    0.608739 0.628607 0.177104 0.386569
O22   O     O_3   0.877003 0.457059 0.751139 -0.511642
C25   C     C_3   0.864297 0.501781 0.887069 -0.134386
H26   H     H_    0.782065 0.562419 0.894842 0.200422
H27   H     H_    0.948334 0.549260 0.924583 0.118479
H28   H     H_    0.848985 0.423327 0.956583 0.179326
O23   O     O_3   0.880914 0.661504 0.682473 -0.741499
H29   H     H_    0.919269 0.694413 0.767165 0.324714
O24   O     O_3   0.127009 0.713513 0.400224 -0.794754
H30   H     H_    0.082267 0.775071 0.344125 0.339568
O25   O     O_3   0.890028 0.722410 0.438030 -0.748782
H31   H     H_    0.799163 0.729590 0.425543 0.333716
O26   O     O_3   0.123889 0.343065 0.322976 -0.701320
H32   H     H_    0.084486 0.268463 0.286119 0.311870
O27   O     O_3   0.132993 0.285361 0.551356 -0.518635
C26   C     C_3   0.131702 0.162503 0.506789 -0.185306
H33   H     H_    0.043917 0.136042 0.456325 0.143513
H34   H     H_    0.143943 0.102604 0.597655 0.190314
H35   H     H_    0.210080 0.145708 0.436113 0.158329
O28   O     O_3   0.900689 0.290118 0.576871 -0.528368
C27   C     C_3   0.802347 0.209407 0.550128 -0.028804
H36   H     H_    0.833992 0.132005 0.485589 0.144120
H37   H     H_    0.724454 0.256308 0.499725 0.166599
H38   H     H_    0.768811 0.172104 0.649120 0.173273

loop_
_geom_bond_atom_site_label_1
_geom_bond_atom_site_label_2
_ccdc_geom_bond_type
C15   O22   S    
C4    O10   S    
C11   C18   S    
O28   C27   S    
C17   O27   S    
O21   H25   S    
C14   C18   S    
Cu1   O1    S    
Cu1   Cu2   S    
C25   H28   S    
C14   O9    S    
O12   H8    S    
C7    C8    D    
C20   H6    S    
Cu2   O8    S    
C22   H13   S    
C10   N2    D    
C21   H11   S    
C3    O12   S    
C12   O6    A    
C23   H19   S    
C13   O7    A    
O10   H4    S    
Cu1   N1    S    
C25   H27   S    
C7    O15   S    
C6    C12   S    
O11   C20   S    
C11   O3    A    
C1    C8    S    
C23   H18   S    
C14   O20   S    
C2    C13   S    
N1    O18   S    
Cu2   O2    S    
C26   H34   S    
Cu1   O5    S    
C9    C10   S    
C10   O19   S    
O19   C24   S    
O17   C23   S    
O14   H12   S    
C20   H7    S    
C22   H14   S    
C21   H10   S    
C12   O5    A    
C17   O26   S    
C19   H3    S    
C13   O8    A    
C25   H26   S    
C20   H5    S    
C5    C7    S    
O26   H32   S    
Cu2   O6    S    
C27   H38   S    
O13   C21   S    
C5    O13   S    
C6    O14   S    
C24   H21   S    
C23   H17   S    
C24   H22   S    
C19   H2    S    
C2    C4    S    
O22   C25   S    
C8    O16   S    
C15   O23   S    
C16   O24   S    
C17   C18   S    
O25   H31   S    
C26   H35   S    
C27   H37   S    
C2    C15   S    
C4    C17   S    
Cu2   N2    S    
C1    O1    A    
Cu1   O7    S    
O15   C22   S    
C22   H15   S    
C21   H9    S    
O9    C19   S    
O23   H29   S    
C11   O4    A    
C24   H23   S    
O18   H20   S    
C2    C3    S    
O20   H24   S    
C19   H1    S    
C9    N1    D    
O16   H16   S    
C5    C6    D    
Cu2   O4    S    
C27   H36   S    
Cu1   O3    S    
C4    O28   S    
O27   C26   S    
C1    O2    A    
C16   C18   S    
O24   H30   S    
C3    O25   S    
C14   C15   S    
N2    O21   S    
C9    O17   S    
C26   H33   S    
C3    C16   S    
C16   O11   S    
