data_mof_unit_51831.cif
_audit_creation_date              2012-12-10T16:48:44-0500
_audit_creation_method            fapswitch 2.2
_symmetry_space_group_name_H-M    P1
_symmetry_Int_Tables_number       1
_space_group_crystal_system       triclinic
_cell_length_a                    7.742367
_cell_length_b                    8.586763
_cell_length_c                    10.893101
_cell_angle_alpha                 88.142442
_cell_angle_beta                  100.036104
_cell_angle_gamma                 93.292928
_cell_volume                      711.749890761

loop_
_atom_site_label
_atom_site_type_symbol
_atom_type_description
_atom_site_fract_x
_atom_site_fract_y
_atom_site_fract_z
_atom_type_partial_charge
C1    C     C_R   0.544635 0.794784 0.496784 0.967647
C2    C     C_2   0.431731 0.041909 0.504977 -0.390159
C3    C     C_3   0.080750 0.621890 0.123209 -0.718010
C4    C     C_3   0.920427 0.380868 0.877313 -0.718041
C5    C     C_R   0.455363 0.205216 0.503212 0.967667
C6    C     C_R   0.574735 0.490424 0.736167 0.885002
C7    C     C_R   0.425264 0.509609 0.263857 0.885453
C8    C     C_2   0.618095 0.471159 0.871386 0.029339
C9    C     C_2   0.381778 0.528748 0.128674 0.029055
C10   C     C_2   0.496813 0.517391 0.934558 -0.219983
C11   C     C_2   0.502405 0.481412 0.065411 -0.219664
C12   C     C_2   0.568264 0.958091 0.495011 -0.390088
H1    H     H_    0.611577 0.416042 0.112799 0.178675
H2    H     H_    0.037313 0.503010 0.152603 0.256893
H3    H     H_    0.727691 0.279101 0.971129 0.220203
H4    H     H_    0.028422 0.335626 0.947710 0.239931
H5    H     H_    0.962443 0.500185 0.847942 0.256393
H6    H     H_    0.897741 0.301229 0.797105 0.243609
H7    H     H_    0.387061 0.581993 0.887115 0.179160
H8    H     H_    0.697411 0.008864 0.485552 0.179392
H9    H     H_    0.302584 0.991136 0.514436 0.179378
H10   H     H_    0.985624 0.386261 0.407715 0.189105
H11   H     H_    0.014376 0.613739 0.592285 0.189087
H12   H     H_    0.273883 0.721364 0.028678 0.220391
H13   H     H_    0.973168 0.668148 0.053009 0.239300
H14   H     H_    0.104840 0.701478 0.203477 0.243582
N1    N     N_2   0.940600 0.458860 0.467170 -0.176264
N2    N     N_2   0.059400 0.541140 0.532830 -0.176278
N3    N     N_2   0.237186 0.616405 0.067934 -0.322662
N4    N     N_2   0.763499 0.384571 0.932240 -0.322056
O1    O     O_R   0.391630 0.738350 0.508060 -0.612629
O2    O     O_R   0.608370 0.261650 0.491940 -0.612602
O3    O     O_R   0.674540 0.711990 0.487010 -0.628441
O4    O     O_R   0.325460 0.288010 0.512990 -0.628458
O5    O     O_R   0.411370 0.508250 0.688780 -0.630428
O6    O     O_R   0.588630 0.491750 0.311220 -0.630251
O7    O     O_R   0.694270 0.481880 0.667740 -0.617285
O8    O     O_R   0.305730 0.518120 0.332260 -0.617449
Zn1   Zn    Zn3+2 0.311100 0.517600 0.514050 0.925679
Zn2   Zn    Zn3+2 0.688900 0.482400 0.485950 0.925808

loop_
_geom_bond_atom_site_label_1
_geom_bond_atom_site_label_2
_ccdc_geom_bond_type
C4    H4    S    
O5    Zn1   S    
C3    H2    S    
C9    C11   D    
C7    O6    A    
C10   H7    S    
C9    N3    S    
N1    Zn2   S    
C5    O2    A    
C8    N4    S    
C5    O4    A    
C12   H8    S    
C2    H9    S    
C6    O7    A    
C1    O3    A    
H11   N2    S    
C11   H1    S    
C3    N3    S    
C1    C12   S    
C4    H5    S    
C7    O8    A    
O1    Zn1   S    
O7    Zn2   S    
H10   N1    S    
O2    Zn2   S    
C1    O1    A    
O8    Zn1   S    
C2    C5    S    
C10   C11   S    
O4    Zn1   S    
O3    Zn2   S    
C3    H13   S    
C6    O5    A    
H3    N4    S    
C8    C10   D    
C2    C12   D    
N1    N2    D    
C7    C9    S    
H12   N3    S    
O6    Zn2   S    
C6    C8    S    
N2    Zn1   S    
C4    H6    S    
C3    H14   S    
C4    N4    S    
