data_mof_unit_26743.cif
_audit_creation_date              2012-12-10T16:48:09-0500
_audit_creation_method            fapswitch 2.2
_symmetry_space_group_name_H-M    P1
_symmetry_Int_Tables_number       1
_space_group_crystal_system       triclinic
_cell_length_a                    15.82674
_cell_length_b                    8.735115
_cell_length_c                    7.536225
_cell_angle_alpha                 102.992556
_cell_angle_beta                  94.881289
_cell_angle_gamma                 93.249119
_cell_volume                      1008.42807183

loop_
_atom_site_label
_atom_site_type_symbol
_atom_type_description
_atom_site_fract_x
_atom_site_fract_y
_atom_site_fract_z
_atom_type_partial_charge
C1    C     C_R   0.495135 0.200651 0.454787 0.870652
C2    C     C_R   0.504865 0.799349 0.545213 0.870652
C3    C     C_R   0.340235 0.499715 0.500921 0.805365
C4    C     C_R   0.659765 0.500285 0.499079 0.805365
C5    C     C_2   0.479582 0.034422 0.437713 0.005731
C6    C     C_2   0.520418 0.965578 0.562287 0.005731
C7    C     C_3   0.973076 0.388567 0.582285 0.038862
C8    C     C_3   0.026924 0.611433 0.417714 0.038862
C9    C     C_3   0.020786 0.357568 0.408323 -0.281839
C10   C     C_3   0.979214 0.642432 0.591676 -0.281839
C11   C     C_1   0.250760 0.500417 0.502225 -0.139696
C12   C     C_1   0.749239 0.499583 0.497775 -0.139696
C13   C     C_3   0.036506 0.530882 0.671346 0.110426
C14   C     C_3   0.963494 0.469118 0.328654 0.110426
C15   C     C_3   0.083519 0.501587 0.498568 0.124366
C16   C     C_3   0.916481 0.498413 0.501432 0.124366
C17   C     C_1   0.175201 0.500947 0.500565 0.027769
C18   C     C_1   0.824799 0.499053 0.499435 0.027769
Cu1   Cu    Cu3+1 0.509330 0.517380 0.684380 0.973803
Cu2   Cu    Cu3+1 0.490670 0.482620 0.315620 0.973803
H1    H     H_    0.038349 0.241302 0.332520 0.157198
H2    H     H_    0.961651 0.758698 0.667480 0.157198
N1    N     N_2   0.476600 0.456420 0.038510 -0.217964
N2    N     N_2   0.523400 0.543580 0.961490 -0.217964
O1    O     O_R   0.506070 0.286130 0.619780 -0.584016
O2    O     O_R   0.493930 0.713870 0.380220 -0.584016
O3    O     O_R   0.490300 0.256770 0.308360 -0.565802
O4    O     O_R   0.509700 0.743230 0.691640 -0.565802
O5    O     O_R   0.386960 0.514660 0.655680 -0.616018
O6    O     O_R   0.613040 0.485340 0.344320 -0.616018
O7    O     O_R   0.371190 0.485310 0.344260 -0.597839
O8    O     O_R   0.628810 0.514690 0.655740 -0.597839
C19   C     C_2   0.944989 0.259871 0.671023 0.328926
H3    H     H_    0.991961 0.190599 0.722418 0.066152
O9    O     O_2   0.869823 0.231953 0.685660 -0.544067
C20   C     C_2   0.055010 0.740129 0.328977 0.328926
H4    H     H_    0.008039 0.809401 0.277582 0.066152
O10   O     O_2   0.130177 0.768047 0.314340 -0.544067
C21   C     C_3   0.920173 0.429051 0.134585 -0.817328
H5    H     H_    0.967953 0.389642 0.038822 0.238104
H6    H     H_    0.869910 0.331797 0.119275 0.259932
H7    H     H_    0.891261 0.533945 0.103192 0.224273
C22   C     C_3   0.079826 0.570949 0.865415 -0.817328
H8    H     H_    0.032046 0.610357 0.961178 0.238104
H9    H     H_    0.108738 0.466055 0.896807 0.224273
H10   H     H_    0.130090 0.668203 0.880725 0.259932
C23   C     C_3   0.408230 0.951220 0.294408 -0.754581
H11   H     H_    0.370785 0.036690 0.238543 0.230841
H12   H     H_    0.434568 0.874164 0.177461 0.279083
H13   H     H_    0.362902 0.881177 0.355535 0.230019
C24   C     C_3   0.591770 0.048780 0.705592 -0.754581
H14   H     H_    0.629215 0.963310 0.761457 0.230841
H15   H     H_    0.637098 0.118823 0.644465 0.230019
H16   H     H_    0.565432 0.125835 0.822539 0.279083
C25   C     C_2   0.404002 0.367769 0.936286 0.730405
H17   H     H_    0.345891 0.424557 0.916659 0.006721
O11   O     O_2   0.403655 0.224872 0.886126 -0.589476
C26   C     C_2   0.595998 0.632231 0.063714 0.730405
H18   H     H_    0.654109 0.575443 0.083340 0.006721
O12   O     O_2   0.596345 0.775128 0.113874 -0.589476

loop_
_geom_bond_atom_site_label_1
_geom_bond_atom_site_label_2
_ccdc_geom_bond_type
C1    O1    A    
C9    C14   S    
N1    C25   S    
Cu2   O3    S    
C6    C24   S    
C4    C12   S    
C22   H9    S    
Cu1   Cu2   S    
Cu2   N1    S    
C7    C13   S    
C25   H17   S    
C24   H16   S    
C1    O3    A    
C20   O10   D    
Cu1   N2    S    
C26   H18   S    
C4    O6    A    
C24   H14   S    
C2    O2    A    
C25   O11   D    
Cu2   O6    S    
C10   H2    S    
C3    O7    A    
Cu1   O4    S    
C7    C19   S    
C9    H1    S    
C2    C6    S    
Cu2   O2    S    
C1    C5    S    
Cu1   O8    S    
C16   C18   S    
C20   H4    S    
C5    C23   S    
C23   H12   S    
C19   H3    S    
C23   H13   S    
C13   C15   S    
C22   H8    S    
C9    C15   S    
C5    C6    D    
Cu1   O1    S    
C22   H10   S    
C14   C16   S    
C3    C11   S    
N1    N2    D    
C26   O12   D    
C4    O8    A    
Cu1   O5    S    
N2    C26   S    
C7    C9    S    
C13   C22   S    
C21   H6    S    
C3    O5    A    
C8    C20   S    
C12   C18   T    
C21   H5    S    
C10   C16   S    
C21   H7    S    
C7    C16   S    
C2    O4    A    
C8    C15   S    
C8    C14   S    
C19   O9    D    
C14   C21   S    
C15   C17   S    
Cu2   O7    S    
C8    C10   S    
C11   C17   T    
C23   H11   S    
C24   H15   S    
C10   C13   S    
