data_mof_unit_22319.cif
_audit_creation_date              2012-12-10T16:52:37-0500
_audit_creation_method            fapswitch 2.2
_symmetry_space_group_name_H-M    P1
_symmetry_Int_Tables_number       1
_space_group_crystal_system       triclinic
_cell_length_a                    7.848085
_cell_length_b                    8.437622
_cell_length_c                    13.893801
_cell_angle_alpha                 92.832631
_cell_angle_beta                  94.798073
_cell_angle_gamma                 94.423383
_cell_volume                      912.634662306

loop_
_atom_site_label
_atom_site_type_symbol
_atom_type_description
_atom_site_fract_x
_atom_site_fract_y
_atom_site_fract_z
_atom_type_partial_charge
C1    C     C_R   0.049759 0.795218 0.509873 0.917722
C2    C     C_R   0.933233 0.481703 0.318218 0.869359
C3    C     C_R   0.097402 0.517067 0.786092 -0.067627
C4    C     C_R   0.890137 0.432175 0.216214 -0.096491
C5    C     C_R   0.031807 0.604187 0.946155 -0.178968
C6    C     C_R   0.895320 0.235463 0.082841 -0.178759
C7    C     C_R   0.989832 0.591854 0.846577 -0.201160
C8    C     C_R   0.964619 0.303833 0.172656 -0.181633
C9    C     C_R   0.239291 0.446186 0.825205 -0.231809
C10   C     C_R   0.746838 0.489770 0.169551 -0.234640
C11   C     C_R   0.277657 0.448681 0.924859 0.088708
C12   C     C_R   0.960684 0.207249 0.515877 0.950795
C13   C     C_R   0.659329 0.404241 0.089223 0.108298
C14   C     C_R   0.178958 0.538290 0.985354 0.139804
C15   C     C_R   0.740127 0.283614 0.041220 0.134870
C16   C     C_R   0.422509 0.377729 0.964894 -0.021967
C17   C     C_R   0.490194 0.433339 0.058212 -0.024314
C18   C     C_3   0.410588 0.318097 0.250488 -0.759981
C19   C     C_3   0.267831 0.048956 0.868257 -0.807928
C20   C     C_3   0.277992 0.020254 0.560338 -0.341175
C21   C     C_3   0.371655 0.026986 0.467965 -0.838033
C22   C     C_3   0.820184 0.000344 0.620492 -0.411007
C23   C     C_R   0.379711 0.500818 0.121714 0.184896
C24   C     C_3   0.823899 0.118542 0.707588 -0.891257
C25   C     C_R   0.499142 0.250373 0.918055 0.213368
C26   C     C_R   0.227862 0.558702 0.084113 -0.289584
C27   C     C_R   0.657591 0.204917 0.957348 -0.302259
C28   C     C_2   0.088858 0.960430 0.539275 -0.101849
C29   C     C_2   0.956423 0.050474 0.553891 -0.081220
C30   C     C_R   0.065534 0.512697 0.681636 0.840170
H1    H     H_    0.146914 0.616550 0.132145 0.147260
H2    H     H_    0.514622 0.632790 0.567117 0.183468
H3    H     H_    0.341655 0.554889 0.266751 0.250891
H4    H     H_    0.540921 0.299049 0.282666 0.248675
H5    H     H_    0.378765 0.230425 0.187858 0.230039
H6    H     H_    0.316810 0.291736 0.303797 0.228995
H7    H     H_    0.484703 0.095127 0.796187 0.221914
H8    H     H_    0.201271 0.982903 0.802886 0.237899
H9    H     H_    0.173004 0.118202 0.903402 0.252657
H10   H     H_    0.317242 0.961560 0.918736 0.246526
H11   H     H_    0.492357 0.104635 0.482058 0.235364
H12   H     H_    0.713305 0.104352 0.924598 0.140523
H13   H     H_    0.405660 0.906927 0.444099 0.259050
H14   H     H_    0.291609 0.074510 0.408226 0.258025
H15   H     H_    0.294369 0.137670 0.601289 0.233058
H16   H     H_    0.341868 0.938556 0.609554 0.181323
H17   H     H_    0.957936 0.155500 0.736859 0.266229
H18   H     H_    0.757299 0.225243 0.687899 0.285044
H19   H     H_    0.757965 0.060023 0.765165 0.229699
H20   H     H_    0.691510 0.988834 0.580468 0.221263
H21   H     H_    0.843314 0.883593 0.650657 0.228137
H22   H     H_    0.695348 0.593393 0.201715 0.165736
H23   H     H_    0.324326 0.396105 0.776768 0.182486
H24   H     H_    0.069760 0.250810 0.209787 0.155651
H25   H     H_    0.877946 0.646161 0.816676 0.151087
H26   H     H_    0.951850 0.667835 0.992101 0.136363
H27   H     H_    0.955913 0.137994 0.049678 0.129764
H28   H     H_    0.487614 0.363866 0.437810 0.196000
N1    N     N_2   0.440860 0.456490 0.474790 -0.174138
N2    N     N_2   0.559140 0.543510 0.525210 -0.176645
N3    N     N_2   0.405377 0.481964 0.222969 -0.298320
N4    N     N_2   0.408115 0.153559 0.840400 -0.324552
O1    O     O_R   0.891570 0.738930 0.506190 -0.628489
O2    O     O_R   0.108430 0.261070 0.493810 -0.618247
O3    O     O_R   0.174650 0.711050 0.490030 -0.607891
O4    O     O_R   0.825350 0.288950 0.509970 -0.620980
O5    O     O_R   0.909850 0.521900 0.644940 -0.626116
O6    O     O_R   0.090150 0.478100 0.355060 -0.623570
O7    O     O_R   0.192930 0.494020 0.628780 -0.629373
O8    O     O_R   0.807070 0.505980 0.371220 -0.595541
Zn1   Zn    Zn3+2 0.810990 0.518620 0.510790 0.911218
Zn2   Zn    Zn3+2 0.189010 0.481380 0.489210 0.903185

loop_
_geom_bond_atom_site_label_1
_geom_bond_atom_site_label_2
_ccdc_geom_bond_type
O7    Zn2   S    
C2    C4    S    
C18   N3    S    
O8    Zn1   S    
C3    C9    A    
C19   H8    S    
C13   C17   A    
C12   C29   S    
C1    C28   S    
O3    Zn2   S    
C9    C11   A    
C18   H5    S    
C5    H26   S    
C1    O3    A    
C30   O5    A    
C6    H27   S    
C7    H25   S    
N1    Zn2   S    
C22   H20   S    
C10   H22   S    
C24   H17   S    
O2    Zn2   S    
H7    N4    S    
H28   N1    S    
N1    N2    D    
C2    O8    A    
C14   C26   A    
C18   H4    S    
C27   H12   S    
C18   H6    S    
C5    C14   A    
C17   C23   A    
C19   H9    S    
C21   H11   S    
C1    O1    A    
C3    C30   S    
C28   C29   D    
C22   C29   S    
O1    Zn1   S    
C3    C7    A    
C25   N4    S    
C13   C15   A    
C15   C27   A    
C12   O2    A    
C11   C14   A    
C22   C24   S    
O5    Zn1   S    
C25   C27   A    
C19   H10   S    
H2    N2    S    
C19   N4    S    
C4    C10   A    
C21   H14   S    
C20   H15   S    
C23   N3    S    
C30   O7    A    
C9    H23   S    
C20   C21   S    
C24   H19   S    
H3    N3    S    
C11   C16   A    
C23   C26   A    
C8    H24   S    
C4    C8    A    
C5    C7    A    
C16   C25   A    
C22   H21   S    
C6    C8    A    
C20   C28   S    
N2    Zn1   S    
C26   H1    S    
C6    C15   A    
C21   H13   S    
C2    O6    A    
C12   O4    A    
C20   H16   S    
O4    Zn1   S    
C16   C17   A    
O6    Zn2   S    
C10   C13   A    
C24   H18   S    
