data_mof_unit_40190.cif
_audit_creation_date              2012-10-26T19:06:49-0400
_audit_creation_method            fapswitch 2.2
_symmetry_space_group_name_H-M    P1
_symmetry_Int_Tables_number       1
_space_group_crystal_system       triclinic
_cell_length_a                    12.314031
_cell_length_b                    13.178109
_cell_length_c                    27.795082
_cell_angle_alpha                 77.742392
_cell_angle_beta                  101.185695
_cell_angle_gamma                 116.54696
_cell_volume                      3917.51530178

loop_
_atom_site_label
_atom_site_type_symbol
_atom_type_description
_atom_site_fract_x
_atom_site_fract_y
_atom_site_fract_z
_atom_type_partial_charge
C1    C     C_R   0.854873 0.286562 0.504279 0.532349
C2    C     C_R   0.903726 0.407543 0.026549 0.031158
C3    C     C_R   0.097083 0.582778 0.025286 0.021460
C4    C     C_R   0.999300 0.499649 0.592414 0.549892
C5    C     C_R   0.000858 0.495108 0.051228 0.028028
C6    C     C_R   0.802386 0.331661 0.052349 -0.085462
C7    C     C_R   0.802556 0.333777 0.102139 -0.111769
C8    C     C_R   0.902323 0.413823 0.127773 0.022943
C9    C     C_R   0.001080 0.495706 0.102292 -0.026899
C10   C     C_R   0.099660 0.578633 0.127875 0.028612
C11   C     C_R   0.098102 0.577533 0.178351 0.413770
C12   C     C_R   0.091296 0.487428 0.730469 -0.055833
C13   C     C_R   0.904522 0.415590 0.178271 0.451790
C14   C     C_R   0.084554 0.469577 0.289442 -0.122017
C15   C     C_R   0.084728 0.470542 0.339519 -0.165994
C16   C     C_R   0.145089 0.713417 0.492755 0.552066
C17   C     C_R   0.917782 0.528222 0.318862 -0.109240
C18   C     C_R   0.918000 0.527627 0.268781 0.446855
C19   C     C_R   0.001189 0.497905 0.253905 0.245097
C20   C     C_R   0.909173 0.401509 0.976632 0.020566
C21   C     C_R   0.999216 0.495082 0.949611 -0.013824
C22   C     C_R   0.091129 0.587383 0.973406 0.025647
C23   C     C_R   0.995949 0.497965 0.746182 0.241461
C24   C     C_R   0.829950 0.304686 0.952663 0.354307
C25   C     C_R   0.169471 0.683253 0.893818 -0.101756
C26   C     C_R   0.196205 0.663068 0.052326 -0.129120
C27   C     C_R   0.197333 0.660730 0.102633 -0.097210
C28   C     C_R   0.000478 0.500047 0.407590 0.553916
C29   C     C_R   0.173641 0.681898 0.944234 -0.127240
C30   C     C_R   0.275331 0.021352 0.434083 -0.122010
C31   C     C_R   0.227954 0.834515 0.482556 0.000041
C32   C     C_R   0.815536 0.085242 0.536524 -0.126952
C33   C     C_R   0.736794 0.970345 0.546205 -0.132731
C34   C     C_R   0.998027 0.496043 0.898318 -0.045131
C35   C     C_R   0.613403 0.932628 0.528851 -0.115324
C36   C     C_R   0.566545 0.009381 0.499482 0.034699
C37   C     C_R   0.649994 0.123778 0.484819 0.024078
C38   C     C_R   0.439849 0.976087 0.483700 0.030588
C39   C     C_R   0.400086 0.053288 0.449948 0.050942
C40   C     C_R   0.912415 0.405014 0.823990 0.402920
C41   C     C_R   0.485353 0.160378 0.431429 -0.129559
C42   C     C_R   0.608525 0.194511 0.447950 -0.114018
C43   C     C_R   0.351041 0.868470 0.500782 -0.130180
C44   C     C_R   0.189568 0.912014 0.450048 -0.129289
C45   C     C_R   0.912091 0.402380 0.874734 -0.036004
C46   C     C_R   0.773043 0.163559 0.507024 -0.000763
C47   C     C_R   0.346699 0.328638 0.578875 -0.144050
C48   C     C_R   0.759541 0.645350 0.433104 0.052485
C49   C     C_R   0.663004 0.677074 0.418631 -0.149080
C50   C     C_R   0.559535 0.622281 0.443785 -0.134146
C51   C     C_R   0.551421 0.534564 0.484041 -0.006570
C52   C     C_R   0.080077 0.589836 0.819864 0.402324
C53   C     C_R   0.653038 0.505263 0.497634 0.179585
C54   C     C_R   0.447041 0.475171 0.511363 -0.012282
C55   C     C_R   0.446821 0.388247 0.551448 0.036290
C56   C     C_R   0.830514 0.306735 0.902483 -0.056882
C57   C     C_R   0.546600 0.361344 0.564133 -0.173426
C58   C     C_R   0.647335 0.418685 0.537976 -0.101376
C59   C     C_R   0.342036 0.497797 0.500919 0.039916
C60   C     C_R   0.246730 0.355165 0.566750 0.042975
C61   C     C_R   0.901306 0.508686 0.711514 -0.057440
C62   C     C_R   0.902260 0.509415 0.661341 -0.147934
C63   C     C_R   0.092277 0.487705 0.680396 -0.142153
C64   C     C_R   0.083256 0.590434 0.870555 0.038129
C65   C     C_R   0.997898 0.498991 0.645328 0.003387
C66   C     C_R   0.001084 0.499621 0.354702 -0.055156
Cu1   Cu    Cu3+1 0.098270 0.475420 0.511360 0.935265
Cu2   Cu    Cu3+1 0.901730 0.524580 0.488640 0.922691
F1    F     F_    0.837946 0.556823 0.234641 -0.590230
F2    F     F_    0.758600 0.203062 0.977652 -0.641952
H1    H     H_    0.167125 0.479511 0.669189 0.133834
H2    H     H_    0.244548 0.079858 0.408231 0.116888
H3    H     H_    0.164517 0.478796 0.757162 0.134093
H4    H     H_    0.374995 0.808188 0.528030 0.121470
H5    H     H_    0.909533 0.113233 0.553205 0.131513
H6    H     H_    0.557983 0.842356 0.538166 0.106785
H7    H     H_    0.770902 0.910522 0.568648 0.126357
H8    H     H_    0.670586 0.275943 0.430266 0.157485
H9    H     H_    0.169057 0.309524 0.587743 0.123292
H10   H     H_    0.547165 0.295193 0.594861 0.121620
H11   H     H_    0.345877 0.262032 0.609543 0.105010
H12   H     H_    0.827372 0.516921 0.723485 0.131598
H13   H     H_    0.334107 0.562165 0.471122 0.120625
H14   H     H_    0.839517 0.688391 0.413391 0.129793
H15   H     H_    0.767785 0.231351 0.885640 0.195551
H16   H     H_    0.487640 0.650355 0.430994 0.107676
H17   H     H_    0.668396 0.744385 0.387809 0.123262
H18   H     H_    0.718988 0.392094 0.551034 0.184646
H19   H     H_    0.149983 0.448136 0.366275 0.147270
H20   H     H_    0.148999 0.446494 0.278187 0.145141
H21   H     H_    0.723126 0.272945 0.120329 0.175736
H22   H     H_    0.718811 0.272936 0.034425 0.207583
H23   H     H_    0.234767 0.757671 0.873136 0.171328
H24   H     H_    0.828100 0.517830 0.635204 0.130184
H25   H     H_    0.276124 0.727472 0.035878 0.123928
H26   H     H_    0.852687 0.551468 0.329477 0.153194
H27   H     H_    0.275263 0.724265 0.121636 0.175624
H28   H     H_    0.240892 0.757945 0.959055 0.122053
H29   H     H_    0.094367 0.886661 0.435463 0.127483
H30   H     H_    0.456769 0.218193 0.403975 0.120123
N1    N     N_R   0.995580 0.497906 0.797726 -0.393920
N2    N     N_R   0.001410 0.496798 0.202421 -0.375476
N3    N     N_R   0.246290 0.438210 0.528570 -0.235196
N4    N     N_R   0.754320 0.561170 0.471730 -0.237583
O1    O     O_R   0.972510 0.318140 0.514280 -0.500940
O2    O     O_R   0.082990 0.479230 0.439860 -0.499802
O3    O     O_R   0.917010 0.520730 0.420680 -0.514038
O4    O     O_2   0.831108 0.315101 0.801152 -0.493304
O5    O     O_2   0.811010 0.336397 0.203154 -0.457057
O6    O     O_2   0.160501 0.680465 0.792839 -0.494744
O7    O     O_2   0.191799 0.657186 0.203084 -0.484422
O8    O     O_R   0.806530 0.359640 0.495100 -0.528980
O9    O     O_R   0.082990 0.479270 0.579320 -0.502025
O10   O     O_R   0.917010 0.520770 0.560140 -0.519194
O11   O     O_R   0.193470 0.640360 0.504900 -0.507417
O12   O     O_R   0.027490 0.681860 0.485720 -0.502280

loop_
_geom_bond_atom_site_label_1
_geom_bond_atom_site_label_2
_ccdc_geom_bond_type
C10   C27   A    
C63   C65   A    
C60   H9    S    
C25   H23   S    
C8    C13   A    
C22   C29   A    
C41   C42   A    
C49   H17   S    
C35   C36   A    
C32   H5    S    
C56   H15   S    
Cu1   N3    S    
C7    C8    A    
C39   C41   A    
C23   N1    S    
C16   C31   S    
C12   C23   A    
C26   C27   A    
C31   C43   A    
C29   H28   S    
C4    O10   A    
C36   C37   A    
C59   H13   S    
C61   H12   S    
C1    O8    A    
C4    C65   S    
C19   N2    S    
C1    C46   S    
C28   O3    A    
C48   N4    A    
C18   C19   A    
Cu2   O8    S    
C37   C42   A    
Cu1   O11   S    
C14   H20   S    
C13   O5    S    
C47   C60   A    
C20   C24   A    
C45   C56   A    
C28   O2    A    
C8    C9    A    
Cu2   O3    S    
C60   N3    A    
C9    C10   A    
C40   O4    S    
C18   F1    S    
C40   N1    A    
C12   H3    S    
C57   H10   S    
C30   C44   A    
C2    C6    A    
C16   O12   A    
C50   C51   A    
C54   C59   A    
C25   C29   A    
C40   C45   A    
C52   N1    A    
C35   H6    S    
C31   C44   A    
C11   O7    S    
Cu1   Cu2   S    
C4    O9    A    
C52   C64   A    
C17   H26   S    
C12   C63   A    
Cu1   O1    S    
C21   C34   A    
C15   C66   A    
C2    C20   A    
C48   H14   S    
C51   C53   A    
C25   C64   A    
C28   C66   S    
C5    C9    A    
C15   H19   S    
C52   O6    S    
C7    H21   S    
C34   C64   A    
C17   C18   A    
C17   C66   A    
C41   H30   S    
C34   C45   A    
Cu2   O12   S    
C48   C49   A    
C63   H1    S    
C42   H8    S    
C55   C57   A    
C2    C5    A    
C16   O11   A    
C47   C55   A    
C26   H25   S    
C54   C55   A    
C27   H27   S    
C62   C65   A    
C32   C46   A    
C14   C19   A    
C3    C26   A    
Cu2   N4    S    
C3    C5    A    
C58   H18   S    
C24   F2    S    
C30   H2    S    
C53   C58   A    
C13   N2    A    
Cu1   O2    S    
C6    C7    A    
C24   C56   A    
C51   C54   A    
C59   N3    A    
C32   C33   A    
C62   H24   S    
Cu1   O9    S    
C38   C43   A    
C33   H7    S    
C57   C58   A    
C38   C39   A    
C43   H4    S    
C6    H22   S    
C36   C38   A    
C33   C35   A    
C30   C39   A    
C11   N2    A    
C47   H11   S    
C61   C62   A    
C44   H29   S    
C10   C11   A    
C50   H16   S    
C23   C61   A    
C20   C21   A    
C49   C50   A    
C1    O1    A    
C14   C15   A    
C3    C22   A    
C53   N4    A    
C37   C46   A    
C21   C22   A    
Cu2   O10   S    
