data_mof_unit_14690.cif
_audit_creation_date              2012-12-10T17:24:49-0500
_audit_creation_method            fapswitch 2.2
_symmetry_space_group_name_H-M    P1
_symmetry_Int_Tables_number       1
_space_group_crystal_system       triclinic
_cell_length_a                    18.648945
_cell_length_b                    18.411153
_cell_length_c                    19.134073
_cell_angle_alpha                 109.396789
_cell_angle_beta                  110.279931
_cell_angle_gamma                 107.585506
_cell_volume                      5125.71796454

loop_
_atom_site_label
_atom_site_type_symbol
_atom_type_description
_atom_site_fract_x
_atom_site_fract_y
_atom_site_fract_z
_atom_type_partial_charge
C1    C     C_R   0.622255 0.619703 0.502418 0.942042
C2    C     C_R   0.672636 0.751992 0.490992 0.037357
C3    C     C_3   0.315886 0.903544 0.477333 -0.907280
C4    C     C_3   0.012191 0.243702 0.543366 -0.774247
C5    C     C_3   0.064772 0.060214 0.881809 -0.883693
C6    C     C_3   0.086841 0.397495 0.229389 -0.887125
C7    C     C_3   0.244314 0.572850 0.408261 -0.867396
C8    C     C_R   0.812556 0.813536 0.499816 -0.175589
C9    C     C_R   0.380457 0.502301 0.380263 0.888545
C10   C     C_R   0.821887 0.738215 0.497813 -0.002374
C11   C     C_R   0.765484 0.679786 0.510609 0.028252
C12   C     C_R   0.688909 0.685498 0.502937 -0.168511
C13   C     C_R   0.885120 0.718047 0.482056 0.099833
C14   C     C_R   0.905821 0.656516 0.500005 0.217352
C15   C     C_R   0.858260 0.608614 0.524984 -0.221861
C16   C     C_R   0.787214 0.616365 0.527538 0.057919
C17   C     C_3   0.174417 0.453548 0.242441 0.196091
C18   C     C_R   0.773025 0.665468 0.761066 0.072594
C19   C     C_R   0.829641 0.743406 0.837383 -0.222060
C20   C     C_R   0.877335 0.744475 0.911147 0.214624
C21   C     C_R   0.381773 0.380088 0.502458 0.929324
C22   C     C_R   0.872337 0.665545 0.907885 0.074080
C23   C     C_R   0.816087 0.583647 0.829278 -0.018033
C24   C     C_R   0.758793 0.582414 0.757237 0.032328
C25   C     C_R   0.817392 0.503865 0.818957 -0.152527
C26   C     C_R   0.760299 0.424051 0.741164 -0.013836
C27   C     C_R   0.689573 0.418002 0.676381 -0.000566
C28   C     C_3   0.248425 0.536000 0.326605 0.186714
C29   C     C_R   0.690509 0.499150 0.684871 -0.176565
C30   C     C_R   0.773983 0.349959 0.727332 -0.276176
C31   C     C_R   0.719957 0.271188 0.651892 0.115680
C32   C     C_R   0.645310 0.261044 0.589573 0.250661
C33   C     C_R   0.621826 0.499446 0.619974 0.933036
C34   C     C_R   0.624721 0.330947 0.605497 0.147572
C35   C     C_R   0.386171 0.402450 0.665634 0.206217
C36   C     C_R   0.367600 0.436111 0.729774 -0.136265
C37   C     C_R   0.296091 0.383531 0.728317 0.071833
C38   C     C_R   0.242336 0.296651 0.660854 0.030438
C39   C     C_3   0.312892 0.503906 0.315025 -0.103429
C40   C     C_R   0.247789 0.270627 0.583476 0.008735
C41   C     C_R   0.317965 0.329711 0.584543 0.014212
C42   C     C_R   0.189031 0.188718 0.506210 -0.152568
C43   C     C_R   0.193978 0.172638 0.430493 -0.009845
C44   C     C_R   0.243712 0.243707 0.427253 -0.001569
C45   C     C_3   0.326666 0.552225 0.265670 0.114798
C46   C     C_R   0.315115 0.316104 0.505088 -0.151975
C47   C     C_R   0.148742 0.089417 0.356048 0.117158
C48   C     C_R   0.126388 0.084003 0.275316 0.129768
C49   C     C_R   0.156526 0.160657 0.270315 0.178957
C50   C     C_R   0.590855 0.749027 0.471419 -0.231364
C51   C     C_R   0.218094 0.240312 0.346538 0.055149
C52   C     C_R   0.998584 0.621201 0.118279 0.946646
C53   C     C_R   0.123791 0.501047 0.125283 0.894127
C54   C     C_R   0.997822 0.381701 0.878385 0.899373
C55   C     C_R   0.883360 0.503344 0.886091 0.934725
C56   C     C_R   0.998154 0.874981 0.382446 0.897629
C57   C     C_3   0.263134 0.585172 0.277302 0.159985
C58   C     C_R   0.879645 0.881225 0.501323 0.947369
C59   C     C_R   0.996481 0.118917 0.618211 0.901740
C60   C     C_R   0.120156 0.122113 0.502545 0.949596
C61   C     C_R   0.576171 0.817243 0.468337 -0.175823
C62   C     C_R   0.147740 0.803891 0.245383 0.107659
C63   C     C_R   0.226899 0.850989 0.321261 -0.218128
C64   C     C_R   0.229814 0.862536 0.398091 0.210430
C65   C     C_R   0.152059 0.837488 0.400779 0.133795
C66   C     C_R   0.071548 0.799680 0.324328 -0.032595
C67   C     C_R   0.069522 0.765172 0.246474 -0.008904
C68   C     C_R   0.993973 0.798560 0.320381 -0.189223
C69   C     C_3   0.189751 0.502632 0.193782 -0.067254
C70   C     C_R   0.912891 0.733963 0.246954 0.024702
C71   C     C_R   0.910022 0.676513 0.173961 0.059867
C72   C     C_R   0.642557 0.892202 0.486249 0.245349
C73   C     C_R   0.991051 0.690926 0.176008 -0.200102
C74   C     C_R   0.834971 0.723299 0.247838 -0.264169
C75   C     C_R   0.754433 0.657429 0.178475 0.150156
C76   C     C_R   0.749726 0.601468 0.105135 0.103912
C77   C     C_R   0.826320 0.611119 0.101186 0.015886
C78   C     C_R   0.950196 0.377109 0.710451 0.004381
C79   C     C_R   0.908954 0.359484 0.625178 0.042688
C80   C     C_R   0.912860 0.297122 0.563880 0.120292
C81   C     C_3   0.253727 0.470516 0.181176 -0.219156
C82   C     C_R   0.961734 0.256937 0.589150 0.169117
C83   C     C_R   0.724610 0.896919 0.503750 0.093325
C84   C     C_R   0.977364 0.251951 0.666487 -0.028954
C85   C     C_R   0.974869 0.316340 0.730077 -0.021465
C86   C     C_R   0.992881 0.185190 0.682003 -0.192608
C87   C     C_R   0.010729 0.185724 0.761626 -0.008642
C88   C     C_R   0.027331 0.260981 0.828811 0.024383
C89   C     C_R   0.999625 0.318830 0.810777 -0.124116
C90   C     C_R   0.014780 0.116002 0.779267 0.078565
C91   C     C_R   0.056517 0.132580 0.864396 0.253005
C92   C     C_R   0.087611 0.215036 0.931735 0.110969
C93   C     C_3   0.238736 0.420871 0.230591 -0.260148
C94   C     C_R   0.738295 0.822409 0.498951 0.024290
C95   C     C_R   0.070577 0.277153 0.913795 -0.258406
C96   C     C_3   0.275647 0.677570 0.302736 -0.902050
C97   C     C_3   0.625080 0.967239 0.487014 -0.965242
C98   C     C_3   0.978015 0.640557 0.491546 -0.954539
C99   C     C_3   0.585861 0.174558 0.507059 -0.901430
C100  C     C_3   0.936486 0.831224 0.992587 -0.943777
C101  C     C_3   0.529966 0.303624 0.553077 -0.823133
C102  C     C_3   0.127399 0.157884 0.184599 -0.906007
C103  C     C_3   0.479053 0.422480 0.696951 -0.942447
C104  C     C_3   0.138993 0.007951 0.361690 -0.877333
H1    H     H_    0.837139 0.804471 0.838124 0.145428
H2    H     H_    0.535747 0.693156 0.456870 0.155296
H3    H     H_    0.512693 0.812058 0.453948 0.139920
H4    H     H_    0.332706 0.723647 0.367570 0.235615
H5    H     H_    0.286145 0.696856 0.256569 0.257471
H6    H     H_    0.217031 0.680159 0.302933 0.249769
H7    H     H_    0.556855 0.951331 0.469994 0.243579
H8    H     H_    0.667414 0.024943 0.551731 0.259215
H9    H     H_    0.637213 0.983765 0.440065 0.240257
H10   H     H_    0.776703 0.996042 0.483034 0.222396
H11   H     H_    0.801205 0.026878 0.585607 0.173377
H12   H     H_    0.829544 0.352464 0.773260 0.171725
H13   H     H_    0.989847 0.787059 0.482118 0.218240
H14   H     H_    0.909306 0.702479 0.385000 0.181982
H15   H     H_    0.985799 0.590789 0.509540 0.244682
H16   H     H_    0.964347 0.616655 0.424591 0.243766
H17   H     H_    0.040425 0.701927 0.534347 0.238900
H18   H     H_    0.715665 0.495270 0.502863 0.211843
H19   H     H_    0.783679 0.567591 0.607050 0.173748
H20   H     H_    0.615980 0.131246 0.497904 0.263007
H21   H     H_    0.525358 0.138799 0.505897 0.241024
H22   H     H_    0.569728 0.186341 0.451665 0.231283
H23   H     H_    0.415976 0.497086 0.788035 0.156369
H24   H     H_    0.787477 0.711550 0.682494 0.174818
H25   H     H_    0.704953 0.711507 0.699170 0.217657
H26   H     H_    0.934116 0.886608 0.982324 0.249006
H27   H     H_    0.916633 0.831671 0.041041 0.240825
H28   H     H_    0.004651 0.843239 0.017915 0.240409
H29   H     H_    0.989837 0.705141 0.000645 0.207007
H30   H     H_    0.915694 0.704218 0.033182 0.185151
H31   H     H_    0.434117 0.668184 0.322591 0.186885
H32   H     H_    0.451511 0.580722 0.295916 0.182260
H33   H     H_    0.797742 0.216579 0.642154 0.191984
H34   H     H_    0.255905 0.445490 0.120983 0.149404
H35   H     H_    0.744880 0.188611 0.692758 0.191679
H36   H     H_    0.511675 0.284093 0.485426 0.262896
H37   H     H_    0.489123 0.247718 0.555845 0.219816
H38   H     H_    0.512777 0.353863 0.577615 0.222272
H39   H     H_    0.077926 0.091904 0.130082 0.268655
H40   H     H_    0.098094 0.201892 0.182242 0.231314
H41   H     H_    0.183645 0.178909 0.174513 0.235872
H42   H     H_    0.483353 0.360857 0.681297 0.240145
H43   H     H_    0.506786 0.458316 0.670129 0.270666
H44   H     H_    0.520054 0.464214 0.767476 0.235438
H45   H     H_    0.286291 0.878986 0.320012 0.160943
H46   H     H_    0.290039 0.377572 0.830528 0.187037
H47   H     H_    0.223840 0.412055 0.780602 0.193640
H48   H     H_    0.232394 0.227252 0.722216 0.201657
H49   H     H_    0.157648 0.261830 0.702266 0.168712
H50   H     H_    0.166438 0.018721 0.427713 0.247059
H51   H     H_    0.069961 0.958935 0.322437 0.242900
H52   H     H_    0.175569 0.981837 0.335291 0.240372
H53   H     H_    0.014901 0.969114 0.196004 0.194200
H54   H     H_    0.105066 0.963240 0.198608 0.203809
H55   H     H_    0.276428 0.311248 0.304007 0.220105
H56   H     H_    0.835862 0.764093 0.304118 0.177603
H57   H     H_    0.195207 0.328436 0.315079 0.182691
H58   H     H_    0.655650 0.544399 0.981445 0.173751
H59   H     H_    0.663294 0.473850 0.019371 0.182581
H60   H     H_    0.172595 0.780542 0.146547 0.214917
H61   H     H_    0.085888 0.801279 0.132264 0.183202
H62   H     H_    0.370608 0.920708 0.464400 0.230204
H63   H     H_    0.325462 0.964134 0.526778 0.241882
H64   H     H_    0.317586 0.857200 0.502269 0.253910
H65   H     H_    0.095161 0.786490 0.459557 0.184949
H66   H     H_    0.177392 0.892898 0.524136 0.215642
H67   H     H_    0.227653 0.352738 0.207804 0.154422
H68   H     H_    0.642141 0.663411 0.139599 0.193297
H69   H     H_    0.690531 0.689251 0.242641 0.180806
H70   H     H_    0.784934 0.492052 0.005046 0.208427
H71   H     H_    0.779792 0.567485 0.974299 0.176623
H72   H     H_    0.193974 0.287017 0.048801 0.182063
H73   H     H_    0.098807 0.253808 0.048797 0.191485
H74   H     H_    0.027623 0.506894 0.776875 0.190669
H75   H     H_    0.926425 0.476959 0.760336 0.184450
H76   H     H_    0.919229 0.476354 0.635230 0.174183
H77   H     H_    0.822367 0.406304 0.616951 0.197059
H78   H     H_    0.092320 0.338835 0.967761 0.152504
H79   H     H_    0.812535 0.264118 0.452582 0.198669
H80   H     H_    0.908871 0.343577 0.480823 0.199371
H81   H     H_    0.967603 0.191862 0.475670 0.267235
H82   H     H_    0.047176 0.305126 0.544380 0.211376
H83   H     H_    0.062118 0.228320 0.574082 0.225837
H84   H     H_    0.008990 0.003106 0.705564 0.234969
H85   H     H_    0.920403 0.015651 0.658125 0.190729
H86   H     H_    0.098685 0.081027 0.950833 0.258039
H87   H     H_    0.999348 0.005004 0.852406 0.244762
H88   H     H_    0.101902 0.036789 0.853974 0.226771
H89   H     H_    0.873805 0.561205 0.539247 0.147992
H90   H     H_    0.096004 0.377227 0.278893 0.229898
H91   H     H_    0.051176 0.435752 0.234760 0.254669
H92   H     H_    0.048416 0.338530 0.165334 0.244776
H93   H     H_    0.189249 0.587801 0.395604 0.240283
H94   H     H_    0.234942 0.524247 0.430814 0.247693
H95   H     H_    0.305467 0.633731 0.458258 0.248312
N1    N     N_3   0.793599 0.979093 0.531142 -0.455849
N2    N     N_3   0.073152 0.001090 0.198263 -0.467637
N3    N     N_3   0.248217 0.319137 0.342594 -0.444834
N4    N     N_3   0.665692 0.534819 0.034184 -0.450536
N5    N     N_3   0.147915 0.817081 0.175702 -0.472552
N6    N     N_3   0.155356 0.831247 0.474506 -0.459897
N7    N     N_3   0.676247 0.646299 0.181924 -0.427474
N8    N     N_3   0.817388 0.557516 0.021570 -0.429874
N9    N     N_3   0.132212 0.234454 0.018672 -0.472390
N10   N     N_3   0.976937 0.461443 0.775883 -0.408536
N11   N     N_3   0.871498 0.411117 0.601519 -0.488943
N12   N     N_3   0.923248 0.753931 0.440740 -0.467563
N13   N     N_3   0.878935 0.284016 0.478355 -0.461459
N14   N     N_3   0.966224 0.025713 0.714768 -0.456645
N15   N     N_3   0.740063 0.559532 0.549489 -0.418400
N16   N     N_3   0.736487 0.674411 0.687483 -0.421332
N17   N     N_3   0.925866 0.670174 0.984969 -0.445673
N18   N     N_3   0.408933 0.604591 0.274961 -0.445476
N19   N     N_3   0.738588 0.199431 0.641135 -0.477452
N20   N     N_3   0.285392 0.416129 0.801266 -0.464996
N21   N     N_3   0.190611 0.235706 0.676275 -0.425160
O1    O     O_R   0.592010 0.539900 0.448660 -0.612022
O2    O     O_R   0.948620 0.908400 0.356980 -0.615930
O3    O     O_R   0.960510 0.908410 0.552140 -0.640595
O4    O     O_R   0.591210 0.643320 0.551330 -0.639450
O5    O     O_R   0.856270 0.908390 0.447890 -0.622593
O6    O     O_R   0.051380 0.091620 0.643040 -0.630620
O7    O     O_R   0.947140 0.091600 0.538800 -0.618335
O8    O     O_R   0.143730 0.091640 0.552130 -0.611000
O9    O     O_R   0.039490 0.091610 0.447890 -0.622376
O10   O     O_R   0.408080 0.448290 0.356360 -0.630226
O11   O     O_R   0.407280 0.551710 0.459030 -0.621553
O12   O     O_R   0.054870 0.643310 0.094700 -0.648230
O13   O     O_R   0.408790 0.356680 0.448670 -0.622707
O14   O     O_R   0.407990 0.460100 0.551340 -0.620831
O15   O     O_R   0.592720 0.448290 0.540970 -0.626177
O16   O     O_R   0.591920 0.551710 0.643640 -0.627579
O17   O     O_R   0.951440 0.539900 0.094740 -0.606708
O18   O     O_R   0.044440 0.448270 0.096110 -0.623579
O19   O     O_R   0.147870 0.551680 0.096080 -0.618070
O20   O     O_R   0.952810 0.356650 0.912880 -0.631241
O21   O     O_R   0.056240 0.460060 0.912840 -0.600345
O22   O     O_R   0.859800 0.448280 0.911500 -0.632312
O23   O     O_R   0.963240 0.551690 0.911470 -0.624093
O24   O     O_R   0.052860 0.908430 0.461230 -0.647344
Zn1   Zn    Zn3+2 0.500540 0.430950 0.431450 0.928308
Zn2   Zn    Zn3+2 0.499460 0.569050 0.568550 0.937713
Zn3   Zn    Zn3+2 0.934770 0.430930 0.003810 0.938071
Zn4   Zn    Zn3+2 0.072900 0.569020 0.003770 0.925210
Zn5   Zn    Zn3+2 0.069600 0.000030 0.569620 0.900435
Zn6   Zn    Zn3+2 0.930400 1.000000 0.430410 0.929952

loop_
_geom_bond_atom_site_label_1
_geom_bond_atom_site_label_2
_ccdc_geom_bond_type
C98   H17   S    
C66   C68   A    
C87   C88   A    
C17   C69   S    
O5    Zn6   S    
C55   O22   A    
C22   N17   S    
O6    Zn5   S    
O21   Zn4   S    
C45   N18   S    
C13   N12   S    
C19   C20   A    
H71   N8    S    
C43   C44   A    
C53   C69   S    
C53   O19   A    
C6    H92   S    
C76   N4    S    
C3    H63   S    
C98   H15   S    
C99   H21   S    
C21   O14   A    
C30   H12   S    
C3    C64   S    
C7    H93   S    
C45   C57   S    
C26   C27   A    
C37   C38   A    
C55   O23   A    
C62   C67   A    
C1    O4    A    
C18   C24   A    
C4    H83   S    
C36   C37   A    
H61   N5    S    
C84   C86   A    
C5    H86   S    
C21   C46   S    
C35   C103  S    
C77   N8    S    
C102  H41   S    
H65   N6    S    
C30   C31   A    
C97   H7    S    
C75   N7    S    
C100  H26   S    
C65   N6    S    
C15   C16   A    
H31   N18   S    
C29   C33   S    
C9    C39   S    
H30   N17   S    
C27   C29   A    
O17   Zn3   S    
C1    O1    A    
C18   C19   A    
C11   C16   A    
C4    H82   S    
C59   O6    A    
C24   C29   A    
C63   H45   S    
H49   N21   S    
C78   C85   A    
C2    C50   A    
C8    C58   S    
C87   C90   A    
C101  H37   S    
C21   O13   A    
C35   C36   A    
C49   C51   A    
C57   C96   S    
O18   Zn3   S    
C103  H44   S    
O20   Zn3   S    
C41   C46   A    
H80   N13   S    
H69   N7    S    
C67   C73   A    
H60   N5    S    
O9    Zn6   S    
C33   O15   A    
C51   N3    S    
C80   N13   S    
C31   N19   S    
C68   C70   A    
O3    Zn5   S    
C40   C42   A    
C66   C67   A    
C96   H4    S    
C88   C95   A    
C2    C12   A    
C9    O10   A    
H10   N1    S    
C13   C14   A    
C15   H89   S    
C7    H95   S    
C17   C28   S    
C1    C12   S    
C102  H40   S    
H73   N9    S    
C39   C93   S    
C6    H91   S    
C101  H36   S    
C44   C46   A    
C3    H64   S    
C14   C98   S    
C99   H22   S    
C72   C97   S    
C27   C34   A    
C81   H34   S    
C100  H27   S    
C34   C101  S    
O24   Zn5   S    
C103  H43   S    
C60   O9    A    
C72   C83   A    
C54   O21   A    
C38   N21   S    
H57   N3    S    
H13   N12   S    
C8    C94   A    
C84   C85   A    
C5    H87   S    
H66   N6    S    
C80   C82   A    
C52   C73   S    
C74   C75   A    
C42   C60   S    
C49   C102  S    
C71   C73   A    
C97   H8    S    
C85   C89   A    
C86   C87   A    
C52   O12   A    
H55   N3    S    
H32   N18   S    
H24   N16   S    
C28   C39   S    
H79   N13   S    
C56   C68   S    
C83   C94   A    
C96   H6    S    
C48   N2    S    
C92   C95   A    
C104  H52   S    
C7    C28   S    
H18   N15   S    
H74   N10   S    
H77   N11   S    
O12   Zn4   S    
C32   C34   A    
C4    H81   S    
H25   N16   S    
C28   C57   S    
C75   C76   A    
C70   C74   A    
C62   C63   A    
C92   N9    S    
O16   Zn2   S    
C81   C93   S    
C101  H38   S    
C3    H62   S    
C47   C48   A    
C20   C100  S    
C2    C94   A    
H46   N20   S    
O23   Zn4   S    
H59   N4    S    
C14   C15   A    
C4    C82   S    
C76   C77   A    
H76   N11   S    
O10   Zn1   S    
C78   N10   S    
C62   N5    S    
C5    C91   S    
C33   O16   A    
H85   N14   S    
H33   N19   S    
C54   C89   S    
O7    Zn6   S    
C52   O17   A    
C61   C72   A    
O4    Zn2   S    
C48   C49   A    
C56   O2    A    
C20   C22   A    
C26   C30   A    
C82   C84   A    
C57   C69   S    
H70   N8    S    
H47   N20   S    
C79   C80   A    
O2    Zn6   S    
C36   H23   S    
C17   C93   S    
C42   C43   A    
C37   N20   S    
C97   H9    S    
C19   H1    S    
C6    H90   S    
C70   C71   A    
C59   O7    A    
C44   C51   A    
O8    Zn5   S    
H11   N1    S    
H54   N2    S    
C6    C17   S    
C93   H67   S    
C47   C104  S    
C78   C79   A    
H29   N17   S    
C31   C32   A    
C45   C81   S    
C25   C55   S    
C5    H88   S    
O1    Zn1   S    
C10   C13   A    
C53   O18   A    
H84   N14   S    
C100  H28   S    
C95   H78   S    
C98   H16   S    
C58   O5    A    
C96   H5    S    
H75   N10   S    
C79   N11   S    
O22   Zn3   S    
C32   C99   S    
C39   C45   S    
H58   N4    S    
C9    O11   A    
C104  H50   S    
C64   C65   A    
H72   N9    S    
C7    H94   S    
H68   N7    S    
C25   C26   A    
C59   C86   S    
C54   O20   A    
C74   H56   S    
H14   N12   S    
O14   Zn2   S    
C38   C40   A    
H35   N19   S    
O13   Zn1   S    
C90   C91   A    
C71   C77   A    
H48   N21   S    
C23   C25   A    
C104  H51   S    
C56   O24   A    
C61   H3    S    
C18   N16   S    
C69   C81   S    
C10   C11   A    
C23   C24   A    
C63   C64   A    
O11   Zn2   S    
H53   N2    S    
C88   C89   A    
C103  H42   S    
C16   N15   S    
C8    C10   A    
C65   C66   A    
C102  H39   S    
H19   N15   S    
C50   H2    S    
C50   C61   A    
C22   C23   A    
O19   Zn4   S    
C40   C41   A    
C60   O8    A    
C83   N1    S    
C35   C41   A    
C43   C47   A    
O15   Zn1   S    
C90   N14   S    
C91   C92   A    
C58   O3    A    
C11   C12   A    
C99   H20   S    
