data_mof_unit_20034.cif
_audit_creation_date              2012-12-10T19:47:24-0500
_audit_creation_method            fapswitch 2.2
_symmetry_space_group_name_H-M    P1
_symmetry_Int_Tables_number       1
_space_group_crystal_system       triclinic
_cell_length_a                    10.824865
_cell_length_b                    10.850869
_cell_length_c                    12.716804
_cell_angle_alpha                 93.026361
_cell_angle_beta                  92.986695
_cell_angle_gamma                 89.85605
_cell_volume                      1489.59615575

loop_
_atom_site_label
_atom_site_type_symbol
_atom_type_description
_atom_site_fract_x
_atom_site_fract_y
_atom_site_fract_z
_atom_type_partial_charge
C1    C     C_R   0.261919 0.496235 0.500674 0.790138
C2    C     C_R   0.738022 0.504309 0.499402 0.796243
C3    C     C_R   0.493825 0.871672 0.498084 -0.112130
C4    C     C_R   0.505522 0.128310 0.501927 -0.112661
C5    C     C_R   0.440173 0.934591 0.412570 0.048887
C6    C     C_R   0.559247 0.065380 0.587363 0.049485
C7    C     C_R   0.227674 0.200488 0.731321 -0.107380
C8    C     C_R   0.772719 0.805396 0.272810 -0.107850
C9    C     C_R   0.176104 0.270656 0.651578 -0.222202
C10   C     C_R   0.825373 0.734564 0.351682 -0.215664
C11   C     C_R   0.129982 0.389509 0.675006 0.109568
C12   C     C_R   0.869961 0.615342 0.327270 0.084341
C13   C     C_R   0.138214 0.439352 0.780655 0.177597
C14   C     C_R   0.859594 0.566114 0.221576 0.176870
C15   C     C_R   0.191119 0.367090 0.859919 -0.183312
C16   C     C_R   0.805173 0.638740 0.143293 -0.156162
C17   C     C_R   0.234786 0.248361 0.835343 -0.031082
C18   C     C_R   0.762978 0.757783 0.168733 -0.039508
C19   C     C_R   0.938324 0.461653 0.585824 -0.258356
C20   C     C_R   0.061531 0.540426 0.414900 -0.240428
C21   C     C_R   0.871691 0.506674 0.498990 -0.079833
C22   C     C_R   0.128196 0.495066 0.501581 -0.091185
C23   C     C_R   0.504186 0.261913 0.500767 0.798273
C24   C     C_R   0.495552 0.738073 0.499229 0.796004
C25   C     C_R   0.933685 0.548922 0.413232 0.000742
C26   C     C_R   0.066256 0.454513 0.588152 0.023492
C27   C     C_2   0.484593 0.454358 0.031375 0.355177
C28   C     C_2   0.515298 0.545714 0.968608 0.349215
C29   C     C_1   0.518258 0.528843 0.852726 0.216791
C30   C     C_1   0.481731 0.471171 0.147271 0.218781
C31   C     C_R   0.822188 0.220072 0.751263 -0.143780
C32   C     C_R   0.179877 0.778231 0.246348 -0.146988
C33   C     C_R   0.748023 0.176114 0.663913 -0.223286
C34   C     C_R   0.252908 0.822324 0.334363 -0.223248
C35   C     C_R   0.630503 0.126890 0.678001 0.004544
C36   C     C_R   0.370054 0.873006 0.321286 0.006331
C37   C     C_R   0.588329 0.123020 0.780654 0.658225
C38   C     C_R   0.412912 0.878257 0.218960 0.654562
C39   C     C_R   0.661493 0.170634 0.867184 -0.135845
C40   C     C_R   0.340940 0.830465 0.131787 -0.131770
C41   C     C_R   0.778315 0.219104 0.852521 -0.240247
C42   C     C_R   0.224565 0.780435 0.145460 -0.238840
C43   C     C_R   0.551899 0.937612 0.584331 -0.184422
C44   C     C_R   0.447288 0.062405 0.415742 -0.182856
Cu1   Cu    Cu3+1 0.492140 0.492110 0.395880 0.999603
Cu2   Cu    Cu3+1 0.507860 0.507890 0.604120 0.997259
H1    H     H_    0.835788 0.253803 0.919795 0.160986
H2    H     H_    0.168004 0.745564 0.077701 0.159070
H3    H     H_    0.198641 0.402563 0.941208 0.156275
H4    H     H_    0.795356 0.602946 0.062167 0.158590
H5    H     H_    0.890050 0.429072 0.651226 0.157595
H6    H     H_    0.109760 0.572559 0.349415 0.165878
H7    H     H_    0.914741 0.252767 0.740990 0.150484
H8    H     H_    0.087498 0.744550 0.255750 0.156504
H9    H     H_    0.783800 0.176339 0.585936 0.140431
H10   H     H_    0.216506 0.821073 0.412054 0.139110
H11   H     H_    0.628930 0.167247 0.946009 0.206849
H12   H     H_    0.374031 0.834951 0.053228 0.207431
H13   H     H_    0.595637 0.889063 0.648793 0.171797
H14   H     H_    0.403625 0.111000 0.351275 0.172533
H15   H     H_    0.274155 0.193252 0.897185 0.211544
H16   H     H_    0.722445 0.813172 0.107576 0.213533
H17   H     H_    0.260738 0.108222 0.712345 0.192742
H18   H     H_    0.740484 0.897798 0.292519 0.191825
H19   H     H_    0.169590 0.231227 0.571397 0.129997
H20   H     H_    0.833547 0.773575 0.431954 0.131549
N1    N     N_1   0.480320 0.480250 0.239400 -0.164647
N2    N     N_1   0.519680 0.519750 0.760600 -0.165234
O1    O     O_R   0.313000 0.493330 0.412070 -0.580387
O2    O     O_R   0.687000 0.506670 0.587930 -0.581891
O3    O     O_R   0.326280 0.506660 0.587930 -0.568646
O4    O     O_R   0.673720 0.493340 0.412070 -0.571853
O5    O     O_R   0.493370 0.312980 0.412070 -0.577575
O6    O     O_R   0.506630 0.687020 0.587930 -0.580112
O7    O     O_R   0.506650 0.326310 0.587930 -0.559433
O8    O     O_R   0.493350 0.673690 0.412070 -0.560611
C45   C     C_3   0.091806 0.567484 0.811156 -0.458943
C46   C     C_3   0.175914 0.667701 0.774587 -0.733357
H21   H     H_    0.272801 0.653006 0.804384 0.257992
H22   H     H_    0.172315 0.668312 0.687343 0.250829
H23   H     H_    0.144674 0.759367 0.805883 0.228834
H24   H     H_    0.995977 0.580511 0.778367 0.209291
H25   H     H_    0.088091 0.580171 0.898240 0.189606
C47   C     C_3   0.901485 0.436733 0.190257 -0.401378
C48   C     C_3   0.013868 0.438641 0.122551 -0.875484
H26   H     H_    0.990116 0.482661 0.047324 0.237109
H27   H     H_    0.091429 0.489977 0.165223 0.260570
H28   H     H_    0.044593 0.342641 0.103802 0.252117
H29   H     H_    0.925049 0.382529 0.260113 0.218127
H30   H     H_    0.824386 0.387105 0.145103 0.203536
F1    F     F_    0.542718 0.659591 0.013005 -0.712600
F2    F     F_    0.457227 0.340481 0.986968 -0.708157
F3    F     F_    0.478234 0.070024 0.797253 -0.692237
F4    F     F_    0.522481 0.932848 0.203311 -0.693281

loop_
_geom_bond_atom_site_label_1
_geom_bond_atom_site_label_2
_ccdc_geom_bond_type
C33   H9    S    
C34   H10   S    
C14   C47   S    
C39   C41   A    
C45   C46   S    
C3    C43   A    
C1    O3    A    
Cu1   O8    S    
Cu1   O5    S    
C28   C29   S    
C19   C21   A    
C16   H4    S    
C48   H26   S    
C46   H22   S    
C20   C25   A    
C45   H25   S    
C39   H11   S    
C5    C36   S    
C6    C35   S    
C15   C17   A    
C19   C26   A    
C17   H15   S    
C7    C17   A    
Cu1   N1    S    
C31   C33   A    
C30   N1    T    
C43   H13   S    
C40   C42   A    
C1    C22   S    
C27   C30   S    
C3    C24   S    
C47   H30   S    
C23   O5    A    
C2    O4    A    
C32   H8    S    
Cu2   O7    S    
C9    H19   S    
C10   H20   S    
C13   C45   S    
C40   H12   S    
C48   H27   S    
Cu1   O1    S    
C47   C48   S    
C4    C6    A    
C23   O7    A    
C4    C23   S    
C46   H21   S    
C18   H16   S    
C4    C44   A    
C11   C26   S    
Cu1   Cu2   S    
C8    C18   A    
C32   C34   A    
Cu2   N2    S    
C29   N2    T    
C38   F4    S    
C2    C21   S    
C41   H1    S    
C37   F3    S    
C27   F2    S    
C42   H2    S    
C31   H7    S    
C9    C11   A    
C7    H17   S    
Cu2   O3    S    
C10   C12   A    
C8    H18   S    
C16   C18   A    
C5    C44   A    
C20   C22   A    
C6    C43   A    
C13   C15   A    
C14   C16   A    
C47   H29   S    
Cu2   O6    S    
C48   H28   S    
C7    C9    A    
C21   C25   A    
C31   C41   A    
C35   C37   A    
C24   O8    A    
C12   C14   A    
C3    C5    A    
C12   C25   S    
C20   H6    S    
C36   C38   A    
C37   C39   A    
C38   C40   A    
C11   C13   A    
C46   H23   S    
C24   O6    A    
C45   H24   S    
C44   H14   S    
C33   C35   A    
C28   F1    S    
C34   C36   A    
C15   H3    S    
C1    O1    A    
Cu2   O2    S    
C19   H5    S    
C8    C10   A    
C22   C26   A    
C27   C28   D    
C32   C42   A    
C2    O2    A    
Cu1   O4    S    
