data_mof_unit_10453.cif
_audit_creation_date              2012-12-11T16:12:46-0500
_audit_creation_method            fapswitch 2.2
_symmetry_space_group_name_H-M    P1
_symmetry_Int_Tables_number       1
_space_group_crystal_system       monoclinic
_cell_length_a                    7.009763
_cell_length_b                    21.25965
_cell_length_c                    23.66193
_cell_angle_alpha                 90.0
_cell_angle_beta                  90.0
_cell_angle_gamma                 90.029172
_cell_volume                      3526.22121581

loop_
_atom_site_label
_atom_site_type_symbol
_atom_type_description
_atom_site_fract_x
_atom_site_fract_y
_atom_site_fract_z
_atom_type_partial_charge
O1    O     O_R   0.615270 0.806540 0.192260 -0.535037
O2    O     O_R   0.384730 0.193460 0.807740 -0.534885
O3    O     O_R   0.384730 0.193460 0.692260 -0.535037
O4    O     O_R   0.615270 0.806540 0.307740 -0.534885
O5    O     O_R   0.115270 0.693460 0.307740 -0.534857
O6    O     O_R   0.884730 0.306540 0.692260 -0.534426
O7    O     O_R   0.884730 0.306540 0.807740 -0.534857
O8    O     O_R   0.115270 0.693460 0.192260 -0.534426
O9    O     O_R   0.285500 0.813970 0.307340 -0.536311
O10   O     O_R   0.714500 0.186030 0.692660 -0.536106
O11   O     O_R   0.714500 0.186030 0.807340 -0.536311
O12   O     O_R   0.285500 0.813970 0.192660 -0.536107
O13   O     O_R   0.785500 0.686030 0.192660 -0.537667
O14   O     O_R   0.214500 0.313970 0.807340 -0.536284
O15   O     O_R   0.214500 0.313970 0.692660 -0.537667
O16   O     O_R   0.785500 0.686030 0.307340 -0.536284
C1    C     C_R   0.453519 0.828962 0.326652 0.721984
C2    C     C_R   0.546481 0.171036 0.673349 0.721346
C3    C     C_R   0.546481 0.171038 0.826652 0.721983
C4    C     C_R   0.453519 0.828963 0.173349 0.721346
C5    C     C_R   0.953443 0.671038 0.173342 0.722378
C6    C     C_R   0.046549 0.328962 0.826658 0.721992
C7    C     C_R   0.046557 0.328962 0.673342 0.722378
C8    C     C_R   0.953451 0.671038 0.326658 0.721992
O17   O     O_3   0.448760 0.710460 0.250000 -0.369256
O18   O     O_3   0.551240 0.289540 0.750000 -0.369256
O19   O     O_3   0.948760 0.789540 0.250000 -0.368988
O20   O     O_3   0.051240 0.210460 0.750000 -0.368988
V1    V     V_3+5 0.173900 0.757330 0.250000 1.430773
V2    V     V_3+5 0.826100 0.242670 0.750000 1.430773
V3    V     V_3+5 0.673900 0.742670 0.250000 1.428384
V4    V     V_3+5 0.326100 0.257330 0.750000 1.428384
C9    C     C_3   0.085582 0.529040 0.543840 0.097342
C10   C     C_3   0.916943 0.471003 0.456145 0.138133
C11   C     C_3   0.914418 0.470960 0.043840 0.097341
C12   C     C_3   0.083057 0.528997 0.956145 0.138133
C13   C     C_3   0.580476 0.970620 0.955667 0.094062
C14   C     C_3   0.419528 0.029397 0.044346 0.095382
C15   C     C_3   0.419524 0.029379 0.455667 0.094062
C16   C     C_3   0.580472 0.970603 0.544346 0.095382
C17   C     C_3   0.892123 0.546923 0.517635 0.173234
C18   C     C_3   0.110492 0.452961 0.482215 0.175079
C19   C     C_3   0.107876 0.453077 0.017635 0.173234
C20   C     C_3   0.889508 0.547039 0.982215 0.175079
C21   C     C_3   0.387595 0.953647 0.982808 0.173730
C22   C     C_3   0.612409 0.046371 0.017205 0.174730
C23   C     C_3   0.612405 0.046353 0.482808 0.173730
C24   C     C_3   0.387592 0.953629 0.517205 0.174732
C25   C     C_1   0.958263 0.625370 0.372183 -0.189378
C26   C     C_1   0.041892 0.374614 0.627802 -0.188137
C27   C     C_1   0.041737 0.374630 0.872183 -0.189378
C28   C     C_1   0.958108 0.625386 0.127802 -0.188137
C29   C     C_1   0.458479 0.874648 0.127842 -0.189215
C30   C     C_1   0.541522 0.125360 0.872164 -0.189764
C31   C     C_1   0.541520 0.125352 0.627842 -0.189215
C32   C     C_1   0.458478 0.874640 0.372164 -0.189763
C33   C     C_3   0.170900 0.523103 0.483395 0.065363
C34   C     C_3   0.832163 0.476991 0.516465 0.121536
C35   C     C_3   0.829100 0.476897 0.983395 0.065363
C36   C     C_3   0.167837 0.523009 0.016465 0.121537
C37   C     C_3   0.668952 0.976088 0.015641 0.093975
C38   C     C_3   0.331052 0.023930 0.984373 0.094525
C39   C     C_3   0.331048 0.023912 0.515641 0.093975
C40   C     C_3   0.668948 0.976070 0.484373 0.094525
C41   C     C_3   0.975534 0.541380 0.457521 0.039083
C42   C     C_3   0.026715 0.458565 0.542385 0.030563
C43   C     C_3   0.024466 0.458620 0.957521 0.039083
C44   C     C_3   0.973285 0.541435 0.042385 0.030563
C45   C     C_3   0.474552 0.958702 0.042543 0.048039
C46   C     C_3   0.525451 0.041315 0.957470 0.048139
C47   C     C_3   0.525448 0.041298 0.542543 0.048039
C48   C     C_3   0.474549 0.958684 0.457470 0.048139
C49   C     C_1   0.961289 0.587431 0.410549 0.010266
C50   C     C_1   0.039491 0.412532 0.589416 0.000072
C51   C     C_1   0.038711 0.412568 0.910549 0.010266
C52   C     C_1   0.960509 0.587468 0.089416 0.000072
C53   C     C_1   0.461300 0.912610 0.089495 0.008946
C54   C     C_1   0.538703 0.087403 0.910514 0.008477
C55   C     C_1   0.538700 0.087390 0.589496 0.008946
C56   C     C_1   0.461297 0.912597 0.410514 0.008477
N1    N     N_3   0.772886 0.598600 0.537131 -0.674888
H1    H     H_    0.742278 0.590515 0.579736 0.231668
H2    H     H_    0.854965 0.639584 0.535209 0.236040
N2    N     N_3   0.221046 0.399668 0.461521 -0.658519
H3    H     H_    0.315854 0.416139 0.430843 0.230333
H4    H     H_    0.300734 0.381595 0.495057 0.232142
N3    N     N_3   0.227114 0.401400 0.037131 -0.674888
H5    H     H_    0.257722 0.409485 0.079736 0.231668
H6    H     H_    0.145035 0.360416 0.035209 0.236039
N4    N     N_3   0.778954 0.600332 0.961521 -0.658518
H7    H     H_    0.684146 0.583861 0.930843 0.230333
H8    H     H_    0.699265 0.618404 0.995057 0.232142
N5    N     N_3   0.265905 0.902375 0.963710 -0.674167
H9    H     H_    0.233753 0.910609 0.921230 0.231497
H10   H     H_    0.346677 0.861119 0.965303 0.237713
N6    N     N_3   0.734098 0.097643 0.036302 -0.676547
H11   H     H_    0.766246 0.089411 0.078783 0.230833
H12   H     H_    0.653329 0.138899 0.034708 0.235937
N7    N     N_3   0.734094 0.097625 0.463711 -0.674166
H13   H     H_    0.766246 0.089391 0.421230 0.231497
H14   H     H_    0.653323 0.138880 0.465303 0.237713
N8    N     N_3   0.265902 0.902357 0.536302 -0.676547
H15   H     H_    0.233751 0.910589 0.578783 0.230832
H16   H     H_    0.346672 0.861101 0.534708 0.235937
C57   C     C_3   0.179747 0.562161 0.593502 -0.775120
H17   H     H_    0.206466 0.612144 0.582548 0.218208
H18   H     H_    0.084817 0.559738 0.630964 0.207211
H19   H     H_    0.317276 0.538918 0.603528 0.214130
C58   C     C_3   0.822282 0.437734 0.406649 -0.734915
H20   H     H_    0.795014 0.387845 0.417837 0.224022
H21   H     H_    0.685021 0.461082 0.396526 0.192750
H22   H     H_    0.917221 0.439827 0.369171 0.211820
C59   C     C_3   0.820253 0.437839 0.093502 -0.775118
H23   H     H_    0.793534 0.387856 0.082548 0.218207
H24   H     H_    0.915183 0.440262 0.130964 0.207211
H25   H     H_    0.682724 0.461082 0.103528 0.214130
C60   C     C_3   0.177718 0.562266 0.906649 -0.734915
H26   H     H_    0.204986 0.612155 0.917837 0.224022
H27   H     H_    0.314979 0.538918 0.896526 0.192751
H28   H     H_    0.082779 0.560172 0.869171 0.211820
C61   C     C_3   0.671127 0.937113 0.905659 -0.777242
H29   H     H_    0.695861 0.886990 0.916473 0.219623
H30   H     H_    0.574905 0.940057 0.868519 0.207100
H31   H     H_    0.809412 0.959704 0.895212 0.214956
C62   C     C_3   0.328877 0.062905 0.094354 -0.780316
H32   H     H_    0.304141 0.113028 0.083539 0.217498
H33   H     H_    0.190593 0.040314 0.104801 0.215302
H34   H     H_    0.425099 0.059963 0.131494 0.207342
C63   C     C_3   0.328873 0.062887 0.405659 -0.777243
H35   H     H_    0.304138 0.113010 0.416473 0.219623
H36   H     H_    0.425095 0.059943 0.368520 0.207100
H37   H     H_    0.190589 0.040296 0.395212 0.214956
C64   C     C_3   0.671123 0.937094 0.594354 -0.780316
H38   H     H_    0.695859 0.886971 0.583539 0.217498
H39   H     H_    0.809407 0.959686 0.604801 0.215301
H40   H     H_    0.574901 0.940037 0.631493 0.207342
C65   C     C_3   0.646883 0.447471 0.536644 -0.784683
H41   H     H_    0.537958 0.453043 0.503725 0.223373
H42   H     H_    0.667321 0.396311 0.543660 0.213820
H43   H     H_    0.599733 0.469905 0.576584 0.213311
C66   C     C_3   0.355052 0.554333 0.463725 -0.751921
H44   H     H_    0.461239 0.553361 0.498007 0.259796
H45   H     H_    0.410702 0.530365 0.425524 0.201952
H46   H     H_    0.328292 0.604531 0.453668 0.218286
C67   C     C_3   0.353117 0.552529 0.036644 -0.784684
H47   H     H_    0.462042 0.546956 0.003725 0.223374
H48   H     H_    0.332679 0.603689 0.043660 0.213821
H49   H     H_    0.400266 0.530096 0.076585 0.213311
C68   C     C_3   0.644948 0.445667 0.963725 -0.751922
H50   H     H_    0.538761 0.446638 0.998007 0.259796
H51   H     H_    0.589298 0.469635 0.925524 0.201952
H52   H     H_    0.671708 0.395469 0.953668 0.218286
C69   C     C_3   0.145784 0.054655 0.965499 -0.735007
H53   H     H_    0.039914 0.051050 0.999643 0.257758
H54   H     H_    0.169753 0.105408 0.957171 0.212732
H55   H     H_    0.092004 0.031690 0.926531 0.205615
C70   C     C_3   0.854221 0.945364 0.034515 -0.733275
H56   H     H_    0.960090 0.948969 0.000370 0.257761
H57   H     H_    0.908001 0.968329 0.073482 0.205155
H58   H     H_    0.830254 0.894611 0.042844 0.213692
C71   C     C_3   0.854216 0.945345 0.465499 -0.735012
H59   H     H_    0.960085 0.948949 0.499644 0.257759
H60   H     H_    0.830248 0.894593 0.457169 0.212733
H61   H     H_    0.907999 0.968311 0.426532 0.205616
C72   C     C_3   0.145779 0.054635 0.534515 -0.733274
H62   H     H_    0.039909 0.051031 0.500371 0.257761
H63   H     H_    0.091999 0.031670 0.573482 0.205155
H64   H     H_    0.169745 0.105388 0.542844 0.213692

loop_
_geom_bond_atom_site_label_1
_geom_bond_atom_site_label_2
_ccdc_geom_bond_type
O17   V3    S    
N3    H5    S    
O18   V4    S    
C72   H62   S    
C16   C47   S    
O12   V1    S    
O19   V1    S    
C57   H17   S    
C45   C53   S    
C10   C18   S    
C21   N5    S    
C71   H61   S    
C47   C55   S    
C67   H47   S    
C12   C43   S    
C23   N7    S    
O15   V4    S    
O16   V3    S    
C65   H42   S    
O11   C3    A    
N5    H9    S    
O8    V1    S    
C11   C35   S    
C27   C51   T    
C17   C34   S    
C63   H35   S    
C68   H51   S    
C20   C44   S    
N8    H16   S    
C46   C54   S    
O6    C7    A    
C20   C35   S    
C37   C45   S    
C42   C50   S    
C21   C38   S    
O1    V3    S    
C41   C49   S    
C10   C41   S    
O3    C2    A    
O2    V4    S    
N5    H10   S    
C61   H31   S    
C58   H21   S    
C71   H60   S    
C68   H50   S    
C34   C42   S    
C70   H56   S    
O11   V2    S    
N6    H12   S    
C62   H34   S    
C15   C48   S    
C69   H54   S    
C11   C19   S    
O9    V1    S    
C59   H25   S    
C35   C43   S    
C57   H18   S    
O15   C7    A    
C14   C45   S    
C17   N1    S    
C70   H57   S    
O7    V2    S    
C13   C46   S    
C64   H39   S    
C38   C46   S    
C72   H63   S    
N8    H15   S    
C24   C48   S    
C18   C33   S    
C67   H48   S    
C9    C42   S    
N1    H1    S    
O5    V1    S    
C35   C68   S    
O17   V1    S    
C57   H19   S    
C22   C46   S    
C22   C37   S    
O19   V3    S    
O20   V4    S    
C18   N2    S    
N2    H3    S    
C66   H46   S    
O14   V4    S    
C23   C40   S    
C4    C29   S    
C7    C26   S    
C17   C41   S    
C15   C63   S    
C28   C52   T    
C21   C45   S    
O14   C6    A    
C58   H22   S    
C14   C38   S    
C66   H45   S    
C29   C53   T    
C37   C70   S    
C64   H40   S    
C31   C55   T    
O10   V2    S    
N4    H8    S    
N7    H13   S    
C24   N8    S    
N6    H11   S    
O12   C4    A    
O8    C5    A    
O13   C5    A    
C44   C52   S    
C69   H55   S    
C62   H33   S    
C12   C60   S    
C1    C32   S    
C23   C47   S    
C61   H29   S    
C19   C36   S    
C13   C61   S    
O4    C1    A    
C68   H52   S    
C34   C65   S    
C19   C43   S    
N7    H14   S    
C39   C47   S    
O18   V2    S    
C72   H64   S    
N3    H6    S    
C64   H38   S    
C25   C49   T    
C60   H28   S    
C43   C51   S    
C36   C67   S    
C13   C21   S    
C14   C62   S    
C20   N4    S    
C67   H49   S    
C3    C30   S    
C15   C23   S    
C59   H23   S    
C16   C64   S    
O9    C1    A    
C8    C25   S    
C16   C24   S    
O1    C4    A    
C9    C33   S    
O6    V2    S    
O2    C3    A    
O13   V3    S    
C18   C42   S    
C33   C41   S    
C40   C71   S    
C24   C39   S    
C32   C56   T    
N1    H2    S    
C13   C37   S    
C38   C69   S    
C70   H58   S    
O7    C6    A    
C15   C39   S    
C65   H41   S    
C16   C40   S    
C9    C57   S    
C33   C66   S    
C9    C17   S    
C63   H37   S    
C60   H27   S    
C19   N3    S    
C48   C56   S    
C71   H59   S    
C66   H44   S    
C14   C22   S    
C26   C50   T    
N4    H7    S    
C62   H32   S    
O5    C8    A    
C11   C44   S    
O10   C2    A    
C2    C31   S    
C65   H43   S    
O20   V2    S    
C30   C54   T    
C11   C59   S    
C40   C48   S    
O3    V4    S    
C61   H30   S    
O4    V3    S    
C12   C20   S    
C39   C72   S    
C22   N6    S    
C36   C44   S    
O16   C8    A    
C58   H20   S    
C10   C34   S    
C10   C58   S    
C12   C36   S    
N2    H4    S    
C59   H24   S    
C69   H53   S    
C60   H26   S    
C5    C28   S    
C6    C27   S    
C63   H36   S    
