data_mof_unit_61976.cif
_audit_creation_date              2012-12-10T18:16:11-0500
_audit_creation_method            fapswitch 2.2
_symmetry_space_group_name_H-M    P1
_symmetry_Int_Tables_number       1
_space_group_crystal_system       triclinic
_cell_length_a                    42.365796
_cell_length_b                    29.208858
_cell_length_c                    29.202728
_cell_angle_alpha                 90.0
_cell_angle_beta                  133.824569
_cell_angle_gamma                 90.000046
_cell_volume                      26071.5981625

loop_
_atom_site_label
_atom_site_type_symbol
_atom_type_description
_atom_site_fract_x
_atom_site_fract_y
_atom_site_fract_z
_atom_type_partial_charge
C1    C     C_R   0.499981 0.586678 0.500001 0.908758
C2    C     C_1   0.834556 0.000000 0.336421 0.138287
C3    C     C_3   0.760623 0.962921 0.242064 0.588212
C4    C     C_1   0.372572 0.500000 0.373441 -0.138492
C5    C     C_1   0.872572 1.000000 0.373441 -0.138492
C6    C     C_1   0.121216 0.500000 0.122524 -0.191527
C7    C     C_1   0.621216 0.000000 0.122524 -0.191527
C8    C     C_3   0.261364 0.499938 0.307481 0.588573
C9    C     C_3   0.761363 0.999748 0.307479 0.588573
C10   C     C_3   0.289065 0.500000 0.291973 -0.171421
C11   C     C_3   0.789065 0.000000 0.291973 -0.171421
C12   C     C_1   0.159228 0.500000 0.162047 0.062859
C13   C     C_1   0.659228 1.000000 0.162047 0.062859
C14   C     C_1   0.499968 0.637262 0.499962 -0.204643
C15   C     C_1   0.499968 0.362738 0.499962 -0.204648
C16   C     C_1   0.999968 0.137262 0.499962 -0.204639
C17   C     C_1   0.999968 0.862738 0.499962 -0.204652
C18   C     C_1   0.499959 0.679400 0.499948 0.017829
C19   C     C_1   0.499959 0.320600 0.499948 0.017822
C20   C     C_1   0.999959 0.179400 0.499948 0.017834
C21   C     C_R   0.499981 0.413322 0.500001 0.908756
C22   C     C_1   0.999959 0.820600 0.499948 0.017816
C23   C     C_1   0.499953 0.729136 0.499944 0.018728
C24   C     C_1   0.499953 0.270864 0.499944 0.018720
C25   C     C_1   0.999953 0.229135 0.499944 0.018732
C26   C     C_1   0.999953 0.770864 0.499944 0.018717
C27   C     C_1   0.499951 0.771272 0.499948 0.016859
C28   C     C_1   0.499951 0.228728 0.499948 0.016852
C29   C     C_1   0.999951 0.271272 0.499948 0.016861
C30   C     C_1   0.999951 0.728728 0.499948 0.016850
C31   C     C_1   0.499950 0.821008 0.499958 0.013266
C32   C     C_R   0.999981 0.086678 0.500001 0.908760
C33   C     C_1   0.499950 0.178992 0.499958 0.013259
C34   C     C_1   0.999950 0.321008 0.499958 0.013266
C35   C     C_1   0.999950 0.678992 0.499958 0.013259
C36   C     C_1   0.499952 0.863146 0.499968 -0.205146
C37   C     C_1   0.499952 0.136854 0.499968 -0.205152
C38   C     C_1   0.999952 0.363146 0.499968 -0.205146
C39   C     C_1   0.999952 0.636854 0.499968 -0.205152
C40   C     C_R   0.417118 0.500000 0.417346 0.940562
C41   C     C_R   0.917118 1.000000 0.417346 0.940562
C42   C     C_1   0.635842 0.500000 0.635456 -0.213417
C43   C     C_R   0.999981 0.913322 0.500001 0.908754
C44   C     C_1   0.135842 0.000000 0.635456 -0.213417
C45   C     C_1   0.677114 0.500000 0.676702 0.022155
C46   C     C_1   0.177114 0.000000 0.676702 0.022155
C47   C     C_1   0.726260 0.500000 0.725916 0.009399
C48   C     C_1   0.226260 0.000000 0.725916 0.009399
C49   C     C_1   0.767532 0.500000 0.767278 0.009461
C50   C     C_1   0.267533 0.000000 0.767278 0.009461
C51   C     C_1   0.816679 0.500000 0.816546 0.022430
C52   C     C_1   0.316679 0.000000 0.816546 0.022430
C53   C     C_1   0.857951 0.500000 0.857919 -0.214616
C54   C     C_3   0.204724 0.500000 0.208290 -0.087037
C55   C     C_1   0.357951 0.000000 0.857919 -0.214616
C56   C     C_R   0.994869 0.500000 0.081686 0.909725
C57   C     C_R   0.494869 1.000000 0.081686 0.909725
C58   C     C_R   0.076690 0.500000 0.076088 0.943013
C59   C     C_R   0.576690 1.000000 0.076088 0.943014
C60   C     C_R   0.992976 0.500000 0.906346 0.905512
C61   C     C_R   0.492976 0.000000 0.906346 0.905513
C62   C     C_R   0.907986 0.500000 0.908065 0.888447
C63   C     C_R   0.407986 0.000000 0.908065 0.888447
C64   C     C_R   0.585809 0.500000 0.585683 0.884583
C65   C     C_3   0.704724 0.000000 0.208289 -0.087037
C66   C     C_R   0.085809 0.000000 0.585683 0.884583
C67   C     C_R   0.499083 1.000000 0.412894 0.896066
C68   C     C_R   0.999083 0.500000 0.412894 0.896066
C69   C     C_R   0.499957 0.913730 0.499984 0.895744
C70   C     C_R   0.499957 0.086270 0.499984 0.895741
C71   C     C_R   0.999957 0.413730 0.499984 0.895743
C72   C     C_R   0.999957 0.586270 0.499984 0.895742
C73   C     C_R   0.500763 0.000000 0.587051 0.895522
C74   C     C_R   0.000763 0.500000 0.587051 0.895522
C75   C     C_1   0.995628 0.500000 0.133017 -0.211925
C76   C     C_3   0.231845 0.500063 0.191304 -0.274705
C77   C     C_1   0.495628 1.000000 0.133017 -0.211925
C78   C     C_1   0.996274 0.500000 0.175795 0.013918
C79   C     C_1   0.496274 1.000000 0.175795 0.013918
C80   C     C_1   0.997029 0.500000 0.226275 0.016520
C81   C     C_1   0.497029 0.000000 0.226275 0.016520
C82   C     C_1   0.497642 0.000000 0.269019 0.015653
C83   C     C_1   0.997642 0.500000 0.269019 0.015653
C84   C     C_1   0.498302 1.000000 0.319404 0.012728
C85   C     C_1   0.998302 0.500000 0.319404 0.012728
C86   C     C_1   0.498757 0.000000 0.361993 -0.205287
C87   C     C_3   0.731845 0.000257 0.191304 -0.274706
C88   C     C_1   0.998757 0.500000 0.361993 -0.205287
C89   C     C_1   0.994026 0.500000 0.856798 -0.211720
C90   C     C_1   0.494026 1.000000 0.856798 -0.211720
C91   C     C_3   0.232505 0.538012 0.257872 -0.274566
C92   C     C_3   0.232504 0.461925 0.257761 -0.274575
C93   C     C_3   0.732506 0.037914 0.258041 -0.274558
C94   C     C_3   0.732502 0.961829 0.257590 -0.274581
C95   C     C_1   0.995248 0.500000 0.815887 0.013332
C96   C     C_1   0.495248 1.000000 0.815887 0.013333
C97   C     C_1   0.996871 0.500000 0.767780 0.015667
C98   C     C_1   0.334556 0.500000 0.336421 0.138287
C99   C     C_1   0.496871 1.000000 0.767780 0.015667
C100  C     C_1   0.498239 1.000000 0.727020 0.014969
C101  C     C_1   0.998239 0.500000 0.727020 0.014969
C102  C     C_1   0.499683 0.000000 0.678728 0.012471
C103  C     C_1   0.999683 0.500000 0.678728 0.012471
C104  C     C_1   0.500544 0.000000 0.637444 -0.205909
C105  C     C_1   0.000544 0.500000 0.637444 -0.205909
C106  C     C_3   0.260626 0.537236 0.242339 0.588221
C107  C     C_3   0.260625 0.462825 0.242231 0.588218
C108  C     C_3   0.760628 0.037331 0.242505 0.588226
F1    F     F_    0.276743 0.575475 0.236291 -0.625166
F2    F     F_    0.276740 0.424649 0.236073 -0.625162
F3    F     F_    0.776746 0.075667 0.236630 -0.625173
F4    F     F_    0.776736 0.924844 0.235735 -0.625154
F5    F     F_    0.278271 0.499875 0.368379 -0.623383
F6    F     F_    0.778270 0.999490 0.368377 -0.623382
H1    H     H_    0.219590 0.568675 0.262839 0.187147
H2    H     H_    0.219588 0.431211 0.262640 0.187150
H3    H     H_    0.719593 0.068499 0.263145 0.187142
H4    H     H_    0.719585 0.931036 0.262331 0.187154
H5    H     H_    0.218411 0.500114 0.142484 0.185845
H6    H     H_    0.718412 0.000465 0.142485 0.185845
O1    O     O_R   0.500400 0.563130 0.536080 -0.594922
O2    O     O_R   0.963990 0.500000 0.400890 -0.591994
O3    O     O_R   0.534410 1.000000 0.471310 -0.591955
O4    O     O_R   0.034410 0.500000 0.471310 -0.591955
O5    O     O_R   0.464750 0.936830 0.464780 -0.591525
O6    O     O_R   0.464750 0.063170 0.464780 -0.591526
O7    O     O_R   0.964750 0.436830 0.464780 -0.591523
O8    O     O_R   0.964750 0.563170 0.464780 -0.591528
O9    O     O_R   0.535170 0.936820 0.535200 -0.592513
O10   O     O_R   0.535170 0.063180 0.535200 -0.592516
O11   O     O_R   0.035170 0.436820 0.535200 -0.592516
O12   O     O_R   0.500400 0.436870 0.536080 -0.594921
O13   O     O_R   0.035170 0.563180 0.535200 -0.592514
O14   O     O_R   0.465520 0.000000 0.528690 -0.592329
O15   O     O_R   0.965520 0.500000 0.528690 -0.592329
O16   O     O_R   0.535930 1.000000 0.599110 -0.591743
O17   O     O_R   0.035930 0.500000 0.599110 -0.591743
O18   O     O_R   0.499540 0.563080 0.463930 -0.594386
O19   O     O_R   0.499540 0.436920 0.463930 -0.594384
O20   O     O_R   0.999540 0.063080 0.463930 -0.594390
O21   O     O_R   0.999540 0.936920 0.463930 -0.594380
O22   O     O_R   0.438030 0.500000 0.473700 -0.603925
O23   O     O_R   0.000400 0.063130 0.536080 -0.594926
O24   O     O_R   0.938030 1.000000 0.473700 -0.603925
O25   O     O_R   0.437170 0.500000 0.401550 -0.603881
O26   O     O_R   0.937170 0.000000 0.401550 -0.603881
O27   O     O_R   0.562760 0.500000 0.598450 -0.592173
O28   O     O_R   0.062760 1.000000 0.598450 -0.592173
O29   O     O_R   0.561900 0.500000 0.526300 -0.592586
O30   O     O_R   0.061900 1.000000 0.526300 -0.592586
O31   O     O_R   0.994600 0.535610 0.057840 -0.594999
O32   O     O_R   0.994600 0.464390 0.057840 -0.594999
O33   O     O_R   0.494600 0.035610 0.057840 -0.595001
O34   O     O_R   0.000400 0.936870 0.536080 -0.594917
O35   O     O_R   0.494600 0.964390 0.057840 -0.594997
O36   O     O_R   0.056200 0.535620 0.056290 -0.609216
O37   O     O_R   0.056200 0.464380 0.056290 -0.609218
O38   O     O_R   0.556200 0.035620 0.056290 -0.609215
O39   O     O_R   0.556200 0.964380 0.056290 -0.609219
O40   O     O_R   0.993060 0.535640 0.930020 -0.595575
O41   O     O_R   0.993060 0.464360 0.930020 -0.595575
O42   O     O_R   0.493060 0.035640 0.930020 -0.595577
O43   O     O_R   0.493060 0.964360 0.930020 -0.595572
O44   O     O_R   0.931470 0.535630 0.931560 -0.591046
O45   O     O_R   0.931470 0.464370 0.931560 -0.591048
O46   O     O_R   0.431470 0.035630 0.931560 -0.591047
O47   O     O_R   0.431470 0.964370 0.931560 -0.591047
O48   O     O_R   0.463990 0.000000 0.400890 -0.591994
Zn1   Zn    Zn3+2 0.500540 0.500000 0.548170 1.001253
Zn2   Zn    Zn3+2 0.952950 0.500000 0.452980 0.985515
Zn3   Zn    Zn3+2 0.546980 1.000000 0.547020 0.984440
Zn4   Zn    Zn3+2 0.046980 0.500000 0.547020 0.984440
Zn5   Zn    Zn3+2 0.000540 1.000000 0.548170 1.001253
Zn6   Zn    Zn3+2 0.499390 0.500000 0.451830 1.000027
Zn7   Zn    Zn3+2 0.999390 0.000000 0.451830 1.000027
Zn8   Zn    Zn3+2 0.993830 0.547580 0.993940 0.987727
Zn9   Zn    Zn3+2 0.993830 0.452420 0.993940 0.987719
Zn10  Zn    Zn3+2 0.493830 0.047580 0.993940 0.987725
Zn11  Zn    Zn3+2 0.493830 0.952420 0.993940 0.987722
Zn12  Zn    Zn3+2 0.452950 0.000000 0.452980 0.985515

loop_
_geom_bond_atom_site_label_1
_geom_bond_atom_site_label_2
_ccdc_geom_bond_type
C67   O48   A    
O1    Zn1   S    
O8    Zn2   S    
C4    C98   T    
O45   Zn9   S    
C6    C58   S    
C44   C66   S    
C68   O4    A    
C81   C82   T    
C47   C49   T    
C13   C65   S    
C60   C89   S    
C36   C69   S    
O7    Zn2   S    
C15   C19   T    
C57   O35   A    
C40   O25   A    
C72   O8    A    
C9    F6    S    
O13   Zn4   S    
C84   C86   T    
C66   O30   A    
C40   O22   A    
C93   C108  S    
C6    C12   T    
C59   O38   A    
C78   C80   S    
C20   C25   S    
C96   C99   S    
C70   O10   A    
O29   Zn6   S    
O15   Zn2   S    
O32   Zn9   S    
C10   C98   S    
C14   C18   T    
O17   Zn4   S    
C38   C71   S    
C59   O39   A    
C73   C104  S    
C62   O44   A    
C87   C108  S    
C4    C40   S    
O35   Zn11  S    
O2    Zn2   S    
C55   C63   S    
O24   Zn5   S    
O18   Zn6   S    
C50   C52   S    
C39   C72   S    
O16   Zn3   S    
O6    Zn12  S    
O46   Zn10  S    
C17   C22   T    
C23   C27   T    
C56   O32   A    
C43   O34   A    
C24   C28   T    
C3    F4    S    
C66   O28   A    
C52   C55   T    
C70   O6    A    
C63   O47   A    
O30   Zn7   S    
C69   O5    A    
C101  C103  S    
C56   C75   S    
C34   C38   T    
C37   C70   S    
O26   Zn7   S    
O40   Zn8   S    
C91   C106  S    
C71   O7    A    
C10   C107  S    
C93   H3    S    
C80   C83   T    
C2    C11   S    
C7    C59   S    
C44   C46   T    
C65   C87   S    
C63   O46   A    
C25   C29   T    
C74   O17   A    
C46   C48   S    
O11   Zn4   S    
C76   H5    S    
C41   O26   A    
C27   C31   S    
C61   O42   A    
C57   C77   S    
C41   O24   A    
C68   O2    A    
C79   C81   S    
C49   C51   S    
O48   Zn12  S    
C3    C87   S    
C29   C34   S    
C33   C37   T    
C18   C23   S    
C51   C53   T    
C42   C45   T    
C89   C95   T    
C35   C39   T    
C17   C43   S    
C21   O12   A    
C54   C92   S    
C92   H2    S    
C53   C62   S    
C92   C107  S    
C99   C100  T    
O4    Zn4   S    
C73   O16   A    
C7    C13   T    
O10   Zn3   S    
C16   C20   T    
C12   C54   S    
C97   C101  T    
C74   O15   A    
O5    Zn12  S    
C100  C102  S    
C60   O41   A    
C77   C79   T    
C103  C105  T    
C8    C91   S    
O37   Zn9   S    
C73   O14   A    
C56   O31   A    
C102  C104  T    
C9    C11   S    
C58   O36   A    
C8    F5    S    
O22   Zn1   S    
C8    C92   S    
C30   C35   S    
C87   H6    S    
C65   C94   S    
C83   C85   S    
C28   C33   S    
C26   C30   T    
C76   C107  S    
C82   C84   S    
C64   O27   A    
O43   Zn11  S    
C68   C88   S    
C107  F2    S    
C54   C76   S    
C10   C106  S    
C2    C5    T    
O12   Zn1   S    
O23   Zn5   S    
O41   Zn9   S    
C9    C93   S    
C61   C90   S    
C85   C88   T    
C5    C41   S    
O33   Zn10  S    
O36   Zn8   S    
C67   C86   S    
C76   C106  S    
O31   Zn8   S    
O34   Zn5   S    
C61   O43   A    
O9    Zn3   S    
C8    C10   S    
C60   O40   A    
O39   Zn11  S    
C58   O37   A    
C67   O3    A    
C42   C64   S    
C95   C97   S    
C90   C96   T    
C16   C32   S    
C32   O23   A    
O28   Zn5   S    
C108  F3    S    
C64   O29   A    
C19   C24   S    
O38   Zn10  S    
C54   C91   S    
O47   Zn11  S    
C74   C105  S    
C94   H4    S    
C72   O13   A    
C57   O33   A    
O20   Zn7   S    
C48   C50   T    
C65   C93   S    
C91   H1    S    
O44   Zn8   S    
C3    C94   S    
C32   O20   A    
C75   C78   T    
C1    O1    A    
O42   Zn10  S    
C3    C11   S    
C71   O11   A    
C15   C21   S    
C62   O45   A    
C45   C47   S    
O25   Zn6   S    
C69   O9    A    
C22   C26   S    
C11   C108  S    
O21   Zn7   S    
C21   O19   A    
C31   C36   T    
O19   Zn6   S    
C1    C14   S    
O14   Zn12  S    
C9    C94   S    
O3    Zn3   S    
C1    O18   A    
O27   Zn1   S    
C43   O21   A    
C106  F1    S    
