data_mof_unit_18746.cif
_audit_creation_date              2012-12-11T16:31:34-0500
_audit_creation_method            fapswitch 2.2
_symmetry_space_group_name_H-M    P1
_symmetry_Int_Tables_number       1
_space_group_crystal_system       triclinic
_cell_length_a                    6.943996
_cell_length_b                    18.360128
_cell_length_c                    20.118307
_cell_angle_alpha                 68.437076
_cell_angle_beta                  90.790188
_cell_angle_gamma                 90.570634
_cell_volume                      2385.16819495

loop_
_atom_site_label
_atom_site_type_symbol
_atom_type_description
_atom_site_fract_x
_atom_site_fract_y
_atom_site_fract_z
_atom_type_partial_charge
O1    O     O_R   0.488990 0.443920 0.942160 -0.528907
O2    O     O_R   0.823840 0.406530 0.087600 -0.542213
O3    O     O_R   0.999650 0.556080 0.057840 -0.517059
C1    C     C_R   0.655751 0.384458 0.115893 0.797920
O4    O     O_R   0.818390 0.434590 0.944530 -0.533274
O5    O     O_R   0.994160 0.584350 0.913750 -0.520667
C2    C     C_R   0.648829 0.420561 0.924029 0.731146
O6    O     O_R   0.494480 0.415650 0.086250 -0.538605
O7    O     O_3   0.662600 0.549100 0.990070 -0.350463
V1    V     V_3+5 0.935320 0.490890 0.001840 1.531488
O8    O     O_R   0.324240 0.593470 0.912400 -0.531403
C3    C     C_R   0.153767 0.616711 0.884697 0.780288
O9    O     O_R   0.329690 0.565410 0.055470 -0.531387
C4    C     C_R   0.162535 0.578192 0.077127 0.759252
V2    V     V_3+5 0.435990 0.509110 0.998160 1.537328
O10   O     O_3   0.158840 0.450900 0.009930 -0.370281
C5    C     C_3   0.989099 0.678343 0.263223 -0.326936
C6    C     C_3   0.338550 0.710744 0.242406 -0.438470
C7    C     C_3   0.330718 0.758461 0.292609 0.251423
H1    H     H_    0.994386 0.689771 0.367931 0.201043
H2    H     H_    0.029619 0.617399 0.297306 0.203609
H3    H     H_    0.453788 0.735148 0.202228 0.113432
H4    H     H_    0.377134 0.648990 0.273680 0.221927
H5    H     H_    0.438703 0.807058 0.274236 0.052228
C8    C     C_1   0.110784 0.876809 0.376684 -0.167103
C9    C     C_3   0.142007 0.712730 0.204188 0.145400
C10   C     C_3   0.974684 0.728181 0.310823 -0.303633
C11   C     C_3   0.127302 0.794916 0.289183 0.215500
C12   C     C_3   0.085239 0.848407 0.210306 -0.489271
C13   C     C_3   0.094998 0.800451 0.160106 0.253001
C14   C     C_1   0.117722 0.840295 0.337166 -0.023982
C15   C     C_1   0.150553 0.665155 0.158045 0.020203
C16   C     C_1   0.156573 0.625452 0.121259 -0.115592
H6    H     H_    0.214360 0.825225 0.121840 0.122878
H7    H     H_    0.941587 0.876176 0.206252 0.169136
H8    H     H_    0.845893 0.674872 0.239164 0.164867
H9    H     H_    0.827909 0.753671 0.305196 0.119863
H10   H     H_    0.192706 0.896966 0.192741 0.132715
H11   H     H_    0.992961 0.531635 0.676892 0.140166
C17   C     C_R   0.156920 0.781167 0.874692 0.082962
C18   C     C_R   0.234310 0.852196 0.873268 -0.188797
C19   C     C_R   0.290164 0.909682 0.808545 0.377723
C20   C     C_R   0.253578 0.897272 0.745281 -0.154750
C21   C     C_R   0.183056 0.824304 0.746134 -0.019310
C22   C     C_R   0.160832 0.761650 0.812691 0.028380
C23   C     C_R   0.124522 0.814204 0.682618 -0.133840
C24   C     C_R   0.077120 0.738284 0.684391 0.058601
C25   C     C_R   0.098434 0.671122 0.749282 0.033837
C26   C     C_R   0.137620 0.683497 0.814737 -0.153158
C27   C     C_R   0.017114 0.728121 0.620884 -0.142213
C28   C     C_R   0.981395 0.654359 0.619662 -0.134422
C29   C     C_R   0.013102 0.588713 0.680381 -0.104176
C30   C     C_R   0.075651 0.595307 0.744326 0.102702
H12   H     H_    0.234279 0.865503 0.921449 0.141729
H13   H     H_    0.281075 0.945679 0.695839 0.138043
H14   H     H_    0.998712 0.777019 0.570899 0.109408
H15   H     H_    0.935225 0.647926 0.570469 0.138953
C31   C     C_R   0.648903 0.228328 0.117906 -0.142853
C32   C     C_R   0.643488 0.154090 0.114918 -0.153464
C33   C     C_R   0.629307 0.088614 0.177098 -0.188910
C34   C     C_R   0.620318 0.095946 0.244160 0.333688
C35   C     C_R   0.627002 0.172142 0.248586 0.039752
C36   C     C_R   0.641024 0.239320 0.183874 -0.004527
C37   C     C_R   0.619157 0.183154 0.315082 -0.157345
C38   C     C_R   0.624488 0.259881 0.316471 -0.004773
C39   C     C_R   0.639031 0.327245 0.251980 0.020643
C40   C     C_R   0.646396 0.316302 0.185166 -0.151775
C41   C     C_R   0.616228 0.270076 0.382601 -0.190636
C42   C     C_R   0.622258 0.343593 0.386378 -0.138654
C43   C     C_R   0.637702 0.409926 0.324964 0.125942
C44   C     C_R   0.646891 0.403347 0.256934 0.299957
H16   H     H_    0.659483 0.277045 0.067431 0.087961
H17   H     H_    0.649892 0.147299 0.063756 0.126827
H18   H     H_    0.624731 0.031463 0.172908 0.104994
H19   H     H_    0.604952 0.221167 0.432905 0.108974
H20   H     H_    0.615437 0.348845 0.438189 0.187350
O11   O     O_R   0.770890 0.084490 0.414040 -0.532817
O12   O     O_R   0.445980 0.065450 0.555510 -0.544597
O13   O     O_R   0.270670 0.915620 0.586180 -0.542453
C45   C     C_R   0.615392 0.079736 0.576015 0.705978
O14   O     O_R   0.441480 0.093500 0.412450 -0.537900
O15   O     O_R   0.266140 0.943870 0.442100 -0.524117
C46   C     C_R   0.609564 0.115073 0.384104 0.815506
O16   O     O_R   0.775410 0.056240 0.558120 -0.538577
O17   O     O_3   0.602660 0.950990 0.510100 -0.363408
V3    V     V_3+5 0.329740 0.009100 0.498130 1.469618
O18   O     O_R   0.936120 0.934420 0.444240 -0.534081
C47   C     C_R   0.103882 0.920987 0.423380 0.735005
O19   O     O_R   0.940610 0.906370 0.587310 -0.540338
C48   C     C_R   0.110591 0.883424 0.614709 0.681049
V4    V     V_3+5 0.829110 0.990690 0.501470 1.475224
O20   O     O_3   0.106080 0.049010 0.489880 -0.372985
C49   C     C_3   0.836637 0.234848 0.718388 -0.386939
C50   C     C_3   0.501478 0.287854 0.672203 0.660796
C51   C     C_3   0.507540 0.335586 0.723034 -0.309831
H21   H     H_    0.901339 0.343133 0.736792 0.167077
H22   H     H_    0.908507 0.267771 0.666950 0.185328
H23   H     H_    0.565709 0.395650 0.694809 0.132096
H24   H     H_    0.358960 0.343541 0.739353 0.173232
C52   C     C_1   0.638978 0.375502 0.878143 -0.127997
C53   C     C_3   0.627425 0.211771 0.705327 0.151652
C54   C     C_3   0.838198 0.284355 0.766662 -0.339492
C55   C     C_3   0.631434 0.293326 0.790864 0.170230
C56   C     C_3   0.545301 0.210351 0.829502 -0.356307
C57   C     C_3   0.544354 0.162387 0.779853 -0.336501
C58   C     C_1   0.634507 0.338434 0.839059 -0.033868
C59   C     C_1   0.627939 0.164707 0.658629 -0.021760
C60   C     C_1   0.624843 0.126117 0.620817 -0.149873
H25   H     H_    0.631329 0.108398 0.805165 0.172803
H26   H     H_    0.394714 0.143108 0.774156 0.197524
H27   H     H_    0.630881 0.178729 0.878720 0.153089
H28   H     H_    0.923508 0.181014 0.744718 0.183107
H29   H     H_    0.932291 0.255686 0.814223 0.167428
H30   H     H_    0.395491 0.215148 0.846399 0.157059
I1    I     I_    0.941484 0.736730 0.952897 -0.368712
O21   O     O_3   0.363439 0.981177 0.804716 -0.656863
H31   H     H_    0.379560 0.980811 0.853903 0.280407
I2    I     I_    0.150482 0.483508 0.820636 -0.440100
I3    I     I_    0.646517 0.516804 0.342834 -0.501134
O22   O     O_3   0.603782 0.029166 0.304991 -0.657335
H32   H     H_    0.601114 0.982070 0.291912 0.273747
O23   O     O_3   0.664966 0.469415 0.195555 -0.653970
H33   H     H_    0.669790 0.517211 0.207054 0.308872
O24   O     O_3   0.308195 0.266729 0.666244 -0.654734
H34   H     H_    0.298900 0.247602 0.626122 0.305039
O25   O     O_3   0.566314 0.334650 0.603251 -0.643392
H35   H     H_    0.690607 0.359452 0.607932 0.277989
O26   O     O_3   0.375468 0.709849 0.363334 -0.625270
H36   H     H_    0.515730 0.699294 0.365070 0.304353
O27   O     O_3   0.925329 0.808424 0.118900 -0.623688
H37   H     H_    0.813941 0.795749 0.151601 0.294445

loop_
_geom_bond_atom_site_label_1
_geom_bond_atom_site_label_2
_ccdc_geom_bond_type
C53   C59   S    
O18   C47   A    
C9    C15   S    
O25   H35   S    
H21   C54   S    
C18   C19   A    
C44   O23   S    
C6    C9    S    
C1    O6    A    
O26   H36   S    
C4    C16   S    
C3    C26   S    
O17   V4    S    
C51   H23   S    
O17   V3    S    
C29   C30   A    
C41   H19   S    
C35   C36   A    
C5    C9    S    
C11   C12   S    
C57   H26   S    
O18   V4    S    
C42   C43   A    
O5    C3    A    
C51   H24   S    
C17   I1    S    
O11   C46   A    
V2    O10   S    
C7    O26   S    
O21   H31   S    
C42   H20   S    
C6    C7    S    
O13   C48   A    
C35   C37   A    
O8    V2    S    
O11   V4    S    
C24   C25   A    
C50   C53   S    
C51   C55   S    
C41   C42   A    
C12   H10   S    
C59   C60   T    
C43   C44   A    
O1    V2    S    
O16   V4    S    
O19   V4    S    
O7    V1    S    
C32   H17   S    
O14   V3    S    
C45   O16   A    
O12   V3    S    
H11   C29   S    
C32   C33   A    
C6    H3    S    
O9    C4    A    
C34   O22   S    
C17   C22   A    
C56   C57   S    
O14   C46   A    
C21   C23   A    
C24   C27   A    
C50   O25   S    
C53   C57   S    
C25   C30   A    
C36   C40   A    
C2    C52   S    
C13   H6    S    
C6    H4    S    
C5    C10   S    
C49   C53   S    
V4    O20   S    
O4    C2    A    
C30   I2    S    
C31   C32   A    
C13   O27   S    
C8    C47   S    
C27   H14   S    
C28   C29   A    
C33   C34   A    
O2    C1    A    
C20   C21   A    
C37   C46   S    
C12   C13   S    
C1    C40   S    
C39   C44   A    
C22   C26   A    
C43   I3    S    
C38   C41   A    
C27   C28   A    
C50   C51   S    
C7    C11   S    
O3    C4    A    
C28   H15   S    
C20   H13   S    
C25   C26   A    
C5    H8    S    
C9    C13   S    
O6    V2    S    
O9    V2    S    
C56   H30   S    
C19   C20   A    
O2    V1    S    
C49   H22   S    
C10   C11   S    
C21   C22   A    
C19   O21   S    
C31   C36   A    
C45   C60   S    
C23   C24   A    
C17   C18   A    
O1    C2    A    
C7    H5    S    
C8    C14   T    
C11   C14   S    
C49   C54   S    
O5    V1    S    
C56   H27   S    
O8    C3    A    
C23   C48   S    
H1    C10   S    
C12   H7    S    
C52   C58   T    
C37   C38   A    
C34   C35   A    
O27   H37   S    
O7    V2    S    
O4    V1    S    
C54   H29   S    
V3    O20   S    
C15   C16   T    
O15   V3    S    
C31   H16   S    
C57   H25   S    
C10   H9    S    
O15   C47   A    
C33   H18   S    
C39   C40   A    
C55   C58   S    
O12   C45   A    
C54   C55   S    
C5    H2    S    
C18   H12   S    
C49   H28   S    
C38   C39   A    
C55   C56   S    
O3    V1    S    
O22   H32   S    
V1    O10   S    
O23   H33   S    
O19   C48   A    
O13   V3    S    
O24   H34   S    
C50   O24   S    
