data_mof_unit_66788.cif
_audit_creation_date              2013-03-05T15:41:05-0500
_audit_creation_method            fapswitch 2.2
_symmetry_space_group_name_H-M    P1
_symmetry_Int_Tables_number       1
_space_group_crystal_system       triclinic
_cell_length_a                    8.503717
_cell_length_b                    14.714944
_cell_length_c                    15.216912
_cell_angle_alpha                 94.036631
_cell_angle_beta                  99.48508
_cell_angle_gamma                 92.329178
_cell_volume                      1870.7845233

loop_
_atom_site_label
_atom_site_type_symbol
_atom_site_description
_atom_site_fract_x
_atom_site_fract_y
_atom_site_fract_z
_atom_type_partial_charge
P1    P     P_3+3 0.947560 0.714050 0.560480 0.529499
O1    O     O_2   0.113690 0.728200 0.532750 -0.317887
O2    O     O_3   0.871900 0.612110 0.540440 -0.374382
O3    O     O_3   0.325660 0.668890 0.372600 -0.309697
O4    O     O_2   0.235445 0.826618 0.435609 -0.316667
O5    O     O_3   0.977182 0.737997 0.676394 -0.561331
O6    O     O_3   0.261895 0.821191 0.269442 -0.539755
C1    C     C_3   0.305757 0.857155 0.123432 0.142259
H1    H     H_    0.189227 0.827700 0.086681 0.192989
H2    H     H_    0.292645 0.929060 0.145925 0.213107
P2    P     P_3+3 0.325150 0.423860 0.297970 0.617351
P3    P     P_3+3 0.861222 0.605104 0.211891 0.693784
O7    O     O_2   0.147570 0.451710 0.282630 -0.281332
O8    O     O_3   0.905540 0.621350 0.329600 -0.283906
O9    O     O_2   0.980047 0.538227 0.181834 -0.266686
O10   O     O_3   0.301256 0.304933 0.276201 -0.453887
O11   O     O_3   0.913849 0.705321 0.164781 -0.464735
C2    C     C_3   0.822901 0.777306 0.190414 0.713753
H3    H     H_    0.694482 0.754096 0.178741 -0.016235
C3    C     C_3   0.841080 0.857654 0.130534 0.662989
C4    C     C_3   0.760569 0.325743 0.271372 1.034101
C5    C     C_3   0.732588 0.291757 0.171304 0.324967
H4    H     H_    0.717485 0.352761 0.132514 0.013347
Ba1   Ba    Ba6+2 0.142880 0.544780 0.454020 1.780178
C6    C     C_3   0.092169 0.686929 0.724139 0.216791
H5    H     H_    0.183730 0.664564 0.684411 0.043055
H6    H     H_    0.030463 0.626274 0.745232 0.046015
C7    C     C_3   0.172936 0.748305 0.806661 0.523291
H7    H     H_    0.267759 0.791555 0.785113 0.135365
C8    C     C_3   0.266960 0.262600 0.350714 0.324330
H8    H     H_    0.169489 0.296816 0.377799 0.043086
H9    H     H_    0.375095 0.267852 0.403265 0.043939
C9    C     C_3   0.216555 0.160472 0.324860 0.490173
H10   H     H_    0.257398 0.122028 0.384202 -0.019410
P4    P     P_3+3 0.862730 0.285940 0.439440 0.554306
O12   O     O_2   0.696600 0.271740 0.467230 -0.340801
O13   O     O_3   0.938380 0.387880 0.459490 -0.408877
O14   O     O_3   0.484630 0.331100 0.627330 -0.295623
O15   O     O_3   0.828212 0.257786 0.322825 -0.511423
P5    P     P_3+3 0.949594 0.390555 0.788089 0.622026
O16   O     O_3   0.389110 0.548970 0.605210 -0.383598
O17   O     O_3   0.904740 0.378630 0.670330 -0.298806
O18   O     O_2   0.850758 0.468728 0.818413 -0.282639
O19   O     O_3   0.874541 0.296437 0.836946 -0.533526
Ba2   Ba    Ba6+2 0.667290 0.455210 0.545900 1.760449
P6    P     P_3+3 0.349545 0.788027 0.375016 0.586966
C10   C     C_3   0.357774 0.801086 0.203661 0.659959
H11   H     H_    0.484466 0.818731 0.231174 0.003949
O20   O     O_3   0.421180 0.451020 0.394720 -0.396614
C11   C     C_3   0.575677 0.737937 0.677059 0.675961
H12   H     H_    0.661298 0.693991 0.648602 -0.002788
C12   C     C_3   0.672972 0.822705 0.723139 0.073455
H13   H     H_    0.761287 0.802832 0.779730 0.178076
H14   H     H_    0.739392 0.854172 0.675041 0.089563
P7    P     P_3+3 0.485203 0.577197 0.716829 0.496835
O21   O     O_2   0.662730 0.548230 0.717350 -0.341470
O22   O     O_3   0.499842 0.695703 0.740212 -0.592349
C13   C     C_3   0.969965 0.221114 0.830117 0.439826
H15   H     H_    0.091577 0.243844 0.827121 0.002137
C14   C     C_3   0.988087 0.170507 0.916831 0.440992
H16   H     H_    0.869340 0.150063 0.931158 0.123596
P8    P     P_3+3 0.461082 0.211623 0.622016 0.620502
C15   C     C_3   0.465064 0.243860 0.793341 1.075169
O23   O     O_2   0.591291 0.170655 0.574195 -0.290913
O24   O     O_3   0.511494 0.177705 0.731796 -0.500608
H17   H     H_    0.349081 0.218522 0.908051 0.126580
C16   C     C_3   0.467788 0.207784 0.888814 0.324471
C17   C     C_R   0.011657 0.946953 0.552840 0.359533
C18   C     C_R   0.821194 0.805873 0.506835 0.209529
C19   C     C_R   0.664411 0.775684 0.469811 -0.280475
C20   C     C_R   0.556188 0.832278 0.424524 0.201986
C21   C     C_R   0.603911 0.921948 0.416842 -0.195665
C22   C     C_R   0.756868 0.959576 0.457352 -0.042630
C23   C     C_R   0.866396 0.902939 0.506256 -0.177957
H18   H     H_    0.625197 0.706217 0.476526 0.173297
C24   C     C_R   0.944767 0.097107 0.493554 -0.157824
C25   C     C_R   0.055495 0.039748 0.540563 -0.055267
C26   C     C_R   0.988389 0.194951 0.495201 0.336316
C27   C     C_R   0.142934 0.226545 0.536377 -0.423942
C28   C     C_R   0.256409 0.167185 0.571319 0.137247
C29   C     C_R   0.211073 0.076095 0.576356 -0.151695
C30   C     C_R   0.797117 0.053705 0.449792 0.344083
H19   H     H_    0.516882 0.961574 0.379378 0.217564
H20   H     H_    0.300626 0.034093 0.608504 0.220603
H21   H     H_    0.177960 0.298270 0.538199 0.170170
C31   C     C_R   0.245747 0.465611 0.766971 0.250714
C32   C     C_R   0.158908 0.429760 0.828081 0.140751
C33   C     C_R   0.225421 0.433150 0.919088 -0.249390
C34   C     C_R   0.376904 0.477525 0.951754 0.153468
C35   C     C_R   0.450159 0.524736 0.889157 -0.192293
C36   C     C_R   0.388760 0.515997 0.797469 0.095715
C37   C     C_R   0.611430 0.517201 0.080321 0.178588
C38   C     C_R   0.659293 0.550402 0.170152 -0.011946
C39   C     C_R   0.418985 0.479270 0.209457 0.211651
C40   C     C_R   0.360607 0.458226 0.117693 -0.144825
C41   C     C_R   0.450581 0.482899 0.050530 0.047833
C42   C     C_R   0.558793 0.535317 0.232736 0.026777
H22   H     H_    0.154917 0.402916 0.962877 0.173230
H23   H     H_    0.245636 0.422131 0.100785 0.192196
H24   H     H_    0.552508 0.571056 0.909746 0.233140
N1    N     N_R   0.338390 0.704924 0.171130 0.219763
O25   O     O_R   0.409718 0.676239 0.106043 -0.380299
O26   O     O_R   0.231530 0.651424 0.195596 -0.305598
N2    N     N_R   0.585335 0.233413 0.145377 0.271127
O27   O     O_R   0.454226 0.269083 0.110749 -0.313864
O28   O     O_R   0.582500 0.146420 0.154785 -0.158964
N3    N     N_R   0.872879 0.247230 0.148041 0.247415
O29   O     O_R   0.009260 0.293455 0.160832 -0.315991
O30   O     O_R   0.863908 0.163875 0.112191 -0.242065
N4    N     N_R   0.242794 0.695026 0.878763 0.183535
O31   O     O_R   0.150580 0.644190 0.917712 -0.339567
O32   O     O_R   0.388791 0.715499 0.917842 -0.304402
O33   O     O_3   0.062478 0.804883 0.838323 -0.629931
H25   H     H_    0.125789 0.855632 0.876364 0.383234
O34   O     O_3   0.050715 0.148405 0.303685 -0.701428
H26   H     H_    0.024939 0.081918 0.302541 0.331890
N5    N     N_R   0.285444 0.123564 0.248717 0.294294
O35   O     O_R   0.230970 0.146422 0.168769 -0.155354
O36   O     O_R   0.370583 0.052506 0.257004 -0.357037
O37   O     O_3   0.416228 0.853403 0.064856 -0.632960
H27   H     H_    0.373042 0.889173 0.014182 0.400572
O38   O     O_3   0.460669 0.764194 0.608178 -0.725407
H28   H     H_    0.422131 0.708430 0.569120 0.332580
N6    N     N_R   0.570238 0.889199 0.756186 0.308479
O39   O     O_R   0.533896 0.959935 0.711844 -0.273008
O40   O     O_R   0.533294 0.884778 0.835447 -0.253635
N7    N     N_R   0.718503 0.924069 0.135377 0.234597
O41   O     O_R   0.693200 0.981428 0.073903 -0.176913
O42   O     O_R   0.662516 0.940457 0.208853 -0.415655
N8    N     N_R   0.902770 0.162139 0.749970 0.254148
O43   O     O_R   0.905341 0.191832 0.672003 -0.369698
O44   O     O_R   0.836913 0.081645 0.754510 -0.281579
N9    N     N_R   0.076797 0.087596 0.910956 0.284669
O45   O     O_R   0.091035 0.035274 0.976945 -0.227486
O46   O     O_R   0.144439 0.065779 0.842230 -0.372549
O47   O     O_3   0.068807 0.228815 0.988244 -0.669462
H29   H     H_    0.997612 0.279204 0.996988 0.343857
O48   O     O_3   0.309990 0.269180 0.761949 -0.847437
H30   H     H_    0.246540 0.211631 0.739831 0.289466
O49   O     O_3   0.569959 0.320826 0.799476 -0.632066
H31   H     H_    0.534275 0.367247 0.840562 0.322900
O50   O     O_3   0.577210 0.258763 0.954735 -0.705023
H32   H     H_    0.685183 0.247341 0.942230 0.353600
O51   O     O_3   0.878499 0.805900 0.280732 -0.706630
H33   H     H_    0.785059 0.824752 0.307101 0.308073
N10   N     N_R   0.495989 0.110575 0.893465 0.276278
O52   O     O_R   0.617603 0.077091 0.863760 -0.284320
O53   O     O_R   0.433446 0.066086 0.951233 -0.218643
N11   N     N_R   0.094480 0.907660 0.628996 0.238689
O54   O     O_R   0.048605 0.925551 0.705361 -0.308354
O55   O     O_R   0.236426 0.878946 0.628188 -0.328699
N12   N     N_R   0.694924 0.100237 0.386791 0.255135
O56   O     O_R   0.717821 0.092705 0.304681 -0.258920
O57   O     O_R   0.555733 0.121618 0.403435 -0.410227
N13   N     N_R   0.729513 0.509302 0.023038 0.232215
O58   O     O_R   0.816880 0.580061 0.009751 -0.286435
O59   O     O_R   0.750244 0.430442 0.983823 -0.381779
N14   N     N_R   0.587231 0.589990 0.314744 0.236935
O60   O     O_R   0.654091 0.556389 0.387304 -0.398560
O61   O     O_R   0.602845 0.677103 0.309096 -0.512606
O62   O     O_3   0.190304 0.451549 0.676969 -0.683269
H34   H     H_    0.117602 0.501172 0.662016 0.299739
O63   O     O_3   0.991487 0.903221 0.157406 -0.729726
H35   H     H_    0.990992 0.938761 0.215235 0.350568
N15   N     N_R   0.826668 0.820873 0.037254 0.263161
O64   O     O_R   0.921327 0.852486 0.986389 -0.271135
O65   O     O_R   0.703081 0.768355 0.000728 -0.288606
O66   O     O_3   0.614204 0.344622 0.294443 -0.820099
H36   H     H_    0.634523 0.377292 0.354205 0.336493
O67   O     O_3   0.864791 0.403367 0.281631 -0.755237
H37   H     H_    0.829952 0.451173 0.321744 0.333480

loop_
_geom_bond_atom_site_label_1
_geom_bond_atom_site_label_2
_geom_bond_distance
_ccdc_geom_bond_type
C32   C33   1.403575 A    
C15   O24   1.416098 S    
C9    N5    1.463420 S    
N1    O25   1.298822 A    
C10   N1    1.459462 S    
N13   O59   1.299066 A    
C12   N6    1.455501 S    
C15   O49   1.400934 S    
N8    O44   1.300655 A    
C40   C41   1.431472 A    
C11   O38   1.397942 S    
P7    O21   1.584167 D    
N2    O28   1.297758 A    
O62   H34   0.990410 S    
O3    P6    1.753704 S    
C12   H13   1.109610 S    
C6    C7    1.539455 S    
C3    N15   1.466922 S    
N15   O64   1.299628 A    
C4    O66   1.381289 S    
Ba1   Ba2   4.662395 S    
P5    C32   1.838872 S    
P8    C28   1.856324 S    
C7    H7    1.112447 S    
P4    O13   1.596713 S    
C24   C26   1.469561 A    
C2    H3    1.112630 S    
C31   C36   1.391524 A    
N11   O55   1.296648 A    
C8    H8    1.108001 S    
O3    Ba1   2.829964 S    
C40   H23   1.076944 S    
O5    C6    1.396826 S    
O67   H37   0.985542 S    
C17   C23   1.424627 A    
C4    O67   1.400553 S    
P2    Ba1   3.471242 S    
C37   C41   1.427757 A    
C5    N2    1.470658 S    
P1    O1    1.549878 D    
C22   C23   1.427530 A    
O8    Ba1   2.855390 S    
C30   N12   1.417501 S    
N4    O31   1.301410 A    
O16   P7    1.772229 S    
O14   Ba2   2.829442 S    
P8    O23   1.541756 D    
C17   N11   1.425399 S    
P5    O18   1.540845 D    
O63   H35   0.992213 S    
Ba2   O21   2.866447 S    
O19   C13   1.407979 S    
C1    H1    1.109454 S    
P3    O11   1.757785 S    
C11   C12   1.527704 S    
N3    O29   1.299390 A    
C19   C20   1.396228 A    
C25   C29   1.413145 A    
C14   O47   1.401158 S    
P8    O24   1.766997 S    
P5    O17   1.764180 S    
H17   C16   1.110629 S    
N15   O65   1.300619 A    
C4    C5    1.545676 S    
N14   O61   1.293683 A    
Ba1   O16   2.839529 S    
N3    O30   1.300909 A    
O2    Ba1   3.003629 S    
C39   C40   1.410780 A    
P7    C36   1.848400 S    
C35   H24   1.073349 S    
N2    O27   1.299640 A    
C12   H14   1.109860 S    
O11   C2    1.407176 S    
N10   O53   1.300372 A    
C15   C16   1.578440 S    
C9    O34   1.394993 S    
O50   H32   0.986464 S    
N10   O52   1.296431 A    
P1    O5    1.748609 S    
O6    P6    1.766313 S    
O12   Ba2   2.912367 S    
C24   C25   1.427694 A    
C3    N7    1.464597 S    
C7    O33   1.401356 S    
C24   C30   1.423795 A    
C26   C27   1.404925 A    
C21   C22   1.416878 A    
C39   C42   1.399824 A    
C7    N4    1.454475 S    
C13   H15   1.083042 S    
C3    O63   1.404287 S    
O2    Ba2   2.848313 S    
P1    C18   1.905507 S    
O7    Ba1   2.866155 S    
C14   H16   1.102184 S    
P1    O2    1.596734 S    
P4    O12   1.550360 D    
O6    C10   1.414615 S    
P4    O15   1.766824 S    
N7    O42   1.296822 A    
P2    O20   1.577484 S    
P2    O10   1.755223 S    
C10   H11   1.103035 S    
C4    O15   1.397290 S    
P3    O9    1.538961 D    
Ba2   O20   2.838809 S    
C5    N3    1.465579 S    
C16   N10   1.464651 S    
Ba1   O13   2.847796 S    
C18   C23   1.464980 A    
C11   H12   1.112907 S    
C31   O62   1.371177 S    
O49   H31   0.984280 S    
P6    C20   1.865753 S    
P2    C39   1.889868 S    
O66   H36   0.983808 S    
N12   O57   1.296920 A    
P7    O22   1.750256 S    
O1    Ba1   2.911838 S    
N14   O60   1.296025 A    
C15   O48   1.401204 S    
P3    C38   1.859066 S    
O10   C8    1.397278 S    
O13   Ba2   3.004345 S    
N7    O41   1.301271 A    
P4    Ba2   3.499476 S    
C38   C42   1.403277 A    
C22   C30   1.430301 A    
C27   H21   1.082127 S    
C29   H20   1.076701 S    
O37   H27   0.992995 S    
C1    O37   1.397615 S    
N6    O40   1.300724 A    
O33   H25   0.993151 S    
N1    O26   1.295659 A    
C17   C25   1.433839 A    
C8    C9    1.551046 S    
C31   C32   1.397164 A    
C11   O22   1.407617 S    
P3    O8    1.765614 S    
C28   C29   1.390438 A    
C6    H6    1.110309 S    
O4    P6    1.542725 D    
P4    C26   1.905740 S    
N5    O35   1.300884 A    
O51   H33   0.988256 S    
C42   N14   1.416456 S    
C34   C41   1.525413 S    
N5    O36   1.297445 A    
N8    O43   1.296033 A    
C6    H5    1.108133 S    
C1    C10   1.536332 S    
C20   C21   1.383188 A    
N11   O54   1.298663 A    
C8    H9    1.110939 S    
P2    O7    1.565376 D    
C35   C36   1.401773 A    
N9    O45   1.300792 A    
C13   N8    1.465623 S    
Ba1   O20   3.018679 S    
C2    O51   1.406307 S    
C37   C38   1.406890 A    
C9    H10   1.113824 S    
C37   N13   1.437131 S    
C2    C3    1.560537 S    
C18   C19   1.400478 A    
N4    O32   1.298761 A    
C21   H19   1.074960 S    
O48   H30   0.992162 S    
C27   C28   1.393427 A    
P5    O19   1.762846 S    
C33   C34   1.416950 A    
C19   H18   1.079239 S    
P1    Ba1   3.498883 S    
C1    H2    1.104677 S    
N13   O58   1.301242 A    
N9    O46   1.301403 A    
O16   Ba2   3.017869 S    
C5    H4    1.108914 S    
O47   H29   0.991541 S    
N12   O56   1.293754 A    
O38   H28   0.989575 S    
C34   C35   1.425316 A    
C16   O50   1.401593 S    
C13   C14   1.549216 S    
C14   N9    1.465341 S    
O17   Ba2   2.856121 S    
C33   H22   1.073834 S    
O34   H26   0.992189 S    
N6    O39   1.300190 A    
O14   P8    1.756016 S    
