data_mof_unit_39242.cif
_audit_creation_date              2012-12-10T17:32:18-0500
_audit_creation_method            fapswitch 2.2
_symmetry_space_group_name_H-M    P1
_symmetry_Int_Tables_number       1
_space_group_crystal_system       triclinic
_cell_length_a                    12.309209
_cell_length_b                    13.211859
_cell_length_c                    15.057513
_cell_angle_alpha                 77.410056
_cell_angle_beta                  101.527311
_cell_angle_gamma                 116.611408
_cell_volume                      2122.00733264

loop_
_atom_site_label
_atom_site_type_symbol
_atom_type_description
_atom_site_fract_x
_atom_site_fract_y
_atom_site_fract_z
_atom_type_partial_charge
C1    C     C_R   0.854414 0.286461 0.509552 0.786382
C2    C     C_R   0.106908 0.503780 0.110013 0.075504
C3    C     C_R   0.798726 0.496317 0.014406 -0.217296
C4    C     C_R   0.798267 0.496349 0.921936 -0.218259
C5    C     C_R   0.899522 0.498732 0.891160 0.122506
C6    C     C_R   0.002510 0.500937 0.953807 0.058659
C7    C     C_R   0.104309 0.503157 0.923006 0.070033
C8    C     C_R   0.206552 0.506157 0.984865 -0.257601
C9    C     C_R   0.209788 0.506663 0.078381 0.155102
C10   C     C_R   0.899421 0.498892 0.798613 -0.254907
C11   C     C_R   0.000519 0.500548 0.768053 -0.070686
C12   C     C_R   0.999915 0.500013 0.671197 0.810935
C13   C     C_R   0.102544 0.502588 0.830298 -0.233048
C14   C     C_R   0.268412 0.029373 0.404402 -0.195417
C15   C     C_R   0.226902 0.835176 0.475112 -0.054947
C16   C     C_R   0.810513 0.091464 0.589692 -0.223060
C17   C     C_R   0.726835 0.991221 0.633613 -0.188788
C18   C     C_R   0.600712 0.960187 0.612880 0.160539
C19   C     C_R   0.558309 0.020337 0.532575 0.060307
C20   C     C_R   0.644459 0.125763 0.490813 0.048585
C21   C     C_R   0.433777 0.983696 0.494301 0.073173
C22   C     C_R   0.393424 0.061502 0.433381 0.163269
C23   C     C_R   0.145065 0.713381 0.486967 0.804473
C24   C     C_R   0.478948 0.165626 0.395464 -0.233241
C25   C     C_R   0.602532 0.192215 0.417758 -0.185156
C26   C     C_R   0.351104 0.868933 0.505997 -0.247950
C27   C     C_R   0.184657 0.916938 0.427844 -0.196268
C28   C     C_R   0.770167 0.164410 0.524912 -0.104389
C29   C     C_R   0.347390 0.328570 0.646098 -0.304616
C30   C     C_R   0.758120 0.644007 0.374917 0.071684
C31   C     C_R   0.659997 0.673646 0.346750 -0.261161
C32   C     C_R   0.556660 0.618702 0.393286 -0.193455
C33   C     C_R   0.550177 0.532854 0.469156 -0.004067
C34   C     C_R   0.000564 0.500541 0.328799 0.806032
C35   C     C_R   0.652794 0.504696 0.495045 0.289329
C36   C     C_R   0.446296 0.473973 0.520209 -0.036120
C37   C     C_R   0.446853 0.387563 0.594787 0.177311
C38   C     C_R   0.546815 0.360647 0.618191 -0.290033
C39   C     C_R   0.647468 0.418186 0.569851 -0.188282
C40   C     C_R   0.341296 0.496956 0.501273 0.016933
C41   C     C_R   0.247444 0.355444 0.624047 0.066813
C42   C     C_R   0.104190 0.504284 0.202507 -0.250046
C43   C     C_R   0.001682 0.501239 0.232006 -0.076004
C44   C     C_R   0.900472 0.498880 0.169279 -0.250994
C45   C     C_R   0.900475 0.498764 0.077032 0.124895
C46   C     C_R   0.003450 0.501036 0.047038 0.023621
Cu1   Cu    Cu3+1 0.098270 0.475420 0.521130 0.929992
Cu2   Cu    Cu3+1 0.901730 0.524580 0.478870 0.923121
H1    H     H_    0.181553 0.507706 0.252555 0.165536
H2    H     H_    0.450341 0.222629 0.343406 0.142075
H3    H     H_    0.236316 0.089634 0.360499 0.137487
H4    H     H_    0.384749 0.804404 0.531736 0.155954
H5    H     H_    0.906715 0.118231 0.614739 0.160579
H6    H     H_    0.761782 0.943968 0.690767 0.136660
H7    H     H_    0.664461 0.266273 0.377260 0.169142
H8    H     H_    0.170341 0.310243 0.663358 0.121613
H9    H     H_    0.547785 0.294590 0.675167 0.151904
H10   H     H_    0.347140 0.262253 0.703085 0.136336
H11   H     H_    0.821092 0.496338 0.192277 0.151788
H12   H     H_    0.333022 0.561222 0.445994 0.120019
H13   H     H_    0.837866 0.687092 0.338334 0.124688
H14   H     H_    0.483357 0.644864 0.368321 0.130599
H15   H     H_    0.664007 0.739416 0.288572 0.141506
H16   H     H_    0.719295 0.391638 0.594114 0.207250
H17   H     H_    0.719512 0.494483 0.036995 0.139288
H18   H     H_    0.718797 0.494514 0.874492 0.143054
H19   H     H_    0.820250 0.496843 0.750622 0.155898
H20   H     H_    0.181180 0.504605 0.806573 0.154593
H21   H     H_    0.284308 0.507832 0.960055 0.139894
H22   H     H_    0.088716 0.892352 0.402959 0.152347
N1    N     N_R   0.246280 0.438190 0.553160 -0.180141
N2    N     N_R   0.754320 0.561190 0.447410 -0.206540
O1    O     O_R   0.972510 0.318130 0.526570 -0.578530
O2    O     O_R   0.806530 0.359650 0.490890 -0.603313
O3    O     O_R   0.082980 0.479210 0.647590 -0.587909
O4    O     O_R   0.917000 0.520730 0.611900 -0.600926
O5    O     O_R   0.193470 0.640350 0.509110 -0.592258
O6    O     O_R   0.027490 0.681870 0.473430 -0.585804
O7    O     O_R   0.083000 0.479270 0.388100 -0.588194
O8    O     O_R   0.917020 0.520790 0.352410 -0.597280
C47   C     C_3   0.521761 0.880065 0.687945 -0.411197
C48   C     C_3   0.458418 0.936974 0.723935 -0.814288
H23   H     H_    0.526795 0.019635 0.746011 0.247962
H24   H     H_    0.388684 0.952621 0.671003 0.259515
H25   H     H_    0.411613 0.880147 0.783809 0.237312
H26   H     H_    0.454933 0.796606 0.668049 0.194460
H27   H     H_    0.579727 0.856583 0.747809 0.194508
C49   C     C_3   0.324587 0.511526 0.141191 -0.401623
C50   C     C_3   0.306750 0.394153 0.195453 -0.837044
H28   H     H_    0.230644 0.360104 0.238152 0.252919
H29   H     H_    0.286507 0.332776 0.147867 0.251037
H30   H     H_    0.391884 0.401378 0.241294 0.240253
H31   H     H_    0.402413 0.541086 0.100684 0.195987
H32   H     H_    0.353553 0.575577 0.188141 0.189480

loop_
_geom_bond_atom_site_label_1
_geom_bond_atom_site_label_2
_ccdc_geom_bond_type
C16   C28   A    
C21   C26   A    
C40   H12   S    
C40   N1    A    
Cu2   O4    S    
C19   C20   A    
Cu1   O7    S    
C33   C36   A    
C47   C48   S    
C7    C8    A    
C10   H19   S    
C2    C46   A    
C39   H16   S    
C8    H21   S    
C1    O2    A    
C29   H10   S    
C36   C37   A    
C19   C21   A    
C9    C49   S    
C5    C6    A    
C20   C25   A    
C44   H11   S    
C31   H15   S    
C18   C47   S    
C18   C19   A    
Cu2   O6    S    
C16   H5    S    
C34   O8    A    
C31   C32   A    
C8    C9    A    
C1    C28   S    
C14   C27   A    
C50   H29   S    
C47   H26   S    
C41   N1    A    
C15   C23   S    
C21   C22   A    
C3    H17   S    
Cu2   N2    S    
C24   H2    S    
C38   C39   A    
C49   H32   S    
Cu2   O2    S    
C36   C40   A    
C24   C25   A    
Cu1   O1    S    
C16   C17   A    
C15   C26   A    
C20   C28   A    
C45   C46   A    
C3    C45   A    
C35   C39   A    
C43   C44   A    
C41   H8    S    
C37   C38   A    
C26   H4    S    
C34   O7    A    
C38   H9    S    
C15   C27   A    
Cu1   Cu2   S    
C17   C18   A    
C23   O5    A    
C50   H30   S    
Cu1   N1    S    
C47   H27   S    
C27   H22   S    
C35   N2    A    
C48   H24   S    
C12   O4    A    
C22   C24   A    
C30   H13   S    
C42   C43   A    
Cu1   O5    S    
C3    C4    A    
C44   C45   A    
C49   H31   S    
C6    C46   A    
C29   C41   A    
C34   C43   S    
C25   H7    S    
C4    C5    A    
C30   N2    A    
C11   C12   S    
C6    C7    A    
C48   H25   S    
C1    O1    A    
C32   C33   A    
Cu2   O8    S    
Cu1   O3    S    
C5    C10   A    
C4    H18   S    
C11   C13   A    
C14   C22   A    
C30   C31   A    
C2    C42   A    
C33   C35   A    
C23   O6    A    
C10   C11   A    
C42   H1    S    
C32   H14   S    
C7    C13   A    
C49   C50   S    
C14   H3    S    
C48   H23   S    
C12   O3    A    
C29   C37   A    
C50   H28   S    
C2    C9    A    
C17   H6    S    
C13   H20   S    
