data_mof_unit_9100.cif
_audit_creation_date              2012-12-11T15:37:12-0500
_audit_creation_method            fapswitch 2.2
_symmetry_space_group_name_H-M    P1
_symmetry_Int_Tables_number       1
_space_group_crystal_system       triclinic
_cell_length_a                    8.272473
_cell_length_b                    17.325804
_cell_length_c                    18.961408
_cell_angle_alpha                 97.821184
_cell_angle_beta                  94.341204
_cell_angle_gamma                 97.743403
_cell_volume                      2655.58714509

loop_
_atom_site_label
_atom_site_type_symbol
_atom_type_description
_atom_site_fract_x
_atom_site_fract_y
_atom_site_fract_z
_atom_type_partial_charge
Ba1   Ba    Ba6+2 0.162080 0.538580 0.468810 1.689946
Ba2   Ba    Ba6+2 0.648090 0.461410 0.531130 1.721045
Br1   Br    Br    0.871712 0.650648 0.770788 -0.484134
Br2   Br    Br    0.942315 0.887633 0.684130 -0.554669
C1    C     C_3   0.435389 0.748293 0.224183 -0.356277
C2    C     C_3   0.610658 0.782541 0.502323 -0.011736
C3    C     C_2   0.688119 0.865430 0.496522 -0.070523
C4    C     C_3   0.916036 0.751522 0.321203 0.278449
C5    C     C_2   0.853534 0.885842 0.504828 0.032516
C6    C     C_2   0.957262 0.823871 0.519703 -0.093557
C7    C     C_1   0.888181 0.751324 0.524514 0.029743
C8    C     C_R   0.102717 0.138732 0.528717 -0.077699
C9    C     C_R   0.171526 0.217862 0.534417 0.059243
C10   C     C_R   0.923976 0.248026 0.474084 0.061997
C11   C     C_R   0.855078 0.168312 0.467069 -0.052033
C12   C     C_3   0.418668 0.718302 0.295332 0.333021
C13   C     C_R   0.943003 0.112640 0.494677 0.029304
C14   C     C_2   0.936998 0.968377 0.505382 -0.035127
C15   C     C_2   0.861182 0.029175 0.488893 -0.062023
C16   C     C_3   0.944157 0.834922 0.303433 -0.309421
C17   C     C_R   0.081615 0.272070 0.507911 -0.221453
C18   C     C_R   0.619072 0.532085 0.301462 -0.271955
C19   C     C_R   0.462472 0.492771 0.276680 0.052032
C20   C     C_R   0.405453 0.489023 0.204477 -0.132075
C21   C     C_R   0.506242 0.522464 0.156452 -0.008534
C22   C     C_R   0.666964 0.558410 0.181929 -0.136437
C23   C     C_3   0.441249 0.709235 0.646004 0.266342
C24   C     C_R   0.723358 0.562041 0.253971 0.009729
C25   C     C_R   0.484349 0.581914 0.042762 -0.075705
C26   C     C_R   0.429849 0.577167 0.970364 -0.046162
C27   C     C_R   0.335664 0.508037 0.932844 0.050395
C28   C     C_3   0.747609 0.366741 0.311848 0.297661
C29   C     C_R   0.296066 0.444048 0.969893 -0.076474
C30   C     C_R   0.350381 0.448845 0.042358 -0.064802
C31   C     C_R   0.445830 0.517741 0.079650 0.056019
C32   C     C_R   0.124802 0.463152 0.826411 -0.098938
C33   C     C_R   0.075940 0.457089 0.753096 0.050134
C34   C     C_3   0.476708 0.798848 0.662983 -0.295939
C35   C     C_R   0.339587 0.528825 0.735893 0.031761
C36   C     C_R   0.388780 0.535175 0.808894 -0.076297
C37   C     C_R   0.281917 0.502296 0.855160 -0.002410
C38   C     C_R   0.183601 0.489969 0.708478 -0.227438
C39   C     C_3   0.681924 0.341582 0.233681 -0.376381
C40   C     C_3   0.980139 0.725831 0.716233 0.812911
C41   C     C_3   0.857302 0.780216 0.696186 0.054934
C42   C     C_3   0.163803 0.299217 0.294705 0.698615
C43   C     C_3   0.122875 0.308750 0.216358 -0.341394
C44   C     C_3   0.857826 0.252097 0.675199 0.320684
C45   C     C_3   0.856228 0.170569 0.696520 -0.320591
C46   C     C_3   0.368639 0.288461 0.712035 0.327842
C47   C     C_3   0.379202 0.264284 0.786137 -0.329166
C48   C     C_2   0.735022 0.726077 0.498298 -0.257526
H1    H     H_    0.288317 0.694185 0.297577 0.114731
H2    H     H_    0.021396 0.262700 0.190553 0.133959
H3    H     H_    0.231661 0.303883 0.185995 0.100346
H4    H     H_    0.495456 0.670863 0.297864 -0.011743
H5    H     H_    0.393393 0.699338 0.179684 0.085038
H6    H     H_    0.458285 0.690465 0.589073 0.031163
H7    H     H_    0.315620 0.692497 0.657352 0.133076
H8    H     H_    0.582696 0.823635 0.637216 0.086098
H9    H     H_    0.370312 0.824344 0.641652 0.129718
H10   H     H_    0.501550 0.817708 0.721507 0.210041
H11   H     H_    0.565514 0.771473 0.219764 0.118249
H12   H     H_    0.559656 0.305057 0.229840 0.154122
H13   H     H_    0.889161 0.874802 0.342648 0.092234
H14   H     H_    0.750828 0.250232 0.635691 0.098128
H15   H     H_    0.972639 0.267136 0.650091 -0.071728
H16   H     H_    0.741847 0.153464 0.721326 0.150981
H17   H     H_    0.862016 0.126889 0.648497 0.085260
H18   H     H_    0.963675 0.170319 0.735310 0.129189
H19   H     H_    0.240738 0.298061 0.698137 -0.075263
H20   H     H_    0.452620 0.344596 0.714106 0.076962
H21   H     H_    0.343612 0.311157 0.825419 0.059965
H22   H     H_    0.506607 0.255429 0.802140 0.144837
H23   H     H_    0.671108 0.393734 0.206828 0.051219
H24   H     H_    0.975902 0.752254 0.375738 0.071242
H25   H     H_    0.295000 0.208670 0.786268 0.133586
H26   H     H_    0.732224 0.018420 0.469995 0.079277
H27   H     H_    0.088015 0.840809 0.533451 0.120442
H28   H     H_    0.174412 0.099225 0.551852 0.071064
H29   H     H_    0.067743 0.978137 0.520386 0.090349
H30   H     H_    0.606221 0.908248 0.490268 0.071464
H31   H     H_    0.733303 0.149723 0.439874 0.095920
H32   H     H_    0.698055 0.665174 0.473959 0.066665
H33   H     H_    0.136190 0.333070 0.512144 0.065711
H34   H     H_    0.765931 0.306547 0.205071 0.134102
H35   H     H_    0.510660 0.564523 0.829101 0.103551
H36   H     H_    0.781837 0.732949 0.320292 -0.019571
H37   H     H_    0.460271 0.628046 0.943879 0.108903
H38   H     H_    0.555367 0.636251 0.070138 0.076982
H39   H     H_    0.282735 0.460406 0.185733 0.078209
H40   H     H_    0.226080 0.389497 0.942459 0.069163
H41   H     H_    0.320597 0.397873 0.068802 0.065392
H42   H     H_    0.040390 0.437549 0.860741 0.078617
H43   H     H_    0.749212 0.582106 0.145807 0.084673
H44   H     H_    0.145479 0.484941 0.651970 0.068412
H45   H     H_    0.778511 0.788756 0.740566 0.144059
H46   H     H_    0.663170 0.535672 0.357177 0.062186
H47   H     H_    0.077676 0.855896 0.305754 0.142286
H48   H     H_    0.886213 0.836440 0.248957 0.134090
H49   H     H_    0.652265 0.392168 0.341153 0.030152
H50   H     H_    0.858308 0.411555 0.315242 0.029936
H51   H     H_    0.161315 0.828840 0.891897 0.374406
H52   H     H_    0.370573 0.200202 0.374290 0.357509
H53   H     H_    0.777942 0.750842 0.648500 -0.030145
H54   H     H_    0.074085 0.322184 0.328934 -0.014198
H55   H     H_    0.359298 0.795878 0.219773 0.149924
H56   H     H_    0.081899 0.366512 0.212882 0.043838
O1    O     O_2   0.166667 0.691630 0.546720 -0.497828
O2    O     O_2   0.732774 0.438822 0.745673 -0.461292
O3    O     O_3   0.847839 0.306633 0.736177 -0.609230
O4    O     O_3   0.893830 0.593690 0.541700 -0.454834
O5    O     O_3   0.426330 0.460710 0.414310 -0.455543
O6    O     O_2   0.638540 0.536570 0.671920 -0.402420
O7    O     O_3   0.539999 0.673272 0.690253 -0.618526
O8    O     O_2   0.509638 0.217469 0.533165 -0.484209
O9    O     O_3   0.415158 0.229167 0.662658 -0.602359
O10   O     O_3   0.390350 0.644650 0.417800 -0.492854
O11   O     O_2   0.276410 0.778626 0.452881 -0.499084
O12   O     O_3   0.322575 0.336209 0.320690 -0.660405
O13   O     O_3   0.043349 0.678966 0.659921 -0.648203
O14   O     O_3   0.471653 0.780340 0.351494 -0.607723
O15   O     O_2   0.171750 0.463380 0.328050 -0.500652
O16   O     O_3   0.965290 0.605410 0.380210 -0.486972
O17   O     O_2   0.061143 0.558699 0.252098 -0.489006
O18   O     O_2   0.262742 0.721342 0.796125 -0.312296
O19   O     O_2   0.234712 0.847467 0.755499 -0.282591
O20   O     O_3   0.065137 0.807918 0.856925 -0.462933
O21   O     O_2   0.978767 0.159583 0.297931 -0.276319
O22   O     O_2   0.234182 0.156052 0.241002 -0.274476
O23   O     O_3   0.984963 0.701384 0.271027 -0.600603
O24   O     O_3   0.252630 0.185479 0.379477 -0.525286
O25   O     O_2   0.643630 0.308330 0.453260 -0.450840
O26   O     O_3   0.916470 0.406310 0.458240 -0.506057
O27   O     O_3   0.419940 0.355340 0.582140 -0.489201
O28   O     O_3   0.787388 0.300480 0.339819 -0.600626
O29   O     O_3   0.383960 0.539280 0.585630 -0.489259
O30   O     O_3   0.845010 0.394580 0.619730 -0.496351
P1    P     P_3+3 0.992230 0.679190 0.566750 0.996379
P2    P     P_3+3 0.339610 0.439630 0.337240 0.966626
P3    P     P_3+3 0.934111 0.604809 0.288101 0.942608
P4    P     P_3+3 0.818060 0.320800 0.433200 1.023870
P5    P     P_3+3 0.875807 0.401897 0.713311 0.988030
P6    P     P_3+3 0.435625 0.746962 0.432991 0.945557
P7    P     P_3+3 0.472950 0.571551 0.673604 1.019001
P8    P     P_3+3 0.379829 0.253308 0.576663 0.977767
S1    S     S_3+6 0.144381 0.776986 0.780729 -0.029082
S2    S     S_3+6 0.154694 0.196709 0.301444 -0.055003

loop_
_geom_bond_atom_site_label_1
_geom_bond_atom_site_label_2
_ccdc_geom_bond_type
C10   P4    S    
C18   H46   S    
C45   H16   S    
C46   O9    S    
C12   H4    S    
C28   H49   S    
C47   H22   S    
O14   P6    S    
C40   S1    S    
C47   H25   S    
C7    P1    S    
Ba2   O4    S    
O25   P4    D    
Ba2   O26   S    
C38   H44   S    
C10   C17   A    
O29   P7    S    
C32   C33   A    
C14   C15   D    
O10   P6    S    
O30   P5    S    
Ba1   O4    S    
C26   C27   A    
C30   C31   A    
Ba2   O5    S    
C23   C34   S    
C42   H54   S    
C40   O13   S    
C4    H24   S    
C14   H29   S    
C1    H11   S    
C11   C13   A    
Ba1   Ba2   S    
C33   C38   A    
C48   H32   S    
C46   H20   S    
C12   H1    S    
O21   S2    D    
C12   O14   S    
C7    C48   D    
Ba1   O1    S    
C42   S2    S    
O17   P3    D    
C1    C12   S    
C8    C13   A    
O28   P4    S    
C19   C20   A    
C27   C29   A    
O12   P2    S    
C27   C37   S    
C5    C6    S    
O23   P3    S    
O3    P5    S    
C34   H9    S    
C45   H17   S    
O11   P6    D    
C39   H34   S    
O4    P1    S    
C32   C37   A    
Ba1   O5    S    
C9    P8    S    
C26   H37   S    
C25   H38   S    
C18   C24   A    
C41   H53   S    
C39   H12   S    
C29   C30   A    
C35   C38   A    
Br2   C41   S    
C39   H23   S    
C17   H33   S    
Br1   C40   S    
Ba2   O25   S    
O22   S2    D    
Ba2   O30   S    
C16   H13   S    
C20   C21   A    
C29   H40   S    
C35   C36   A    
C28   O28   S    
C11   H31   S    
C21   C22   A    
O15   P2    D    
O9    P8    S    
C4    H36   S    
O24   S2    S    
C15   H26   S    
C46   H19   S    
Ba1   O15   S    
C25   C26   A    
O26   P4    S    
C19   P2    S    
C16   H48   S    
O18   S1    D    
O27   P8    S    
C35   P7    S    
C4    O23   S    
C46   C47   S    
O5    P2    S    
C42   O12   S    
C4    C16   S    
H51   O20   S    
Ba1   P2    S    
C21   C31   S    
C43   H2    S    
C34   H8    S    
C44   C45   S    
C45   H18   S    
Ba2   P4    S    
C28   H50   S    
O16   P3    S    
C2    P6    S    
Ba1   O26   S    
C20   H39   S    
Ba1   O29   S    
C40   C41   S    
C36   H35   S    
C43   H3    S    
C1    H55   S    
C22   H43   S    
C3    C5    D    
O7    P7    S    
C42   C43   S    
C36   C37   A    
C33   P5    S    
C18   C19   A    
Ba2   O29   S    
C47   H21   S    
O6    P7    D    
C23   H6    S    
Ba1   P1    S    
C6    H27   S    
O20   S1    S    
C2    C3    S    
C44   O3    S    
C25   C31   A    
C22   C24   A    
Ba2   O27   S    
C1    H5    S    
O1    P1    D    
C2    C48   S    
O13   P1    S    
Ba1   O16   S    
C23   H7    S    
C9    C17   A    
O8    P8    D    
Ba2   O6    S    
C16   H47   S    
C8    H28   S    
C13   C15   S    
C28   C39   S    
Ba1   O10   S    
C44   H15   S    
O2    P5    D    
C30   H41   S    
C6    C7    D    
C32   H42   S    
C5    C14   S    
C3    H30   S    
C8    C9    A    
C43   H56   S    
H52   O24   S    
C10   C11   A    
C41   H45   S    
C24   P3    S    
C44   H14   S    
O19   S1    D    
C34   H10   S    
C23   O7    S    
