data_mof_unit_16073.cif
_audit_creation_date              2012-12-10T18:36:56-0500
_audit_creation_method            fapswitch 2.2
_symmetry_space_group_name_H-M    P1
_symmetry_Int_Tables_number       1
_space_group_crystal_system       triclinic
_cell_length_a                    14.888331
_cell_length_b                    15.501322
_cell_length_c                    23.367814
_cell_angle_alpha                 90.770657
_cell_angle_beta                  103.470218
_cell_angle_gamma                 80.517839
_cell_volume                      5171.26891014

loop_
_atom_site_label
_atom_site_type_symbol
_atom_type_description
_atom_site_fract_x
_atom_site_fract_y
_atom_site_fract_z
_atom_type_partial_charge
C1    C     C_R   0.440825 0.662199 0.490742 0.880540
C2    C     C_R   0.559265 0.337838 0.508781 0.880344
C3    C     C_R   0.561278 0.532044 0.772806 -0.131648
C4    C     C_R   0.557098 0.530085 0.244336 -0.130654
C5    C     C_R   0.558933 0.539827 0.713383 -0.222807
C6    C     C_R   0.556286 0.538116 0.303358 -0.246220
C7    C     C_R   0.504199 0.491234 0.672748 -0.063597
C8    C     C_R   0.500625 0.491594 0.327559 -0.068174
C9    C     C_R   0.454262 0.432737 0.691922 -0.250163
C10   C     C_R   0.445874 0.436581 0.292319 -0.226612
C11   C     C_R   0.457830 0.422906 0.751675 0.214428
C12   C     C_R   0.446037 0.427947 0.232812 0.214640
C13   C     C_R   0.510511 0.474566 0.791964 0.309591
C14   C     C_R   0.502301 0.475594 0.209068 0.303539
C15   C     C_R   0.404007 0.755751 0.485170 -0.101118
C16   C     C_R   0.596563 0.244440 0.513043 -0.106571
C17   C     C_R   0.283123 0.879822 0.489579 0.182969
C18   C     C_R   0.716832 0.121293 0.505632 0.179317
C19   C     C_R   0.311646 0.789290 0.486307 -0.202120
C20   C     C_R   0.688090 0.211722 0.509449 -0.194108
C21   C     C_R   0.465252 0.812454 0.480810 -0.243931
C22   C     C_R   0.536301 0.187247 0.518152 -0.248195
C23   C     C_R   0.500755 0.498938 0.610391 0.877326
C24   C     C_R   0.499974 0.498745 0.389623 0.877403
C25   C     C_R   0.441420 0.902162 0.487299 0.058654
C26   C     C_R   0.559723 0.097797 0.510439 0.057562
C27   C     C_R   0.352983 0.934745 0.499770 0.055981
C28   C     C_R   0.647456 0.065776 0.496682 0.057381
C29   C     C_R   0.508166 0.957755 0.487795 0.044419
C30   C     C_R   0.493037 0.042089 0.510050 0.042972
C31   C     C_R   0.412805 0.067687 0.532766 -0.230736
C32   C     C_R   0.588089 0.932060 0.464881 -0.231409
C33   C     C_R   0.342748 0.016556 0.527016 0.112892
C34   C     C_R   0.657448 0.983761 0.469561 0.113496
C35   C     C_R   0.853686 0.559587 0.619087 -0.327224
C36   C     C_R   0.163524 0.365158 0.404657 -0.323958
C37   C     C_R   0.759551 0.571237 0.591125 0.011235
C38   C     C_R   0.250904 0.390730 0.422074 0.004542
C39   C     C_R   0.795167 0.532259 0.499542 0.254576
C40   C     C_R   0.202942 0.477274 0.497996 0.233079
C41   C     C_R   0.891076 0.504458 0.527952 -0.046681
C42   C     C_R   0.118304 0.441605 0.487507 -0.001047
C43   C     C_R   0.921087 0.522163 0.588792 0.079795
C44   C     C_R   0.094285 0.392850 0.435980 0.075731
C45   C     C_R   0.568105 0.416356 0.129831 0.494331
C46   C     C_R   0.439518 0.525061 0.870542 0.492332
C47   C     C_R   0.958040 0.461250 0.498156 0.004341
C48   C     C_R   0.053330 0.459330 0.523393 0.036361
C49   C     C_R   0.081622 0.468815 0.584354 -0.196983
C50   C     C_R   0.933683 0.413074 0.446989 -0.239302
C51   C     C_R   0.017055 0.500449 0.618058 0.167535
C52   C     C_R   0.001521 0.374612 0.416855 0.180804
C53   C     C_R   0.433097 0.528160 0.110014 0.501190
C54   C     C_R   0.577759 0.416927 0.890431 0.498432
C55   C     C_R   0.428725 0.526787 0.048860 -0.077730
C56   C     C_R   0.577078 0.411957 0.950876 -0.077191
C57   C     C_R   0.500734 0.469598 0.029708 -0.037189
C58   C     C_R   0.504379 0.468276 0.970005 -0.036643
C59   C     C_R   0.569904 0.414050 0.070422 -0.055097
C60   C     C_R   0.435403 0.524218 0.929440 -0.055734
C61   C     C_R   0.356501 0.579898 0.006543 0.138949
C62   C     C_R   0.645132 0.353871 0.992571 0.137366
C63   C     C_R   0.362819 0.578094 0.947627 -0.150768
C64   C     C_R   0.639866 0.357064 0.051756 -0.149222
H1    H     H_    0.405102 0.125780 0.558304 0.170697
H2    H     H_    0.595650 0.873488 0.439736 0.171335
H3    H     H_    0.304483 0.367659 0.398592 0.143568
H4    H     H_    0.708285 0.591957 0.616558 0.149240
H5    H     H_    0.871758 0.575346 0.665108 0.147572
H6    H     H_    0.151317 0.324361 0.366668 0.147995
H7    H     H_    0.154105 0.446586 0.605473 0.153896
H8    H     H_    0.862189 0.402564 0.432558 0.158414
H9    H     H_    0.310835 0.619139 0.914896 0.207295
H10   H     H_    0.690964 0.315143 0.084424 0.207027
H11   H     H_    0.601712 0.571342 0.804130 0.144239
H12   H     H_    0.599299 0.567197 0.225544 0.146662
H13   H     H_    0.598209 0.584881 0.699064 0.153311
H14   H     H_    0.597487 0.581910 0.329637 0.170060
H15   H     H_    0.413520 0.393688 0.660463 0.162313
H16   H     H_    0.403857 0.399350 0.311267 0.153601
H17   H     H_    0.466929 0.215104 0.522259 0.167785
H18   H     H_    0.535409 0.784438 0.478288 0.161972
H19   H     H_    0.736754 0.256470 0.509328 0.162418
H20   H     H_    0.262210 0.745120 0.484811 0.168631
N1    N     N_R   0.500882 0.472817 0.147946 -0.348391
N2    N     N_R   0.509576 0.472157 0.852696 -0.347294
N3    N     N_R   0.731690 0.552740 0.533440 -0.101975
N4    N     N_R   0.268310 0.447260 0.466560 -0.122831
O1    O     O_R   0.383120 0.605620 0.483150 -0.628795
O2    O     O_R   0.616880 0.394380 0.516850 -0.609929
O3    O     O_R   0.531890 0.639510 0.504600 -0.622752
O4    O     O_R   0.468110 0.360490 0.495400 -0.619796
O5    O     O_R   0.425590 0.483070 0.573110 -0.642475
O6    O     O_R   0.574410 0.516930 0.426890 -0.623867
O7    O     O_R   0.574360 0.516970 0.594570 -0.625035
O8    O     O_R   0.425640 0.483030 0.405430 -0.618641
O9    O     O_2   0.633226 0.362986 0.169595 -0.574254
O10   O     O_2   0.373878 0.578246 0.830909 -0.574739
O11   O     O_2   0.372076 0.584713 0.132439 -0.596079
O12   O     O_2   0.645243 0.368218 0.868712 -0.599486
Zn1   Zn    Zn3+2 0.400660 0.477370 0.485670 0.928132
Zn2   Zn    Zn3+2 0.599340 0.522630 0.514330 0.934994
C65   C     C_3   0.272938 0.636899 0.023625 -0.318316
C66   C     C_3   0.194335 0.681881 0.973388 -0.931660
H21   H     H_    0.219828 0.731239 0.949931 0.269246
H22   H     H_    0.165912 0.632885 0.942204 0.267805
H23   H     H_    0.136411 0.716612 0.991842 0.266412
H24   H     H_    0.239760 0.594998 0.047952 0.240332
H25   H     H_    0.298668 0.689337 0.052649 0.252651
C67   C     C_3   0.722185 0.288890 0.974354 -0.318646
C68   C     C_3   0.787196 0.226367 0.022304 -0.930903
H26   H     H_    0.828363 0.263318 0.057039 0.266804
H27   H     H_    0.746388 0.185776 0.041763 0.270836
H28   H     H_    0.837408 0.181670 0.002548 0.266405
H29   H     H_    0.688560 0.246973 0.939625 0.244833
H30   H     H_    0.767614 0.326170 0.956421 0.249576
C69   C     C_3   0.178953 0.915022 0.477811 -0.401255
C70   C     C_3   0.123780 0.881827 0.420462 -0.841001
H31   H     H_    0.155166 0.894404 0.383290 0.266672
H32   H     H_    0.122241 0.810827 0.424057 0.254771
H33   H     H_    0.050285 0.916702 0.410793 0.269373
H34   H     H_    0.150878 0.896309 0.515103 0.232086
H35   H     H_    0.165837 0.987168 0.472320 0.240745
C71   C     C_3   0.820949 0.086822 0.515337 -0.402165
C72   C     C_3   0.878808 0.121539 0.571178 -0.834637
H36   H     H_    0.880106 0.192389 0.566231 0.255686
H37   H     H_    0.849822 0.110296 0.609649 0.266830
H38   H     H_    0.952229 0.086632 0.579711 0.269699
H39   H     H_    0.834872 0.014789 0.521686 0.242326
H40   H     H_    0.846277 0.104788 0.476702 0.231232
C73   C     C_3   0.048805 0.512943 0.684273 -0.405760
C74   C     C_3   0.152708 0.482314 0.712135 -0.858395
H41   H     H_    0.171727 0.411161 0.705647 0.250981
H42   H     H_    0.196923 0.519653 0.693131 0.265826
H43   H     H_    0.166607 0.493600 0.760203 0.268821
H44   H     H_    0.032143 0.583597 0.693380 0.214532
H45   H     H_    0.008624 0.476368 0.707205 0.212160
C75   C     C_3   0.975739 0.318631 0.363131 -0.419444
C76   C     C_3   0.874970 0.300510 0.347248 -0.827686
H46   H     H_    0.859352 0.266807 0.384575 0.255870
H47   H     H_    0.824622 0.362362 0.334880 0.260420
H48   H     H_    0.866007 0.257147 0.308827 0.267420
H49   H     H_    0.988081 0.351151 0.324222 0.211142
H50   H     H_    0.022779 0.254226 0.371016 0.214818
C77   C     C_3   0.215058 0.557924 0.535240 -0.385767
C78   C     C_3   0.139005 0.636410 0.511375 -0.886292
H51   H     H_    0.135810 0.649244 0.464230 0.258240
H52   H     H_    0.069218 0.625667 0.515893 0.275943
H53   H     H_    0.155398 0.695306 0.536627 0.251329
H54   H     H_    0.220222 0.546240 0.582385 0.186665
H55   H     H_    0.281507 0.578357 0.535365 0.266283
C79   C     C_3   0.766716 0.560646 0.435034 -0.430121
C80   C     C_3   0.714279 0.654880 0.426543 -0.808494
H56   H     H_    0.645286 0.660302 0.437700 0.280870
H57   H     H_    0.756083 0.699360 0.454742 0.264755
H58   H     H_    0.702705 0.676686 0.379955 0.241909
H59   H     H_    0.828997 0.560762 0.416673 0.210121
H60   H     H_    0.725093 0.514828 0.408774 0.220366
C81   C     C_3   0.405891 0.356968 0.771126 -0.431684
C82   C     C_3   0.458727 0.264110 0.769954 -0.811695
H61   H     H_    0.466162 0.247820 0.724666 0.258270
H62   H     H_    0.529333 0.257374 0.800129 0.284831
H63   H     H_    0.419460 0.216963 0.784558 0.253466
H64   H     H_    0.395370 0.369359 0.816170 0.213828
H65   H     H_    0.335253 0.362025 0.741327 0.208903
C83   C     C_3   0.387109 0.367216 0.196186 -0.419763
C84   C     C_3   0.282876 0.404479 0.185088 -0.831805
H66   H     H_    0.260539 0.412632 0.227266 0.253094
H67   H     H_    0.267651 0.468767 0.161405 0.290115
H68   H     H_    0.241691 0.358969 0.157615 0.246815
H69   H     H_    0.405355 0.355032 0.153039 0.212858
H70   H     H_    0.400972 0.302664 0.219524 0.209339
I1    I     I_    0.242960 0.058986 0.578426 -0.443627
I2    I     I_    0.755335 0.941274 0.416859 -0.451236

loop_
_geom_bond_atom_site_label_1
_geom_bond_atom_site_label_2
_ccdc_geom_bond_type
C83   H70   S    
C11   C13   A    
C68   H26   S    
C39   N3    A    
C16   C22   A    
C66   H22   S    
C77   C78   S    
C11   C81   S    
C84   H67   S    
C53   O11   S    
C15   C19   A    
C59   C64   A    
C40   C77   S    
C60   C63   A    
C73   H45   S    
C32   H2    S    
C61   C65   S    
C29   C32   A    
C75   H49   S    
C24   O8    A    
C12   C83   S    
C30   C31   A    
C76   H48   S    
C31   H1    S    
C57   C59   A    
C58   C60   A    
C78   H53   S    
C37   H4    S    
C61   C63   A    
C9    H15   S    
C2    O2    A    
C50   H8    S    
C67   C68   S    
O2    Zn2   S    
C62   C64   A    
C17   C19   A    
C70   H31   S    
C47   C48   A    
C56   C58   A    
C74   H41   S    
C49   C51   A    
C13   N2    S    
C72   H38   S    
C52   C75   S    
C31   C33   A    
C65   H24   S    
C1    C15   S    
C47   C50   A    
C35   C43   A    
C77   H54   S    
C3    C13   A    
O7    Zn2   S    
C17   C69   S    
O1    Zn1   S    
C44   C52   A    
C40   C42   A    
C46   O10   S    
C28   C34   A    
C83   H69   S    
C1    O3    A    
O8    Zn1   S    
C41   C43   A    
C54   O12   S    
C42   C44   A    
C66   H21   S    
C36   H6    S    
N4    Zn1   S    
C84   H68   S    
C78   H52   S    
C53   C55   A    
C25   C29   A    
C79   H60   S    
C17   C27   A    
C22   H17   S    
C18   C28   A    
C4    C6    A    
C73   H44   S    
O5    Zn1   S    
C84   H66   S    
C54   N2    A    
C51   C73   S    
C6    C8    A    
C63   H9    S    
C39   C79   S    
C27   C33   A    
C23   O5    A    
C38   N4    A    
C70   H33   S    
C32   C34   A    
C45   N1    A    
C69   H34   S    
C82   H63   S    
C29   C30   A    
C34   I2    S    
C24   O6    A    
N3    Zn2   S    
C50   C52   A    
C81   C82   S    
C62   C67   S    
C16   C20   A    
C41   C47   A    
C71   H40   S    
C68   H27   S    
C42   C48   A    
C21   H18   S    
C80   H58   S    
C2    O4    A    
C9    C11   A    
O6    Zn2   S    
C77   H55   S    
C10   C12   A    
O4    Zn1   S    
C8    C10   A    
C48   C49   A    
C12   C14   A    
C26   C30   A    
C55   C57   A    
C22   C26   A    
C83   C84   S    
C56   C62   A    
C36   C44   A    
C80   H57   S    
O3    Zn2   S    
C5    H13   S    
C19   H20   S    
C67   H30   S    
C33   I1    S    
C3    H11   S    
C35   C37   A    
C5    C7    A    
C78   H51   S    
C7    C9    A    
C21   C25   A    
C79   H59   S    
C45   C59   A    
C1    O1    A    
C46   C60   A    
C37   N3    A    
C14   N1    S    
C3    C5    A    
C53   N1    A    
C76   H46   S    
C54   C56   A    
C2    C16   S    
C25   C27   A    
C39   C41   A    
C26   C28   A    
C65   H25   S    
C82   H61   S    
C40   N4    A    
C10   H16   S    
C69   H35   S    
C45   O9    S    
C69   C70   S    
C76   H47   S    
C43   C51   A    
C57   C58   A    
C72   H36   S    
C74   H43   S    
C7    C23   S    
C55   C61   A    
C36   C38   A    
C8    C24   S    
C23   O7    A    
C71   H39   S    
C68   H28   S    
C18   C20   A    
C4    C14   A    
C70   H32   S    
C4    H12   S    
C6    H14   S    
C75   C76   S    
C81   H65   S    
C15   C21   A    
C38   H3    S    
C35   H5    S    
C74   H42   S    
C49   H7    S    
C20   H19   S    
C18   C71   S    
C65   C66   S    
C72   H37   S    
C64   H10   S    
C81   H64   S    
C75   H50   S    
C79   C80   S    
C80   H56   S    
C67   H29   S    
C66   H23   S    
C73   C74   S    
C82   H62   S    
C71   C72   S    
C46   N2    A    
