data_mof_unit_49039.cif
_audit_creation_date              2012-12-10T18:09:28-0500
_audit_creation_method            fapswitch 2.2
_symmetry_space_group_name_H-M    P1
_symmetry_Int_Tables_number       1
_space_group_crystal_system       triclinic
_cell_length_a                    15.60845
_cell_length_b                    14.806388
_cell_length_c                    9.406286
_cell_angle_alpha                 90.019634
_cell_angle_beta                  89.936111
_cell_angle_gamma                 90.012786
_cell_volume                      2173.83599924

loop_
_atom_site_label
_atom_site_type_symbol
_atom_type_description
_atom_site_fract_x
_atom_site_fract_y
_atom_site_fract_z
_atom_type_partial_charge
C1    C     C_R   0.121373 0.381244 0.500111 0.783694
C2    C     C_R   0.121672 0.618418 0.500118 0.785250
C3    C     C_R   0.621338 0.881205 0.500113 0.783747
C4    C     C_R   0.621637 0.118459 0.500119 0.785360
C5    C     C_3   0.080434 0.541262 0.083657 -0.189551
C6    C     C_3   0.080412 0.541290 0.916144 -0.188856
C7    C     C_3   0.580902 0.040259 0.083657 -0.189497
C8    C     C_3   0.580874 0.040298 0.916142 -0.188815
C9    C     C_R   0.883854 0.375979 0.500072 0.778605
C10   C     C_R   0.883773 0.623971 0.500126 0.779874
C11   C     C_R   0.383857 0.875977 0.500070 0.778629
C12   C     C_R   0.383775 0.123970 0.500122 0.779919
C13   C     C_3   0.814302 0.252647 0.646412 -0.142221
C14   C     C_3   0.827885 0.236163 0.373369 -0.141109
C15   C     C_3   0.811959 0.744975 0.648447 -0.144071
C16   C     C_3   0.829370 0.765654 0.376740 -0.142553
C17   C     C_3   0.314518 0.752412 0.646223 -0.142176
C18   C     C_3   0.327748 0.736344 0.373059 -0.141000
C19   C     C_3   0.312274 0.245310 0.648176 -0.144039
C20   C     C_3   0.329149 0.265380 0.376259 -0.142483
C21   C     C_3   0.241565 0.682042 0.644797 -0.398975
C22   C     C_3   0.257749 0.662523 0.380516 -0.405571
C23   C     C_3   0.239626 0.315928 0.646326 -0.396309
C24   C     C_3   0.258469 0.338517 0.383042 -0.404610
C25   C     C_3   0.741306 0.182336 0.645009 -0.398950
C26   C     C_3   0.757864 0.162367 0.380863 -0.405450
C27   C     C_3   0.739365 0.815641 0.646532 -0.396339
C28   C     C_3   0.758573 0.838673 0.383395 -0.404426
C29   C     C_3   0.729248 0.351228 0.481840 -0.433161
C30   C     C_3   0.729382 0.648775 0.476844 -0.432506
C31   C     C_3   0.229235 0.851218 0.482333 -0.433107
C32   C     C_3   0.229344 0.148755 0.477557 -0.432601
C33   C     C_3   0.817274 0.304096 0.500665 0.060007
C34   C     C_3   0.817061 0.695751 0.500900 0.059541
C35   C     C_3   0.317292 0.804078 0.500654 0.059969
C36   C     C_3   0.317077 0.195761 0.500874 0.059545
C37   C     C_3   0.193038 0.684550 0.500613 0.098155
C38   C     C_3   0.192640 0.315039 0.500646 0.097819
C39   C     C_3   0.692992 0.184602 0.500616 0.098169
C40   C     C_3   0.692594 0.814991 0.500653 0.097895
C41   C     C_3   0.157052 0.780371 0.475828 -0.357073
C42   C     C_3   0.157040 0.219478 0.471816 -0.358513
C43   C     C_3   0.657059 0.280389 0.475286 -0.357209
C44   C     C_3   0.657050 0.719475 0.471273 -0.358642
C45   C     C_3   0.927705 0.551348 0.083814 -0.186492
C46   C     C_3   0.927711 0.551347 0.916497 -0.190464
C47   C     C_3   0.995853 0.406981 0.083847 -0.183981
C48   C     C_3   0.995791 0.406995 0.916120 -0.177796
C49   C     C_3   0.428298 0.052278 0.083812 -0.186579
C50   C     C_3   0.428297 0.052266 0.916499 -0.190455
C51   C     C_3   0.494813 0.907056 0.083845 -0.183949
C52   C     C_3   0.494769 0.907069 0.916125 -0.177854
Cu1   Cu    Cu3+1 0.000100 0.500000 0.642410 0.905016
Cu2   Cu    Cu3+1 0.000100 0.500000 0.357590 0.899453
Cu3   Cu    Cu3+1 0.500100 0.000000 0.642410 0.904953
Cu4   Cu    Cu3+1 0.500100 1.000000 0.357590 0.899564
H1    H     H_    0.799930 0.302118 0.732425 0.124244
H2    H     H_    0.819279 0.274030 0.272117 0.123971
H3    H     H_    0.795974 0.694253 0.731792 0.122733
H4    H     H_    0.823080 0.729256 0.273663 0.122932
H5    H     H_    0.300203 0.801746 0.732456 0.124123
H6    H     H_    0.318990 0.774363 0.271984 0.123877
H7    H     H_    0.296508 0.194768 0.731905 0.122701
H8    H     H_    0.322518 0.228763 0.273431 0.122975
H9    H     H_    0.266099 0.612388 0.664015 0.159920
H10   H     H_    0.285338 0.594148 0.399876 0.159897
H11   H     H_    0.264283 0.385287 0.667831 0.160611
H12   H     H_    0.285235 0.407030 0.404518 0.158551
H13   H     H_    0.765763 0.112700 0.664670 0.160002
H14   H     H_    0.785408 0.094016 0.400614 0.159872
H15   H     H_    0.764040 0.884953 0.668364 0.160712
H16   H     H_    0.785198 0.907216 0.405127 0.158381
H17   H     H_    0.196654 0.697866 0.733403 0.159687
H18   H     H_    0.224780 0.659393 0.275736 0.153929
H19   H     H_    0.193696 0.299588 0.733314 0.161788
H20   H     H_    0.226534 0.342166 0.277390 0.157091
H21   H     H_    0.696267 0.198374 0.733338 0.159761
H22   H     H_    0.725040 0.159068 0.275971 0.153892
H23   H     H_    0.693299 0.799219 0.733287 0.161914
H24   H     H_    0.726788 0.842372 0.277621 0.157101
H25   H     H_    0.717068 0.398477 0.571770 0.171248
H26   H     H_    0.728596 0.392327 0.382684 0.171673
H27   H     H_    0.716233 0.599779 0.564002 0.170640
H28   H     H_    0.730072 0.609603 0.375728 0.171237
H29   H     H_    0.217169 0.898346 0.572465 0.171283
H30   H     H_    0.228433 0.892451 0.383317 0.171628
H31   H     H_    0.216322 0.100019 0.565126 0.170750
H32   H     H_    0.229848 0.109290 0.376720 0.171153
H33   H     H_    0.107388 0.796458 0.556849 0.200571
H34   H     H_    0.127169 0.782852 0.368769 0.192835
H35   H     H_    0.106777 0.202222 0.551123 0.201192
H36   H     H_    0.127963 0.218248 0.364098 0.192666
H37   H     H_    0.607267 0.296616 0.556010 0.200687
H38   H     H_    0.627345 0.282712 0.368090 0.192968
H39   H     H_    0.606737 0.702048 0.550392 0.201300
H40   H     H_    0.628040 0.718424 0.363498 0.192630
H41   H     H_    0.930040 0.622523 0.121508 0.142494
H42   H     H_    0.930099 0.622498 0.878939 0.149601
H43   H     H_    0.050457 0.365601 0.122665 0.143642
H44   H     H_    0.050278 0.365516 0.876929 0.146663
H45   H     H_    0.431431 0.123410 0.121560 0.142615
H46   H     H_    0.431461 0.123371 0.878864 0.149636
H47   H     H_    0.548917 0.864982 0.122749 0.143787
H48   H     H_    0.548782 0.864920 0.876887 0.146839
H49   H     H_    0.866436 0.522276 0.123498 0.139304
H50   H     H_    0.866437 0.522326 0.876946 0.137582
H51   H     H_    0.936701 0.373032 0.122250 0.140218
H52   H     H_    0.936528 0.373207 0.878118 0.143464
H53   H     H_    0.366703 0.023965 0.123461 0.139314
H54   H     H_    0.366701 0.023983 0.877009 0.137609
H55   H     H_    0.435256 0.873867 0.122153 0.140137
H56   H     H_    0.435127 0.874011 0.878178 0.143131
H57   H     H_    0.086504 0.612270 0.120808 0.144252
H58   H     H_    0.086314 0.612329 0.879264 0.147173
H59   H     H_    0.137792 0.504556 0.123473 0.137432
H60   H     H_    0.137803 0.504699 0.875951 0.137424
H61   H     H_    0.587783 0.111184 0.120778 0.144202
H62   H     H_    0.587572 0.111262 0.879313 0.146886
H63   H     H_    0.637841 0.002842 0.123477 0.137416
H64   H     H_    0.637855 0.003017 0.875925 0.137453
N1    N     N_3   0.001260 0.500000 0.143650 -0.116429
N2    N     N_3   0.001260 0.500000 0.856350 -0.118295
N3    N     N_3   0.501260 0.000000 0.143650 -0.116423
N4    N     N_3   0.501260 1.000000 0.856350 -0.118251
O1    O     O_R   0.091250 0.408820 0.620260 -0.594789
O2    O     O_R   0.091250 0.408820 0.379740 -0.596094
O3    O     O_R   0.091250 0.591180 0.620260 -0.594707
O4    O     O_R   0.091250 0.591180 0.379740 -0.597470
O5    O     O_R   0.591250 0.908820 0.620260 -0.594787
O6    O     O_R   0.591250 0.908820 0.379740 -0.596052
O7    O     O_R   0.591250 0.091180 0.620260 -0.594704
O8    O     O_R   0.591250 0.091180 0.379740 -0.597382
O9    O     O_R   0.908940 0.408800 0.620260 -0.593837
O10   O     O_R   0.908940 0.408800 0.379740 -0.594997
O11   O     O_R   0.908940 0.591200 0.620260 -0.594147
O12   O     O_R   0.908940 0.591200 0.379740 -0.596880
O13   O     O_R   0.408940 0.908800 0.620260 -0.593871
O14   O     O_R   0.408940 0.908800 0.379740 -0.595022
O15   O     O_R   0.408940 0.091200 0.620260 -0.594262
O16   O     O_R   0.408940 0.091200 0.379740 -0.596864
C53   C     C_1   0.896613 0.210000 0.684960 0.225481
N5    N     N_1   0.960967 0.176648 0.715995 -0.308534
C54   C     C_1   0.912651 0.193123 0.364408 0.226830
N6    N     N_1   0.978156 0.157230 0.355763 -0.310024
C55   C     C_1   0.893826 0.786618 0.692286 0.227519
N7    N     N_1   0.957868 0.819094 0.727297 -0.305126
C56   C     C_1   0.913721 0.809901 0.374057 0.229090
N8    N     N_1   0.978788 0.847025 0.370515 -0.307912
C57   C     C_1   0.396899 0.709782 0.684383 0.225527
N9    N     N_1   0.461308 0.676438 0.715126 -0.308623
C58   C     C_1   0.412527 0.693369 0.363612 0.226854
N10   N     N_1   0.478057 0.657557 0.354578 -0.310171
C59   C     C_1   0.394212 0.287101 0.691269 0.227386
N11   N     N_1   0.458306 0.319704 0.725714 -0.305185
C60   C     C_1   0.413573 0.309455 0.372673 0.229095
N12   N     N_1   0.478714 0.346401 0.368395 -0.308127

loop_
_geom_bond_atom_site_label_1
_geom_bond_atom_site_label_2
_ccdc_geom_bond_type
C16   C28   S    
C41   H33   S    
Cu3   Cu4   S    
C31   H29   S    
C20   C60   S    
C29   C33   S    
C3    O6    A    
C51   N3    S    
C7    H61   S    
C56   N8    T    
Cu1   O11   S    
C52   H56   S    
C13   C25   S    
C14   C33   S    
C55   N7    T    
C8    H62   S    
C7    C8    S    
C4    O8    A    
C45   C46   S    
C29   H25   S    
Cu2   O2    S    
C26   H22   S    
Cu3   O15   S    
C16   C56   S    
C25   H21   S    
C32   C36   S    
C11   O14   A    
C1    O1    A    
C38   C42   S    
C27   H23   S    
C19   C36   S    
C37   C41   S    
C49   H45   S    
C5    C6    S    
Cu4   O16   S    
C26   C39   S    
C47   N1    S    
C13   H1    S    
C28   C40   S    
C51   H47   S    
C54   N6    T    
C32   H32   S    
C21   H17   S    
C50   H54   S    
C43   H38   S    
C47   H43   S    
C42   H35   S    
C16   H4    S    
C23   H11   S    
C30   H27   S    
C6    H58   S    
Cu1   O3    S    
C17   H5    S    
Cu3   N4    S    
C21   H9    S    
C22   H10   S    
C20   C24   S    
C19   H7    S    
Cu3   O5    S    
C24   C38   S    
C58   N10   T    
C12   O16   A    
C22   C37   S    
C13   C53   S    
C12   C36   S    
C18   C35   S    
C15   C34   S    
C16   C34   S    
C2    O3    A    
C41   H34   S    
C46   H42   S    
C31   H30   S    
C18   C22   S    
C5    H59   S    
C9    C33   S    
C30   C44   S    
C28   H16   S    
C14   H2    S    
C45   H49   S    
C4    O7    A    
C48   H44   S    
C30   C34   S    
C51   C52   S    
Cu4   N3    S    
C7    H63   S    
C22   H18   S    
Cu1   O9    S    
C1    O2    A    
C23   H19   S    
C15   C55   S    
C8    N4    S    
C39   C43   S    
C45   N1    S    
Cu1   Cu2   S    
C32   H31   S    
Cu2   O4    S    
C17   C21   S    
C20   H8    S    
C19   C23   S    
C13   C33   S    
C44   H40   S    
Cu4   O14   S    
C15   C27   S    
C47   C48   S    
C4    C39   S    
C27   C40   S    
C10   O12   A    
Cu2   O12   S    
C12   O15   A    
C50   N4    S    
C10   C34   S    
C14   C26   S    
C6    H60   S    
Cu4   O8    S    
Cu1   O1    S    
C1    C38   S    
C29   C43   S    
Cu2   N1    S    
C3    C40   S    
C50   H46   S    
Cu3   O7    S    
C19   C59   S    
C31   C35   S    
C25   H13   S    
C6    N2    S    
C18   C58   S    
C27   H15   S    
C8    H64   S    
C49   H53   S    
C9    O9    A    
C14   C54   S    
C52   H48   S    
C5    N1    S    
C51   H55   S    
C31   C41   S    
C5    H57   S    
C3    O5    A    
C15   H3    S    
C17   C57   S    
C7    N3    S    
C23   C38   S    
C47   H51   S    
Cu3   O13   S    
Cu1   N2    S    
C11   C35   S    
C11   O13   A    
C10   O11   A    
C44   H39   S    
C45   H41   S    
C57   N9    T    
C9    O10   A    
C48   N2    S    
C52   N4    S    
C2    C37   S    
C48   H52   S    
C26   H14   S    
C46   H50   S    
C43   H37   S    
C42   H36   S    
C30   H28   S    
C28   H24   S    
Cu4   O6    S    
C24   H12   S    
C24   H20   S    
C20   C36   S    
C40   C44   S    
C21   C37   S    
C29   H26   S    
C49   N3    S    
C49   C50   S    
C60   N12   T    
C32   C42   S    
C46   N2    S    
C18   H6    S    
C17   C35   S    
C59   N11   T    
C53   N5    T    
C25   C39   S    
C2    O4    A    
Cu2   O10   S    
