data_mof_unit_65810.cif
_audit_creation_date              2012-12-10T18:38:43-0500
_audit_creation_method            fapswitch 2.2
_symmetry_space_group_name_H-M    P1
_symmetry_Int_Tables_number       1
_space_group_crystal_system       triclinic
_cell_length_a                    25.595651
_cell_length_b                    25.593128
_cell_length_c                    43.063007
_cell_angle_alpha                 89.996317
_cell_angle_beta                  90.001194
_cell_angle_gamma                 90.00316
_cell_volume                      28209.4032712

loop_
_atom_site_label
_atom_site_type_symbol
_atom_type_description
_atom_site_fract_x
_atom_site_fract_y
_atom_site_fract_z
_atom_type_partial_charge
C1    C     C_R   0.000001 0.500002 0.665678 0.804668
C2    C     C_R   0.500000 0.000001 0.334321 0.805030
C3    C     C_R   0.999999 0.499999 0.334322 0.805283
C4    C     C_R   0.500000 0.000000 0.665679 0.806245
C5    C     C_R   0.500001 0.000001 0.165678 0.804882
C6    C     C_R   0.000000 0.500000 0.834321 0.803687
C7    C     C_R   0.500000 0.999999 0.834322 0.802419
C8    C     C_R   1.000000 0.500001 0.165679 0.804861
C9    C     C_R   0.952690 0.499921 0.917517 -0.135624
C10   C     C_R   0.499949 0.047321 0.082480 -0.131234
C11   C     C_R   0.047314 0.500100 0.917518 -0.134007
C12   C     C_R   0.500076 0.952688 0.082484 -0.133696
C13   C     C_R   0.047313 0.499962 0.082483 -0.131199
C14   C     C_R   0.500072 0.047315 0.917515 -0.131538
C15   C     C_R   0.952689 0.500075 0.082482 -0.134138
C16   C     C_R   0.499945 0.952682 0.917520 -0.135264
C17   C     C_R   0.452688 0.999950 0.417517 -0.131204
C18   C     C_R   0.999937 0.547324 0.582481 -0.129726
C19   C     C_R   0.547312 0.000070 0.417518 -0.132827
C20   C     C_R   0.000079 0.452691 0.582483 -0.132938
C21   C     C_R   0.547311 0.999924 0.582483 -0.131560
C22   C     C_R   0.000059 0.547318 0.417515 -0.130741
C23   C     C_R   0.452688 0.000088 0.582482 -0.132619
C24   C     C_R   0.999930 0.452685 0.417520 -0.132848
C25   C     C_R   0.000002 0.500013 0.934094 0.068363
C26   C     C_R   0.500014 0.000005 0.065906 0.066532
C27   C     C_R   0.000002 0.500020 0.065906 0.066590
C28   C     C_R   0.500010 0.999999 0.934094 0.066514
C29   C     C_R   0.500000 0.000011 0.434094 0.066528
C30   C     C_R   0.000008 0.500008 0.565906 0.065493
C31   C     C_R   0.500000 0.000007 0.565906 0.066646
C32   C     C_R   0.999995 0.500003 0.434094 0.066521
C33   C     C_R   0.000001 0.500004 0.868587 -0.019559
C34   C     C_R   0.500005 0.000004 0.131413 -0.021597
C35   C     C_R   0.000000 0.500008 0.131413 -0.021445
C36   C     C_R   0.500003 0.999998 0.868587 -0.021844
C37   C     C_R   0.500000 0.000005 0.368587 -0.021565
C38   C     C_R   0.000005 0.500005 0.631413 -0.023049
C39   C     C_R   0.499999 0.000002 0.631413 -0.021632
C40   C     C_R   0.999996 0.499999 0.368587 -0.021578
C41   C     C_R   0.500000 0.000009 0.531558 0.303833
C42   C     C_R   0.999998 0.500004 0.468442 0.303824
C43   C     C_R   0.500000 0.000012 0.468442 0.303869
C44   C     C_R   0.000005 0.500007 0.531558 0.304362
C45   C     C_R   0.000002 0.500022 0.031558 0.303722
C46   C     C_R   0.500013 0.000001 0.968442 0.303351
C47   C     C_R   0.000002 0.500017 0.968442 0.302583
C48   C     C_R   0.500015 0.000004 0.031558 0.303561
C49   C     C_R   0.900447 0.400482 0.749993 0.841194
C50   C     C_R   0.400481 0.099554 0.250008 0.840670
C51   C     C_R   0.099551 0.599521 0.749990 0.838927
C52   C     C_R   0.599518 0.900446 0.250008 0.840942
C53   C     C_R   0.099552 0.400480 0.250009 0.840826
C54   C     C_R   0.599518 0.099553 0.749992 0.838464
C55   C     C_R   0.900447 0.599520 0.250010 0.841141
C56   C     C_R   0.400482 0.900445 0.749993 0.840493
C57   C     C_R   0.400448 0.900481 0.249992 0.840659
C58   C     C_R   0.900494 0.599552 0.750002 0.831060
C59   C     C_R   0.599552 0.099520 0.249989 0.840858
C60   C     C_R   0.099518 0.400445 0.750008 0.840769
C61   C     C_R   0.599539 0.900481 0.750013 0.830878
C62   C     C_R   0.099519 0.599551 0.249991 0.840770
C63   C     C_R   0.400447 0.099519 0.750009 0.840362
C64   C     C_R   0.900483 0.400445 0.249993 0.841042
C65   C     C_3   0.810843 0.768949 0.747790 -0.230356
C66   C     C_3   0.766121 0.190051 0.260265 -0.289143
C67   C     C_3   0.189323 0.231876 0.745643 -0.248798
C68   C     C_3   0.232456 0.810117 0.257181 -0.250503
C69   C     C_3   0.190704 0.765488 0.261841 -0.289119
C70   C     C_3   0.233476 0.189653 0.740895 -0.288667
C71   C     C_3   0.810478 0.232074 0.255550 -0.250361
C72   C     C_3   0.766558 0.811054 0.743223 -0.378060
C73   C     C_3   0.310445 0.266643 0.241264 -0.289985
C74   C     C_3   0.265852 0.690319 0.760953 -0.289031
C75   C     C_3   0.689715 0.732270 0.243489 -0.250667
C76   C     C_3   0.731605 0.310965 0.749587 -0.250520
C77   C     C_3   0.688573 0.267619 0.754404 -0.291054
C78   C     C_3   0.734231 0.690410 0.238804 -0.288641
C79   C     C_3   0.310328 0.732224 0.756261 -0.253792
C80   C     C_3   0.268155 0.310728 0.246024 -0.251855
C81   C     C_3   0.753605 0.709130 0.779485 -0.376867
C82   C     C_3   0.719240 0.238205 0.217577 -0.243728
C83   C     C_3   0.244405 0.288219 0.780634 -0.285953
C84   C     C_3   0.285056 0.758759 0.218345 -0.288977
C85   C     C_3   0.236289 0.721148 0.217246 -0.245558
C86   C     C_3   0.282147 0.239584 0.782127 -0.244179
C87   C     C_3   0.756924 0.286901 0.218907 -0.285814
C88   C     C_3   0.715304 0.757227 0.781621 -0.223902
C89   C     C_3   0.259969 0.217396 0.282020 -0.245930
C90   C     C_3   0.220064 0.737379 0.717424 -0.245618
C91   C     C_3   0.741987 0.785801 0.281438 -0.286044
C92   C     C_3   0.793266 0.250548 0.721571 -0.287961
C93   C     C_3   0.744935 0.212498 0.719448 -0.242265
C94   C     C_3   0.779623 0.737061 0.282632 -0.243748
C95   C     C_3   0.257715 0.786109 0.718654 -0.285085
C96   C     C_3   0.211352 0.255155 0.280478 -0.289110
C97   C     C_1   0.638630 0.860631 0.749744 -0.057732
C98   C     C_1   0.860706 0.361253 0.250284 -0.087806
C99   C     C_1   0.361272 0.139314 0.749730 -0.087080
C100  C     C_1   0.139324 0.638716 0.250269 -0.085160
C101  C     C_1   0.361270 0.860690 0.250282 -0.085974
C102  C     C_1   0.139292 0.361250 0.749716 -0.088607
C103  C     C_1   0.638722 0.139318 0.250266 -0.087002
C104  C     C_1   0.860795 0.638795 0.749680 -0.057073
C105  C     C_1   0.138743 0.360700 0.249718 -0.085719
C106  C     C_1   0.360700 0.861259 0.750285 -0.084803
C107  C     C_1   0.861276 0.639318 0.249735 -0.087156
C108  C     C_1   0.639299 0.138742 0.750280 -0.087893
C109  C     C_1   0.861235 0.360725 0.750284 -0.087351
C110  C     C_1   0.639298 0.861257 0.249719 -0.087291
C111  C     C_1   0.138717 0.639323 0.750266 -0.084903
C112  C     C_1   0.360686 0.138729 0.249723 -0.085473
C113  C     C_3   0.786036 0.712165 0.748325 -0.011138
C114  C     C_3   0.711616 0.214603 0.251238 -0.105810
C115  C     C_3   0.214393 0.288174 0.748607 -0.104322
C116  C     C_3   0.288297 0.785484 0.251328 -0.104435
C117  C     C_3   0.214668 0.711550 0.251196 -0.106052
C118  C     C_3   0.288342 0.214563 0.748728 -0.105661
C119  C     C_3   0.785562 0.288219 0.251366 -0.104561
C120  C     C_3   0.711318 0.785187 0.748836 -0.012200
C121  C     C_3   0.285442 0.211662 0.248713 -0.105294
C122  C     C_3   0.211585 0.714633 0.751220 -0.104736
C123  C     C_3   0.714473 0.788254 0.248660 -0.104706
C124  C     C_3   0.787984 0.285799 0.751489 -0.103831
C125  C     C_3   0.714390 0.211829 0.751393 -0.104237
C126  C     C_3   0.788411 0.714632 0.248791 -0.105779
C127  C     C_3   0.285527 0.788253 0.751351 -0.104443
C128  C     C_3   0.211828 0.285609 0.248598 -0.103931
C129  C     C_3   0.699781 0.743516 0.722420 0.574442
C130  C     C_3   0.744494 0.299324 0.278170 0.590526
C131  C     C_3   0.302176 0.258374 0.723981 0.590206
C132  C     C_3   0.260862 0.695314 0.273801 0.588681
C133  C     C_3   0.300934 0.742872 0.277023 0.588442
C134  C     C_3   0.254305 0.298129 0.721036 0.590611
C135  C     C_3   0.696749 0.259442 0.275104 0.590299
C136  C     C_3   0.748228 0.704442 0.719476 0.574159
C137  C     C_3   0.202256 0.246072 0.220788 0.588775
C138  C     C_3   0.243784 0.800032 0.777681 0.590918
C139  C     C_3   0.804091 0.760289 0.225664 0.590743
C140  C     C_3   0.753740 0.202445 0.779318 0.590479
C141  C     C_3   0.793043 0.250772 0.781748 0.590997
C142  C     C_3   0.756458 0.800280 0.222504 0.590740
C143  C     C_3   0.196118 0.760071 0.774545 0.591099
C144  C     C_3   0.241974 0.198163 0.223691 0.588811
C145  C     C_1   0.671262 0.826808 0.749448 0.067657
C146  C     C_1   0.827088 0.328413 0.250696 -0.031118
C147  C     C_1   0.328484 0.172984 0.749358 -0.031565
C148  C     C_1   0.173026 0.671471 0.250617 -0.031579
C149  C     C_1   0.328454 0.827048 0.250683 -0.031329
C150  C     C_1   0.172895 0.328396 0.749297 -0.031406
C151  C     C_1   0.671499 0.173000 0.250628 -0.031373
C152  C     C_1   0.827374 0.671828 0.749136 0.067824
C153  C     C_1   0.171597 0.327098 0.249295 -0.031561
C154  C     C_1   0.327071 0.828430 0.750692 -0.030709
C155  C     C_1   0.828508 0.673008 0.249382 -0.031073
C156  C     C_1   0.672920 0.171579 0.750688 -0.031913
C157  C     C_1   0.828324 0.327178 0.750732 -0.031613
C158  C     C_1   0.672926 0.828427 0.249315 -0.030796
C159  C     C_1   0.171484 0.673014 0.750622 -0.031241
C160  C     C_1   0.327016 0.171516 0.249347 -0.031911
C161  C     C_R   0.952699 0.499916 0.885105 -0.161709
C162  C     C_R   0.499944 0.047312 0.114893 -0.156139
C163  C     C_R   0.047304 0.500096 0.885106 -0.160965
C164  C     C_R   0.500072 0.952697 0.114895 -0.159982
C165  C     C_R   0.047303 0.499955 0.114895 -0.155637
C166  C     C_R   0.500069 0.047305 0.885104 -0.155898
C167  C     C_R   0.952698 0.500070 0.114894 -0.160518
C168  C     C_R   0.499941 0.952690 0.885108 -0.159780
C169  C     C_R   0.452697 0.999946 0.385105 -0.156480
C170  C     C_R   0.999935 0.547313 0.614893 -0.151778
C171  C     C_R   0.547303 0.000068 0.385106 -0.159753
C172  C     C_R   0.000078 0.452699 0.614895 -0.159432
C173  C     C_R   0.547302 0.999921 0.614895 -0.156485
C174  C     C_R   0.000060 0.547307 0.385103 -0.156545
C175  C     C_R   0.452697 0.000086 0.614894 -0.159487
C176  C     C_R   0.999930 0.452692 0.385108 -0.159483
H1    H     H_    0.772694 0.840411 0.762009 0.131241
H2    H     H_    0.829099 0.222536 0.232828 0.167200
H3    H     H_    0.225733 0.158806 0.758593 0.143688
H4    H     H_    0.158150 0.774953 0.245580 0.145068
H5    H     H_    0.221608 0.830058 0.235069 0.167612
H6    H     H_    0.171676 0.223306 0.768773 0.166158
H7    H     H_    0.774602 0.158467 0.243158 0.144729
H8    H     H_    0.826221 0.775574 0.771684 0.114947
H9    H     H_    0.276406 0.328058 0.269279 0.167316
H10   H     H_    0.329522 0.722112 0.733796 0.168305
H11   H     H_    0.725165 0.658241 0.255414 0.144976
H12   H     H_    0.660903 0.272192 0.734590 0.143468
H13   H     H_    0.727064 0.324590 0.725130 0.166080
H14   H     H_    0.670315 0.721947 0.265858 0.167716
H15   H     H_    0.274763 0.658307 0.744210 0.145002
H16   H     H_    0.341045 0.274147 0.259146 0.144700
H17   H     H_    0.781715 0.714053 0.799055 0.125283
H18   H     H_    0.740602 0.207754 0.204079 0.164240
H19   H     H_    0.214838 0.281742 0.799256 0.137514
H20   H     H_    0.276772 0.790145 0.201074 0.138691
H21   H     H_    0.205085 0.743272 0.204832 0.164993
H22   H     H_    0.261375 0.209720 0.796395 0.163769
H23   H     H_    0.787271 0.279650 0.200838 0.137902
H24   H     H_    0.735136 0.785850 0.797166 0.110563
H25   H     H_    0.289630 0.237976 0.296530 0.164554
H26   H     H_    0.241762 0.706593 0.704393 0.164775
H27   H     H_    0.711024 0.777929 0.299041 0.138387
H28   H     H_    0.790109 0.276804 0.700994 0.137562
H29   H     H_    0.717733 0.230617 0.702313 0.163241
H30   H     H_    0.757804 0.706152 0.295492 0.164677
H31   H     H_    0.288517 0.778404 0.700927 0.138552
H32   H     H_    0.217570 0.284467 0.299272 0.138522
H33   H     H_    0.915613 0.499841 0.872998 0.174779
H34   H     H_    0.499892 0.084401 0.126999 0.177684
H35   H     H_    0.084390 0.500167 0.872999 0.174682
H36   H     H_    0.500122 0.915607 0.127004 0.175680
H37   H     H_    0.084389 0.499907 0.127003 0.178415
H38   H     H_    0.500119 0.084395 0.872995 0.178456
H39   H     H_    0.915612 0.500115 0.127000 0.174663
H40   H     H_    0.499889 0.915601 0.873002 0.177801
H41   H     H_    0.415611 0.999896 0.372997 0.177938
H42   H     H_    0.999876 0.584402 0.627000 0.182017
H43   H     H_    0.584389 0.000117 0.372999 0.175167
H44   H     H_    0.000136 0.415608 0.627003 0.175699
H45   H     H_    0.584388 0.999853 0.627003 0.177416
H46   H     H_    0.000113 0.584396 0.372994 0.177249
H47   H     H_    0.415611 0.000152 0.627001 0.175324
H48   H     H_    0.999876 0.415602 0.373003 0.175728
H49   H     H_    0.915542 0.499850 0.929542 0.166500
H50   H     H_    0.499899 0.084474 0.070454 0.169115
H51   H     H_    0.084463 0.500174 0.929544 0.167425
H52   H     H_    0.500129 0.915536 0.070460 0.167442
H53   H     H_    0.084462 0.499918 0.070459 0.169228
H54   H     H_    0.500124 0.084468 0.929539 0.169323
H55   H     H_    0.915541 0.500124 0.070455 0.166934
H56   H     H_    0.499895 0.915530 0.929547 0.167342
H57   H     H_    0.415539 0.999902 0.429542 0.169123
H58   H     H_    0.999879 0.584477 0.570454 0.170626
H59   H     H_    0.584461 0.000121 0.429544 0.167773
H60   H     H_    0.000138 0.415539 0.570459 0.167726
H61   H     H_    0.584460 0.999859 0.570458 0.168741
H62   H     H_    0.000112 0.584471 0.429539 0.169218
H63   H     H_    0.415539 0.000155 0.570456 0.167880
H64   H     H_    0.999877 0.415533 0.429548 0.167819
N1    N     N_R   0.045612 0.500035 0.984547 -0.154282
N2    N     N_R   0.500014 0.954389 0.015456 -0.155474
N3    N     N_R   0.954393 0.500002 0.984545 -0.156095
N4    N     N_R   0.500016 0.045617 0.015451 -0.153212
N5    N     N_R   0.954393 0.500005 0.015454 -0.155815
N6    N     N_R   0.500013 0.954387 0.984548 -0.155699
N7    N     N_R   0.045612 0.500037 0.015455 -0.153694
N8    N     N_R   0.500015 0.045616 0.984543 -0.153208
N9    N     N_R   0.545609 0.000000 0.484546 -0.154070
N10   N     N_R   0.000007 0.454393 0.515456 -0.154553
N11   N     N_R   0.454390 0.000022 0.484545 -0.153514
N12   N     N_R   1.000000 0.545621 0.515452 -0.152204
N13   N     N_R   0.454390 0.000022 0.515454 -0.153854
N14   N     N_R   0.000003 0.454391 0.484548 -0.154522
N15   N     N_R   0.545609 0.999999 0.515455 -0.153793
N16   N     N_R   0.999997 0.545620 0.484544 -0.152555
O1    O     O_3   0.000000 0.500000 0.750000 -0.497617
O2    O     O_3   0.500000 0.000000 0.250000 -0.496204
O3    O     O_3   0.000000 0.500000 0.250000 -0.496132
O4    O     O_3   0.500000 0.000000 0.750000 -0.497810
O5    O     O_R   0.999970 0.543000 0.680690 -0.635294
O6    O     O_R   0.543000 0.000030 0.319310 -0.640150
O7    O     O_R   0.000030 0.457000 0.680690 -0.640517
O8    O     O_R   0.457000 0.999970 0.319310 -0.638288
O9    O     O_R   0.000030 0.543000 0.319310 -0.638719
O10   O     O_R   0.457000 0.000030 0.680690 -0.639891
O11   O     O_R   0.999970 0.457000 0.319310 -0.639757
O12   O     O_R   0.543000 0.999970 0.680690 -0.637696
O13   O     O_R   0.499970 0.043000 0.180690 -0.638347
O14   O     O_R   0.043000 0.500030 0.819310 -0.640189
O15   O     O_R   0.500030 0.957000 0.180690 -0.639996
O16   O     O_R   0.957000 0.499970 0.819310 -0.639647
O17   O     O_R   0.500030 0.043000 0.819310 -0.638507
O18   O     O_R   0.957000 0.500030 0.180690 -0.640530
O19   O     O_R   0.499970 0.957000 0.819310 -0.638688
O20   O     O_R   0.043000 0.499970 0.180690 -0.637920
O21   O     O_R   0.939500 0.396500 0.731830 -0.636963
O22   O     O_R   0.396500 0.060500 0.268170 -0.632821
O23   O     O_R   0.060500 0.603500 0.731830 -0.629237
O24   O     O_R   0.603500 0.939500 0.268170 -0.635397
O25   O     O_R   0.060500 0.396500 0.268170 -0.635335
O26   O     O_R   0.603500 0.060500 0.731830 -0.636970
O27   O     O_R   0.939500 0.603500 0.268170 -0.633039
O28   O     O_R   0.396500 0.939500 0.731830 -0.636635
O29   O     O_R   0.439500 0.896500 0.231830 -0.633546
O30   O     O_R   0.896500 0.560500 0.768170 -0.646565
O31   O     O_R   0.560500 0.103500 0.231830 -0.633568
O32   O     O_R   0.103500 0.439500 0.768170 -0.636093
O33   O     O_R   0.560500 0.896500 0.768170 -0.611907
O34   O     O_R   0.103500 0.560500 0.231830 -0.631342
O35   O     O_R   0.439500 0.103500 0.768170 -0.633816
O36   O     O_R   0.896500 0.439500 0.231830 -0.635832
O37   O     O_R   0.103450 0.560480 0.768170 -0.630755
O38   O     O_R   0.560480 0.896550 0.231830 -0.627010
O39   O     O_R   0.896550 0.439520 0.768170 -0.624808
O40   O     O_R   0.439520 0.103450 0.231830 -0.627824
O41   O     O_R   0.896550 0.560480 0.231830 -0.629388
O42   O     O_R   0.439520 0.896550 0.768170 -0.622967
O43   O     O_R   0.103450 0.439520 0.231830 -0.625607
O44   O     O_R   0.560480 0.103450 0.768170 -0.625038
O45   O     O_R   0.603450 0.060480 0.268170 -0.628674
O46   O     O_R   0.060480 0.396550 0.731830 -0.627363
O47   O     O_R   0.396550 0.939520 0.268170 -0.627552
O48   O     O_R   0.939520 0.603450 0.731830 -0.601871
O49   O     O_R   0.396550 0.060480 0.731830 -0.628377
O50   O     O_R   0.939520 0.396550 0.268170 -0.627010
O51   O     O_R   0.603450 0.939520 0.731830 -0.637037
O52   O     O_R   0.060480 0.603450 0.268170 -0.629456
Zn1   Zn    Zn3+2 0.938580 0.499980 0.775960 1.007472
Zn2   Zn    Zn3+2 0.499980 0.061420 0.224040 1.012595
Zn3   Zn    Zn3+2 0.061420 0.500020 0.775960 1.006521
Zn4   Zn    Zn3+2 0.500020 0.938580 0.224040 1.011815
Zn5   Zn    Zn3+2 0.061420 0.499980 0.224040 1.016124
Zn6   Zn    Zn3+2 0.500020 0.061420 0.775960 1.012231
Zn7   Zn    Zn3+2 0.938580 0.500020 0.224040 1.008100
Zn8   Zn    Zn3+2 0.499980 0.938580 0.775960 1.026292
Zn9   Zn    Zn3+2 0.438580 0.999980 0.275960 1.014056
Zn10  Zn    Zn3+2 0.999980 0.561420 0.724040 1.031214
Zn11  Zn    Zn3+2 0.561420 0.000020 0.275960 1.009017
Zn12  Zn    Zn3+2 0.000020 0.438580 0.724040 1.009231
Zn13  Zn    Zn3+2 0.561420 0.999980 0.724040 1.007643
Zn14  Zn    Zn3+2 0.000020 0.561420 0.275960 1.011923
Zn15  Zn    Zn3+2 0.438580 0.000020 0.724040 1.009151
Zn16  Zn    Zn3+2 0.999980 0.438580 0.275960 1.011118
C177  C     C_2   0.730796 0.655098 0.785608 0.511724
H65   H     H_    0.757141 0.623539 0.791791 0.073842
O53   O     O_2   0.684220 0.645592 0.783478 -0.450689
C178  C     C_2   0.670205 0.245126 0.198197 0.585608
H66   H     H_    0.631654 0.239737 0.208075 0.123298
O54   O     O_2   0.673702 0.255675 0.170617 -0.530481
C179  C     C_2   0.267031 0.341426 0.789010 0.616980
H67   H     H_    0.240415 0.372611 0.795445 0.053440
O55   O     O_2   0.313770 0.350737 0.788394 -0.453200
C180  C     C_2   0.337272 0.737110 0.207296 0.619611
H68   H     H_    0.367800 0.764384 0.200717 0.055560
O56   O     O_2   0.346538 0.690404 0.205919 -0.448656
C181  C     C_2   0.242036 0.673272 0.196737 0.586760
H69   H     H_    0.237195 0.634162 0.205921 0.125449
O57   O     O_2   0.250973 0.678383 0.169045 -0.528975
C182  C     C_2   0.331990 0.247309 0.800653 0.586217
H70   H     H_    0.370109 0.241490 0.790282 0.123428
O58   O     O_2   0.329667 0.259027 0.828109 -0.530106
C183  C     C_2   0.734682 0.339729 0.209397 0.616819
H71   H     H_    0.761575 0.370643 0.202900 0.053343
O59   O     O_2   0.687935 0.349045 0.209170 -0.453401
C184  C     C_2   0.665621 0.746930 0.800082 0.603451
H72   H     H_    0.668989 0.728820 0.822790 0.057285
O60   O     O_2   0.622332 0.759454 0.790844 -0.491424
C185  C     C_2   0.252001 0.167293 0.300267 0.587897
H73   H     H_    0.257970 0.129315 0.289740 0.125382
O61   O     O_2   0.239912 0.169237 0.327676 -0.528029
C186  C     C_2   0.171526 0.743803 0.697546 0.587966
H74   H     H_    0.132729 0.738661 0.707126 0.125967
O62   O     O_2   0.175723 0.753651 0.669910 -0.528466
C187  C     C_2   0.763891 0.838282 0.291860 0.617223
H75   H     H_    0.736776 0.868968 0.298405 0.053544
O63   O     O_2   0.810619 0.847579 0.292770 -0.453576
C188  C     C_2   0.847494 0.226891 0.717788 0.620324
H76   H     H_    0.879741 0.252449 0.711691 0.056435
O64   O     O_2   0.856412 0.180532 0.721729 -0.452377
C189  C     C_2   0.755481 0.159821 0.704533 0.584924
H77   H     H_    0.747742 0.123607 0.716721 0.121245
O65   O     O_2   0.771777 0.157570 0.677913 -0.530353
C190  C     C_2   0.827979 0.743298 0.302687 0.585548
H78   H     H_    0.866863 0.738249 0.293216 0.123117
O66   O     O_2   0.823530 0.752883 0.330341 -0.530042
C191  C     C_2   0.235722 0.838686 0.708475 0.616593
H79   H     H_    0.262780 0.869436 0.701943 0.053568
O67   O     O_2   0.188987 0.847990 0.707745 -0.454538
C192  C     C_2   0.158042 0.232406 0.288489 0.620182
H80   H     H_    0.126767 0.258931 0.294901 0.056174
O68   O     O_2   0.148751 0.185670 0.287605 -0.448064
Cl1   Cl    Cl    0.783996 0.713646 0.683869 -0.353082
Cl2   Cl    Cl    0.676894 0.232800 0.312116 -0.428814
Cl3   Cl    Cl    0.221003 0.292553 0.684303 -0.448660
Cl4   Cl    Cl    0.299141 0.772400 0.315009 -0.447870
Cl5   Cl    Cl    0.236391 0.673295 0.310910 -0.427131
Cl6   Cl    Cl    0.320454 0.230170 0.687093 -0.428725
Cl7   Cl    Cl    0.776220 0.295315 0.315464 -0.448676
Cl8   Cl    Cl    0.683852 0.774808 0.686018 -0.434761
Cl9   Cl    Cl    0.270679 0.180393 0.186853 -0.427712
Cl10  Cl    Cl    0.175324 0.734368 0.811610 -0.432352
Cl11  Cl    Cl    0.726025 0.797575 0.184790 -0.450403
Cl12  Cl    Cl    0.781487 0.290063 0.815800 -0.448956
Cl13  Cl    Cl    0.719378 0.190321 0.815245 -0.430263
Cl14  Cl    Cl    0.825222 0.734937 0.188584 -0.430391
Cl15  Cl    Cl    0.274560 0.796973 0.815287 -0.449620
Cl16  Cl    Cl    0.208324 0.279882 0.184245 -0.447498
Cl17  Cl    Cl    0.728133 0.637088 0.715533 -0.426920
Cl18  Cl    Cl    0.637314 0.291163 0.262910 -0.443740
Cl19  Cl    Cl    0.275199 0.365519 0.719792 -0.425807
Cl20  Cl    Cl    0.368281 0.722004 0.275115 -0.417635
Cl21  Cl    Cl    0.291800 0.636634 0.259743 -0.433176
Cl22  Cl    Cl    0.362103 0.290585 0.734796 -0.443871
Cl23  Cl    Cl    0.723581 0.366739 0.278087 -0.425668
Cl24  Cl    Cl    0.639552 0.709824 0.730632 -0.342733
Cl25  Cl    Cl    0.209632 0.138079 0.234063 -0.436650
Cl26  Cl    Cl    0.137002 0.791471 0.761537 -0.447196
Cl27  Cl    Cl    0.777355 0.867674 0.223664 -0.426443
Cl28  Cl    Cl    0.859771 0.230527 0.788227 -0.425575
Cl29  Cl    Cl    0.787297 0.141154 0.774089 -0.453464
Cl30  Cl    Cl    0.863090 0.791569 0.238963 -0.444292
Cl31  Cl    Cl    0.222883 0.867434 0.776807 -0.429590
Cl32  Cl    Cl    0.134895 0.225187 0.219122 -0.420127
C193  C     C_2   0.860005 0.778727 0.728745 0.614819
H81   H     H_    0.877255 0.817471 0.729133 0.071272
O69   O     O_2   0.881665 0.744563 0.713755 -0.489812
C194  C     C_2   0.764913 0.160676 0.291017 0.624340
H82   H     H_    0.743870 0.123913 0.292217 0.059730
O70   O     O_2   0.785992 0.177032 0.314497 -0.457338
C195  C     C_2   0.142264 0.226936 0.724406 0.594629
H83   H     H_    0.130147 0.258764 0.709465 0.120801
O71   O     O_2   0.116285 0.186910 0.724500 -0.512652
C196  C     C_2   0.229761 0.854938 0.280197 0.598862
H84   H     H_    0.263066 0.865589 0.294373 0.120839
O72   O     O_2   0.189849 0.880801 0.282465 -0.508077
C197  C     C_2   0.163145 0.762470 0.293136 0.624298
H85   H     H_    0.126448 0.741374 0.294654 0.060407
O73   O     O_2   0.180892 0.782146 0.316688 -0.456593
C198  C     C_2   0.233380 0.158986 0.710586 0.623998
H86   H     H_    0.254371 0.122176 0.709623 0.059495
O74   O     O_2   0.211308 0.174350 0.687192 -0.457352
C199  C     C_2   0.856616 0.228051 0.277555 0.597793
H87   H     H_    0.868106 0.260505 0.292190 0.120524
O75   O     O_2   0.882576 0.188044 0.278452 -0.508768
C200  C     C_2   0.768671 0.844364 0.713914 0.518227
H88   H     H_    0.747511 0.881108 0.713526 0.077064
O76   O     O_2   0.792604 0.831206 0.690692 -0.457646
C201  C     C_2   0.341519 0.267160 0.211104 0.625586
H89   H     H_    0.378343 0.246186 0.210216 0.060964
O77   O     O_2   0.326470 0.289553 0.187745 -0.455579
C202  C     C_2   0.263862 0.661727 0.791951 0.622753
H90   H     H_    0.242787 0.624996 0.793291 0.059170
O78   O     O_2   0.284343 0.678679 0.815467 -0.458086
C203  C     C_2   0.644346 0.729021 0.220882 0.599156
H91   H     H_    0.633359 0.761979 0.206509 0.120292
O79   O     O_2   0.618429 0.689058 0.219181 -0.508076
C204  C     C_2   0.723358 0.361340 0.767518 0.596093
H92   H     H_    0.752568 0.376068 0.783482 0.120906
O80   O     O_2   0.683689 0.386976 0.763500 -0.507211
C205  C     C_2   0.652961 0.272662 0.782579 0.627586
H93   H     H_    0.616065 0.251759 0.782592 0.061161
O81   O     O_2   0.664428 0.298632 0.805340 -0.455141
C206  C     C_2   0.736502 0.662110 0.207722 0.623445
H94   H     H_    0.757585 0.625391 0.206330 0.059238
O82   O     O_2   0.716237 0.679283 0.184194 -0.458407
C207  C     C_2   0.355903 0.728765 0.778710 0.604966
H95   H     H_    0.367022 0.761587 0.793155 0.121646
O83   O     O_2   0.381833 0.688788 0.780197 -0.504728
C208  C     C_2   0.273375 0.358083 0.225039 0.600050
H96   H     H_    0.241754 0.370402 0.210005 0.121541
O84   O     O_2   0.313389 0.384068 0.225452 -0.505212

loop_
_geom_bond_atom_site_label_1
_geom_bond_atom_site_label_2
_ccdc_geom_bond_type
C54   O26   A    
C66   C194  S    
C195  O71   D    
O3    Zn16  S    
C174  H46   S    
O36   Zn7   S    
C181  H69   S    
O52   Zn14  S    
C90   C95   S    
C198  H86   S    
C138  C143  S    
O4    Zn13  S    
C139  C142  S    
C96   H32   S    
C6    O14   A    
C42   N14   A    
C82   C87   S    
C36   C168  A    
C119  C130  S    
C83   C179  S    
O51   Zn13  S    
C117  C132  S    
C99   C147  T    
C118  C131  S    
C1    O7    A    
C2    O8    A    
O44   Zn6   S    
C20   H60   S    
C90   C186  S    
C134  Cl19  S    
C64   O50   A    
C24   H64   S    
O2    Zn9   S    
C48   N4    A    
C94   C126  S    
C10   C162  A    
N1    N7    A    
C55   O27   A    
O25   Zn16  S    
C97   C145  T    
C18   C170  A    
C89   C185  S    
O30   Zn1   S    
C139  Cl14  S    
C75   H14   S    
C140  C141  S    
O41   Zn7   S    
O2    Zn2   S    
C137  Cl16  S    
C116  C133  S    
C162  H34   S    
C91   C187  S    
C59   O31   A    
C60   O32   A    
O46   Zn12  S    
C8    C35   S    
C23   C31   A    
C33   C161  A    
C207  O83   D    
C67   H6    S    
C100  C148  T    
C133  Cl20  S    
C77   C205  S    
C15   C27   A    
C187  H75   S    
C52   C110  S    
C186  H74   S    
C51   O23   A    
C62   O34   A    
C85   C117  S    
C94   C190  S    
C8    O20   A    
C68   C116  S    
C39   C175  A    
C202  H90   S    
C20   C172  A    
C69   C197  S    
N9    N15   A    
O33   Zn8   S    
C21   C173  A    
C74   C79   S    
O3    Zn14  S    
C24   C176  A    
C54   O44   A    
C77   C125  S    
C79   C127  S    
O49   Zn15  S    
C93   C189  S    
C180  H68   S    
C65   C113  S    
O4    Zn15  S    
C18   H58   S    
C115  C134  S    
C60   O46   A    
C6    C33   S    
C71   C119  S    
O15   Zn4   S    
C104  C152  T    
C89   C96   S    
C46   N8    A    
C193  H81   S    
C91   C94   S    
C40   C174  A    
C2    O6    A    
C164  H36   S    
C76   C204  S    
O5    Zn10  S    
C49   O39   A    
C83   H19   S    
O7    Zn12  S    
C14   H54   S    
C81   C88   S    
C205  O81   D    
C81   H17   S    
C43   N11   A    
C83   C86   S    
C175  H47   S    
O20   Zn5   S    
O50   Zn16  S    
C107  C155  T    
C203  O79   D    
C21   H61   S    
C185  H73   S    
C94   H30   S    
C167  H39   S    
C138  Cl31  S    
C109  C157  T    
C192  H80   S    
C129  Cl8   S    
C20   C30   A    
C201  H89   S    
C119  C146  S    
C21   C31   A    
C28   C46   S    
C22   C32   A    
C117  C148  S    
C118  C147  S    
C33   C163  A    
C88   C184  S    
C34   C164  A    
C69   H4    S    
C37   C169  A    
C70   H3    S    
C78   C206  S    
C11   C25   A    
C41   N13   A    
C190  H78   S    
C135  Cl18  S    
C177  O53   D    
O16   Zn1   S    
C111  C159  T    
C86   C182  S    
C70   C198  S    
O34   Zn5   S    
C82   C178  S    
C14   C166  A    
C172  H44   S    
O8    Zn9   S    
C84   C116  S    
C95   C191  S    
C121  C144  S    
C15   C167  A    
C122  C143  S    
C60   C102  S    
C127  C154  S    
C36   C166  A    
C116  C149  S    
C197  O73   D    
C61   O51   A    
C125  C140  S    
C81   C177  S    
C126  C139  S    
C120  C129  S    
C76   C124  S    
C83   C115  S    
O28   Zn15  S    
C46   N6    A    
C48   N2    A    
O42   Zn8   S    
C40   C176  A    
C57   O29   A    
C142  Cl27  S    
C80   C128  S    
C136  Cl17  S    
O45   Zn11  S    
C12   C26   A    
C206  H94   S    
C85   C181  S    
O6    Zn11  S    
C188  O64   D    
C87   C119  S    
C144  Cl9   S    
C43   N9    A    
C184  O60   D    
C49   O21   A    
C72   C120  S    
C11   C163  A    
C9    C161  A    
C165  H37   S    
C187  O63   D    
C137  C144  S    
C136  Cl1   S    
C183  O59   D    
C1    O5    A    
C124  C141  S    
C58   C104  S    
C133  Cl4   S    
C80   C208  S    
O13   Zn2   S    
C58   O30   A    
C31   C41   S    
C15   H55   S    
O26   Zn13  S    
C178  H66   S    
C34   C162  A    
C92   H28   S    
C37   C171  A    
C38   C172  A    
C103  C151  T    
O19   Zn8   S    
C65   C72   S    
C57   C101  S    
C50   O22   A    
C54   C108  S    
C64   O36   A    
C67   C70   S    
C59   C103  S    
C168  H40   S    
C198  O74   D    
C84   H20   S    
C68   C196  S    
C202  O78   D    
C73   H16   S    
C74   H15   S    
C53   C105  S    
C134  Cl3   S    
C11   H51   S    
C141  Cl28  S    
O4    Zn6   S    
C77   H12   S    
C138  Cl15  S    
C9    H49   S    
C78   H11   S    
C90   H26   S    
C132  Cl21  S    
C171  H43   S    
C59   O45   A    
C65   H8    S    
O3    Zn7   S    
N10   N14   A    
C169  H41   S    
C66   H7    S    
C79   H10   S    
C17   C29   A    
C7    C36   S    
C208  O84   D    
C130  C135  S    
C87   H23   S    
C39   C173  A    
C131  C134  S    
C173  H45   S    
C9    C25   A    
C199  O75   D    
O11   Zn16  S    
C189  O65   D    
N2    N6    A    
C71   H2    S    
C67   C195  S    
C182  O58   D    
C132  Cl5   S    
C92   C124  S    
C12   H52   S    
C23   C175  A    
C200  H88   S    
C4    O10   A    
C96   C128  S    
C87   C183  S    
C204  H92   S    
O21   Zn12  S    
O29   Zn4   S    
C55   O41   A    
O23   Zn10  S    
C68   C69   S    
C106  C154  T    
C121  C160  S    
C186  O62   D    
C140  Cl29  S    
C122  C159  S    
C127  C138  S    
C88   C120  S    
C176  H48   S    
C25   C47   S    
O32   Zn3   S    
C110  C158  T    
C125  C156  S    
C26   C48   S    
C126  C155  S    
C27   C45   S    
C64   C98   S    
O14   Zn3   S    
C120  C145  S    
C131  Cl22  S    
C29   C43   S    
C73   C201  S    
C113  C152  S    
C30   C44   S    
C129  Cl24  S    
C114  C151  S    
C181  O57   D    
C38   C170  A    
C95   H31   S    
C68   H5    S    
C3    O11   A    
C207  H95   S    
C84   C85   S    
C45   N5    A    
O10   Zn15  S    
C141  Cl12  S    
C161  H33   S    
N4    N8    A    
C179  H67   S    
C12   C164  A    
C23   H63   S    
C13   C165  A    
C66   C71   S    
C108  C156  T    
C131  Cl6   S    
C124  C157  S    
O4    Zn8   S    
C86   C118  S    
C182  H70   S    
C53   O25   A    
C128  C153  S    
C102  C150  T    
C62   C100  S    
O3    Zn5   S    
C44   N10   A    
C74   C122  S    
C3    C40   S    
O24   Zn11  S    
O40   Zn2   S    
C196  H84   S    
C19   C29   A    
C75   C203  S    
O12   Zn13  S    
C41   N15   A    
C66   C114  S    
C61   C97   S    
C142  Cl11  S    
C19   H59   S    
C192  O68   D    
C17   H57   S    
C4    O12   A    
C5    O13   A    
C56   O28   A    
C88   H24   S    
O27   Zn14  S    
C79   C207  S    
O22   Zn9   S    
C47   N3    A    
C96   C192  S    
C89   C121  S    
C92   C188  S    
C123  C142  S    
C92   C93   S    
C190  O66   D    
C17   C169  A    
O31   Zn2   S    
C177  H65   S    
C93   C125  S    
C82   H18   S    
C13   H53   S    
O37   Zn3   S    
C95   C127  S    
C70   C118  S    
O38   Zn4   S    
C194  H82   S    
C81   C113  S    
C195  H83   S    
C32   C42   S    
C71   C199  S    
C57   O47   A    
C91   H27   S    
C22   H62   S    
C62   O52   A    
C16   C28   A    
C89   H25   S    
C183  H71   S    
C74   C202  S    
C3    O9    A    
C191  H79   S    
C196  O72   D    
C93   H29   S    
O1    Zn10  S    
C45   N7    A    
C24   C32   A    
C197  H85   S    
C205  H93   S    
O35   Zn6   S    
C75   C123  S    
C19   C171  A    
C7    O19   A    
C193  O69   D    
C180  O56   D    
N11   N13   A    
C140  Cl13  S    
C84   C180  S    
C206  O82   D    
C101  C149  T    
O1    Zn1   S    
C67   C115  S    
C63   O49   A    
O9    Zn14  S    
O48   Zn10  S    
C44   N12   A    
C132  C133  S    
N3    N5    A    
C113  C136  S    
C63   C99   S    
C80   H9    S    
C76   H13   S    
C143  Cl26  S    
O17   Zn6   S    
N12   N16   A    
C10   C26   A    
C208  H96   S    
C185  O61   D    
C130  Cl7   S    
C63   O35   A    
C90   C122  S    
C72   H1    S    
C22   C174  A    
C204  O80   D    
C201  O77   D    
C65   C193  S    
C5    O15   A    
C6    O16   A    
C76   C77   S    
C82   C114  S    
C178  O54   D    
C199  H87   S    
C47   N1    A    
C163  H35   S    
C98   C146  T    
C56   O42   A    
C105  C153  T    
C16   H56   S    
C55   C107  S    
C143  Cl10  S    
C128  C137  S    
C139  Cl30  S    
C129  C136  S    
C137  Cl32  S    
C35   C167  A    
C4    C39   S    
C42   N16   A    
C114  C135  S    
C56   C106  S    
C5    C34   S    
C50   C112  S    
C144  Cl25  S    
C179  O55   D    
C135  Cl2   S    
C166  H38   S    
C18   C30   A    
C1    C38   S    
C86   H22   S    
C53   O43   A    
O1    Zn12  S    
O2    Zn11  S    
C49   C109  S    
C85   H21   S    
C51   C111  S    
C194  O70   D    
C7    O17   A    
O47   Zn9   S    
C123  C158  S    
C189  H77   S    
C73   C121  S    
C52   O24   A    
C52   O38   A    
O1    Zn3   S    
O2    Zn4   S    
C2    C37   S    
C184  H72   S    
O39   Zn1   S    
C200  O76   D    
C16   C168  A    
C61   O33   A    
C130  Cl23  S    
C115  C150  S    
C69   C117  S    
C35   C165  A    
C73   C80   S    
C191  O67   D    
C50   O40   A    
C188  H76   S    
C75   C78   S    
C58   O48   A    
C51   O37   A    
O43   Zn5   S    
C203  H91   S    
C112  C160  T    
O18   Zn7   S    
C10   H50   S    
C13   C27   A    
C91   C123  S    
C14   C28   A    
C8    O18   A    
C72   C200  S    
C170  H42   S    
C78   C126  S    
