data_mof_unit_30306.cif
_audit_creation_date              2012-12-11T17:23:12-0500
_audit_creation_method            fapswitch 2.2
_symmetry_space_group_name_H-M    P1
_symmetry_Int_Tables_number       1
_space_group_crystal_system       triclinic
_cell_length_a                    22.346687
_cell_length_b                    7.088621
_cell_length_c                    19.441106
_cell_angle_alpha                 90.001358
_cell_angle_beta                  99.574048
_cell_angle_gamma                 90.000239
_cell_volume                      3036.7166189

loop_
_atom_site_label
_atom_site_type_symbol
_atom_type_description
_atom_site_fract_x
_atom_site_fract_y
_atom_site_fract_z
_atom_type_partial_charge
O1    O     O_R   0.443980 0.494320 0.557430 -0.532134
O2    O     O_R   0.556020 0.994320 0.442570 -0.532152
O3    O     O_R   0.441210 0.822520 0.414610 -0.540019
O4    O     O_R   0.558790 0.322520 0.585390 -0.539989
C1    C     C_R   0.427340 0.654707 0.388209 0.695221
C2    C     C_R   0.572663 0.154712 0.611787 0.695219
O5    O     O_R   0.436920 0.823940 0.555180 -0.538409
O6    O     O_R   0.563080 0.323940 0.444820 -0.538404
O7    O     O_R   0.551700 0.995760 0.584140 -0.537657
O8    O     O_R   0.448300 0.495760 0.415860 -0.537651
C3    C     C_R   0.421664 0.655533 0.574941 0.714682
C4    C     C_R   0.578337 0.155531 0.425060 0.714630
O9    O     O_3   0.537660 0.661290 0.509340 -0.368382
O10   O     O_3   0.462340 0.161290 0.490660 -0.368392
V1    V     V_3+5 0.493010 0.935560 0.498270 1.412832
V2    V     V_3+5 0.506990 0.435560 0.501730 1.412880
H1    H     H_    0.733661 0.840754 0.330792 0.160752
H2    H     H_    0.266351 0.340734 0.669221 0.160722
C5    C     C_R   0.785460 0.934236 0.251976 -0.014792
C6    C     C_R   0.214553 0.434218 0.748037 -0.014782
C7    C     C_R   0.794648 0.085626 0.206674 0.050258
C8    C     C_R   0.205362 0.585613 0.793338 0.050265
C9    C     C_R   0.759445 0.249980 0.206746 -0.173132
C10   C     C_R   0.240562 0.749975 0.793265 -0.173131
H3    H     H_    0.765696 0.366443 0.172525 0.143361
H4    H     H_    0.234309 0.866443 0.827484 0.143382
C11   C     C_R   0.716201 0.267196 0.251038 -0.128127
C12   C     C_R   0.283805 0.767193 0.748972 -0.128175
H5    H     H_    0.689889 0.395859 0.250080 0.125380
H6    H     H_    0.310114 0.895861 0.749929 0.125365
C13   C     C_R   0.707122 0.120026 0.296200 0.104904
C14   C     C_R   0.292887 0.620018 0.703810 0.104934
C15   C     C_R   0.741570 0.954660 0.296214 -0.201628
C16   C     C_R   0.258441 0.454644 0.703798 -0.201604
C17   C     C_1   0.839800 0.078191 0.160314 0.026108
C18   C     C_1   0.160207 0.578179 0.839695 0.026100
C19   C     C_1   0.661956 0.136422 0.342006 -0.049522
C20   C     C_1   0.338050 0.636418 0.658002 -0.049496
C21   C     C_1   0.624012 0.146553 0.380032 -0.180847
C22   C     C_1   0.375991 0.646555 0.619972 -0.180859
C23   C     C_1   0.877278 0.071063 0.121594 -0.147708
C24   C     C_1   0.122726 0.571056 0.878412 -0.147715
C25   C     C_R   0.627759 0.055842 0.802923 -0.197186
C26   C     C_R   0.372238 0.555616 0.197088 -0.197172
H7    H     H_    0.607178 0.023858 0.848059 0.108289
H8    H     H_    0.392815 0.523515 0.151958 0.108264
C27   C     C_R   0.612748 0.139414 0.680420 -0.063227
C28   C     C_R   0.387256 0.639387 0.319575 -0.063224
C29   C     C_R   0.909641 0.118509 0.762445 -0.153081
C30   C     C_R   0.090360 0.618627 0.237551 -0.153075
C31   C     C_R   0.872859 0.149695 0.698569 -0.116270
C32   C     C_R   0.127145 0.649857 0.301423 -0.116269
C33   C     C_R   0.809903 0.145228 0.692704 -0.146470
C34   C     C_R   0.190101 0.645350 0.307288 -0.146472
C35   C     C_R   0.781550 0.107072 0.751196 0.080326
C36   C     C_R   0.218451 0.607108 0.248801 0.080328
C37   C     C_R   0.819753 0.069469 0.816330 0.033260
C38   C     C_R   0.180246 0.569452 0.183672 0.033262
C39   C     C_R   0.716801 0.105692 0.746956 0.055525
C40   C     C_R   0.283200 0.605682 0.253041 0.055517
C41   C     C_R   0.691573 0.058708 0.807466 0.069551
C42   C     C_R   0.308424 0.558576 0.192540 0.069557
C43   C     C_R   0.730065 0.013236 0.871301 0.073078
C44   C     C_R   0.269929 0.513079 0.128708 0.073077
C45   C     C_R   0.793316 0.024428 0.874729 -0.202643
C46   C     C_R   0.206680 0.524325 0.125279 -0.202652
C47   C     C_R   0.676062 0.147613 0.684177 -0.231956
C48   C     C_R   0.323942 0.647672 0.315813 -0.231965
C49   C     C_R   0.588438 0.092176 0.740473 0.082453
C50   C     C_R   0.411563 0.591995 0.259532 0.082460
C51   C     C_R   0.884228 0.078009 0.821749 -0.078732
C52   C     C_R   0.115771 0.578035 0.178252 -0.078742
H9    H     H_    0.691886 0.182569 0.636386 0.102808
H10   H     H_    0.308120 0.682739 0.363596 0.102822
H11   H     H_    0.958464 0.127458 0.765804 0.123474
H12   H     H_    0.041538 0.627614 0.234191 0.123491
H13   H     H_    0.784937 0.171738 0.641364 0.110683
H14   H     H_    0.215069 0.671892 0.358626 0.110682
H15   H     H_    0.893371 0.180015 0.653103 0.128656
H16   H     H_    0.106635 0.680244 0.346886 0.128658
H17   H     H_    0.822894 0.995223 0.923256 0.104131
H18   H     H_    0.177099 0.495090 0.076755 0.104150
O11   O     O_R   0.051730 0.724670 0.084120 -0.531988
O12   O     O_R   0.948270 0.224670 0.915880 -0.531987
O13   O     O_R   0.063080 0.393540 0.944820 -0.529957
O14   O     O_R   0.936920 0.893540 0.055180 -0.529955
C53   C     C_R   0.077869 0.562041 0.924476 0.704887
C54   C     C_R   0.922132 0.062044 0.075525 0.704885
O15   O     O_R   0.058800 0.395030 0.085390 -0.539095
O16   O     O_R   0.941200 0.895030 0.914610 -0.539095
O17   O     O_R   0.943980 0.223310 0.057440 -0.533070
O18   O     O_R   0.056020 0.723310 0.942560 -0.533066
C55   C     C_R   0.073352 0.564198 0.111060 0.681204
C56   C     C_R   0.926647 0.064193 0.888941 0.681205
O19   O     O_3   0.962360 0.556290 0.990650 -0.369522
O20   O     O_3   0.037640 0.056290 0.009350 -0.369522
V3    V     V_3+5 0.006980 0.281990 0.001730 1.450549
V4    V     V_3+5 0.993020 0.781990 0.998270 1.450558
C57   C     C_2   0.820254 0.753744 0.255074 0.721276
O21   O     O_2   0.851496 0.715691 0.210969 -0.568816
O22   O     O_R   0.816811 0.624991 0.308835 -0.668130
H19   H     H_    0.842279 0.507952 0.305576 0.303823
C58   C     C_2   0.179762 0.253721 0.744940 0.721259
O23   O     O_2   0.148550 0.215620 0.789070 -0.568834
O24   O     O_R   0.183176 0.125015 0.691155 -0.668118
H20   H     H_    0.157715 0.007960 0.694420 0.303821
C59   C     C_3   0.520583 0.078047 0.739781 -0.380534
C60   C     C_3   0.493074 0.272970 0.748173 -0.304945
C61   C     C_3   0.425342 0.258399 0.750807 -0.760245
H21   H     H_    0.400449 0.204631 0.700377 0.233179
H22   H     H_    0.417293 0.162530 0.793541 0.222227
H23   H     H_    0.407492 0.399952 0.760898 0.223029
H24   H     H_    0.516243 0.339014 0.797351 0.193154
H25   H     H_    0.499632 0.365468 0.703872 0.198795
H26   H     H_    0.497549 0.009951 0.691082 0.180393
H27   H     H_    0.511452 0.985500 0.783088 0.168881
C62   C     C_3   0.479417 0.577719 0.260234 -0.380563
C63   C     C_3   0.506997 0.772622 0.251989 -0.304959
C64   C     C_3   0.574717 0.757873 0.249308 -0.760286
H28   H     H_    0.599606 0.703760 0.299684 0.233178
H29   H     H_    0.582707 0.662220 0.206486 0.222225
H30   H     H_    0.592618 0.899431 0.239323 0.223063
H31   H     H_    0.483839 0.839002 0.202874 0.193159
H32   H     H_    0.500497 0.864899 0.296371 0.198832
H33   H     H_    0.502412 0.509326 0.308889 0.180417
H34   H     H_    0.488530 0.485367 0.216864 0.168894
C65   C     C_3   0.702632 0.950406 0.934757 -0.372071
C66   C     C_3   0.747425 0.888388 0.999514 -0.296770
C67   C     C_3   0.714056 0.819414 0.057236 -0.755072
H35   H     H_    0.686870 0.935640 0.074847 0.227618
H36   H     H_    0.683628 0.699653 0.038448 0.220230
H37   H     H_    0.747477 0.770181 0.102356 0.235771
H38   H     H_    0.776449 0.771612 0.985669 0.201571
H39   H     H_    0.776337 0.009995 0.019716 0.190618
H40   H     H_    0.674995 0.068512 0.950365 0.172405
H41   H     H_    0.672166 0.828533 0.918618 0.176738
C68   C     C_3   0.297357 0.450173 0.065256 -0.372079
C69   C     C_3   0.252559 0.388206 0.000495 -0.296750
C70   C     C_3   0.285923 0.319196 0.942772 -0.755077
H42   H     H_    0.313125 0.435391 0.925169 0.227607
H43   H     H_    0.316336 0.199400 0.961557 0.220231
H44   H     H_    0.252498 0.270004 0.897648 0.235817
H45   H     H_    0.223520 0.271462 0.014332 0.201573
H46   H     H_    0.223662 0.509845 0.980296 0.190623
H47   H     H_    0.325016 0.568227 0.049651 0.172417
H48   H     H_    0.327802 0.328256 0.081399 0.176737

loop_
_geom_bond_atom_site_label_1
_geom_bond_atom_site_label_2
_ccdc_geom_bond_type
C43   C45   A    
O22   H19   S    
C35   C39   A    
C11   H5    S    
C70   H43   S    
C18   C24   T    
O1    C3    A    
O2    C4    A    
C66   C67   S    
C2    O7    A    
C49   C59   S    
O19   V4    S    
O18   V4    S    
C51   C56   S    
O5    C3    A    
O12   V3    S    
C68   H47   S    
C5    C7    A    
C65   H40   S    
C30   H12   S    
C69   H45   S    
C61   H22   S    
C70   H44   S    
O14   C54   A    
C50   C62   S    
C48   H10   S    
O11   C55   A    
C60   C61   S    
C40   C42   A    
C60   H25   S    
C41   C43   A    
C30   C52   A    
C63   C64   S    
C27   C49   A    
C42   C44   A    
C39   C47   A    
C38   C46   A    
C32   C34   A    
C29   C31   A    
O11   V4    S    
O20   V4    S    
C30   C32   A    
C59   C60   S    
C13   C15   A    
C26   C50   A    
C47   H9    S    
C9    C11   A    
C62   H34   S    
C67   H37   S    
C6    C16   A    
C33   C35   A    
C25   C49   A    
C53   O18   A    
H1    C15   S    
C17   C23   T    
C27   C47   A    
C26   H8    S    
O16   C56   A    
C44   C68   S    
C64   H29   S    
C1    C28   S    
C34   C36   A    
C39   C41   A    
C2    C27   S    
O13   C53   A    
C11   C13   A    
C68   H48   S    
C12   C14   A    
C65   H41   S    
O4    C2    A    
C5    C15   A    
C61   H23   S    
C28   C50   A    
C6    C58   S    
C5    C57   S    
O12   C56   A    
C26   C42   A    
O17   V3    S    
C36   C40   A    
O15   V3    S    
C31   C33   A    
C44   C46   A    
C60   H24   S    
O4    V2    S    
C33   H13   S    
C66   H39   S    
C46   H18   S    
H2    C16   S    
C45   H17   S    
C57   O21   D    
C54   O17   A    
O6    C4    A    
O20   V3    S    
C29   H11   S    
C58   O24   S    
O1    V2    S    
C63   H32   S    
C37   C51   A    
O2    V1    S    
C25   H7    S    
C59   H26   S    
C52   C55   S    
C57   O22   S    
C6    C8    A    
C14   C20   S    
C7    C9    A    
C8    C10   A    
C65   C66   S    
O3    V1    S    
C25   C41   A    
C67   H35   S    
C68   C69   S    
C64   H30   S    
C23   C54   S    
C10   C12   A    
C37   C45   A    
O3    C1    A    
C64   H28   S    
O19   V3    S    
C7    C17   S    
C8    C18   S    
O24   H20   S    
C62   C63   S    
C28   C48   A    
C4    C21   S    
C35   C37   A    
O7    V1    S    
C12   H6    S    
C19   C21   T    
O8    V2    S    
C66   H38   S    
C20   C22   T    
C70   H42   S    
C10   H4    S    
C38   C52   A    
O5    V1    S    
C36   C38   A    
C63   H31   S    
C9    H3    S    
O15   C55   A    
C3    C22   S    
O14   V4    S    
C31   H15   S    
C59   H27   S    
O13   V3    S    
C69   C70   S    
C13   C19   S    
C1    O8    A    
C40   C48   A    
O6    V2    S    
C29   C51   A    
O9    V2    S    
C61   H21   S    
C58   O23   D    
O10   V1    S    
C69   H46   S    
C24   C53   S    
C67   H36   S    
C32   H16   S    
C62   H33   S    
O16   V4    S    
C43   C65   S    
C14   C16   A    
C34   H14   S    
