data_mof_unit_46476.cif
_audit_creation_date              2012-12-11T17:02:11-0500
_audit_creation_method            fapswitch 2.2
_symmetry_space_group_name_H-M    P1
_symmetry_Int_Tables_number       1
_space_group_crystal_system       triclinic
_cell_length_a                    21.806458
_cell_length_b                    7.131632
_cell_length_c                    15.154851
_cell_angle_alpha                 89.611665
_cell_angle_beta                  107.40351
_cell_angle_gamma                 90.057239
_cell_volume                      2248.87297844

loop_
_atom_site_label
_atom_site_type_symbol
_atom_type_description
_atom_site_fract_x
_atom_site_fract_y
_atom_site_fract_z
_atom_type_partial_charge
O1    O     O_R   0.585850 0.505770 0.002130 -0.530844
O2    O     O_R   0.414150 0.005770 0.997870 -0.545714
O3    O     O_R   0.467530 0.173560 0.861970 -0.548763
O4    O     O_R   0.532470 0.673560 0.138030 -0.551911
C1    C     C_R   0.457079 0.346018 0.825503 0.698794
C2    C     C_R   0.542589 0.844883 0.174569 0.701193
O5    O     O_R   0.588690 0.175900 0.993250 -0.500533
O6    O     O_R   0.411310 0.675900 0.006750 -0.502353
O7    O     O_R   0.536170 0.007950 0.130090 -0.540138
O8    O     O_R   0.463830 0.507950 0.869910 -0.533992
C3    C     C_R   0.614506 0.345378 0.996474 0.747742
C4    C     C_R   0.385151 0.845068 0.002515 0.732931
O9    O     O_3   0.482630 0.339970 0.044740 -0.377676
O10   O     O_3   0.517370 0.839970 0.955260 -0.355534
V1    V     V_3+5 0.503220 0.064200 0.991700 1.545567
V2    V     V_3+5 0.496780 0.564200 0.008300 1.548683
C5    C     C_R   0.292426 0.004334 0.040515 -0.214533
C6    C     C_R   0.707510 0.506869 0.959635 -0.261051
C7    C     C_R   0.315959 0.855797 0.999293 -0.242970
C8    C     C_R   0.683447 0.355994 0.999311 -0.232126
C9    C     C_R   0.269156 0.739189 0.939323 0.504691
C10   C     C_R   0.729626 0.234905 0.057835 0.502907
C11   C     C_R   0.202710 0.754687 0.932611 0.270788
C12   C     C_R   0.795910 0.248486 0.064249 0.259618
C13   C     C_R   0.181498 0.888189 0.986145 -0.263691
C14   C     C_R   0.818182 0.386579 0.013273 -0.252183
C15   C     C_R   0.226345 0.026381 0.028150 -0.111605
C16   C     C_R   0.773811 0.527191 0.972423 -0.121404
C17   C     C_3   0.228254 0.236263 0.009600 0.668054
C18   C     C_3   0.773392 0.734594 0.993854 0.635276
C19   C     C_3   0.301535 0.212894 0.032947 0.704145
C20   C     C_3   0.699740 0.715687 0.970139 0.756736
C21   C     C_R   0.921344 0.881178 0.726400 -0.287791
C22   C     C_R   0.077490 0.367374 0.274832 -0.297354
C23   C     C_R   0.566301 0.857661 0.276272 -0.082666
C24   C     C_R   0.432942 0.362832 0.723932 -0.096180
C25   C     C_R   0.928156 0.798738 0.574824 0.320646
C26   C     C_R   0.081057 0.201029 0.417438 0.280047
C27   C     C_R   0.957510 0.820564 0.670141 0.255747
C28   C     C_R   0.049190 0.243776 0.324265 0.286859
C29   C     C_R   0.855173 0.917527 0.689322 0.415704
C30   C     C_R   0.140524 0.434251 0.316447 0.419658
C31   C     C_R   0.822363 0.872547 0.595191 -0.132014
C32   C     C_R   0.176307 0.369096 0.406578 -0.120316
C33   C     C_R   0.861394 0.832921 0.536845 -0.132067
C34   C     C_R   0.141228 0.281759 0.460372 -0.131726
C35   C     C_R   0.753049 0.870996 0.555535 -0.048963
C36   C     C_R   0.244872 0.386593 0.446505 -0.092096
C37   C     C_R   0.726140 0.861410 0.457861 -0.049211
C38   C     C_R   0.272545 0.356836 0.543358 -0.054604
C39   C     C_R   0.767711 0.854253 0.403160 -0.263603
C40   C     C_R   0.231279 0.318948 0.597095 -0.239725
C41   C     C_R   0.833139 0.830772 0.440670 0.522496
C42   C     C_R   0.167118 0.277822 0.556974 0.530949
C43   C     C_R   0.709095 0.865918 0.608714 0.391891
C44   C     C_R   0.287407 0.407854 0.392298 0.489729
C45   C     C_R   0.643090 0.907217 0.567171 0.241963
C46   C     C_R   0.353313 0.441387 0.433819 0.227148
C47   C     C_R   0.617031 0.907462 0.469617 -0.066446
C48   C     C_R   0.380254 0.430939 0.531641 -0.136500
C49   C     C_R   0.658281 0.863859 0.416052 -0.035250
C50   C     C_R   0.340335 0.368749 0.584745 -0.001301
C51   C     C_R   0.550312 0.941143 0.424359 0.558175
C52   C     C_R   0.445884 0.474899 0.577927 0.509717
C53   C     C_R   0.526910 0.924476 0.326549 -0.294601
C54   C     C_R   0.470083 0.448725 0.674738 -0.218300
C55   C     C_R   0.630574 0.822749 0.321582 -0.193684
C56   C     C_R   0.369460 0.318151 0.678201 -0.180900
H1    H     H_    0.658467 0.763894 0.281465 0.088950
H2    H     H_    0.343272 0.245868 0.717405 0.086943
H3    H     H_    0.477933 0.960842 0.288578 0.111828
H4    H     H_    0.518033 0.495178 0.712165 0.123439
H5    H     H_    0.751071 0.867118 0.329444 0.128627
H6    H     H_    0.247202 0.319533 0.671176 0.122719
O11   O     O_R   0.036080 0.231270 0.130120 -0.526803
O12   O     O_R   0.963920 0.731270 0.869880 -0.538115
O13   O     O_R   0.911300 0.558970 0.006750 -0.544849
O14   O     O_R   0.088700 0.058970 0.993250 -0.549542
C57   C     C_R   0.885605 0.390873 0.005573 0.699932
C58   C     C_R   0.114335 0.891266 0.994382 0.719618
O15   O     O_R   0.032450 0.561140 0.138040 -0.546847
O16   O     O_R   0.967550 0.061140 0.861960 -0.558823
O17   O     O_R   0.085870 0.728910 0.002130 -0.527660
O18   O     O_R   0.914130 0.228910 0.997870 -0.533903
C59   C     C_R   0.046753 0.390711 0.174359 0.838083
C60   C     C_R   0.952230 0.893026 0.826348 0.854234
O19   O     O_3   0.017320 0.394650 0.955270 -0.401500
O20   O     O_3   0.982680 0.894650 0.044730 -0.394157
V3    V     V_3+5 0.996780 0.670490 0.008300 1.469315
V4    V     V_3+5 0.003220 0.170490 0.991700 1.450151
O21   O     O_3   0.287222 0.618869 0.880705 -0.512023
C61   C     C_3   0.284979 0.715050 0.798065 -0.205632
H7    H     H_    0.292154 0.612552 0.747461 0.153125
H8    H     H_    0.237734 0.784534 0.766147 0.140692
H9    H     H_    0.324711 0.818097 0.809921 0.090369
O22   O     O_3   0.711126 0.110658 0.115201 -0.507687
C62   C     C_3   0.710770 0.203906 0.196873 -0.196189
H10   H     H_    0.674154 0.316601 0.182644 0.076946
H11   H     H_    0.696236 0.103414 0.242597 0.150366
H12   H     H_    0.759181 0.259173 0.234808 0.132680
O23   O     O_3   0.602537 0.930353 0.621168 -0.602277
H13   H     H_    0.628179 0.950054 0.686403 0.333180
O24   O     O_3   0.390117 0.468420 0.374986 -0.611380
H14   H     H_    0.430077 0.394587 0.398981 0.321902
O25   O     O_3   0.963319 0.739556 0.517773 -0.627788
H15   H     H_    0.008161 0.712342 0.553914 0.312819
O26   O     O_3   0.056151 0.073770 0.466954 -0.629955
H16   H     H_    0.020089 0.003712 0.424845 0.348298
O27   O     O_3   0.022371 0.785114 0.708772 -0.577454
C63   C     C_3   0.056032 0.949514 0.700137 -0.274631
H17   H     H_    0.108311 0.923135 0.729380 0.187785
H18   H     H_    0.042310 0.067762 0.737731 0.119471
H19   H     H_    0.047066 0.990432 0.626688 0.235231
O28   O     O_3   0.991079 0.159169 0.280417 -0.555790
C64   C     C_3   0.941954 0.249318 0.307182 -0.280579
H20   H     H_    0.903595 0.146074 0.305398 0.231104
H21   H     H_    0.921228 0.361452 0.256327 0.117984
H22   H     H_    0.957383 0.308294 0.378433 0.145877
O29   O     O_3   0.824485 0.000179 0.746667 -0.501823
C65   C     C_3   0.819945 0.194253 0.728599 -0.163944
H23   H     H_    0.786512 0.224450 0.658628 0.105748
H24   H     H_    0.867841 0.258270 0.736127 0.110844
H25   H     H_    0.800321 0.260757 0.780289 0.146245
O30   O     O_3   0.165750 0.563227 0.268272 -0.510507
C66   C     C_3   0.159234 0.743820 0.301724 -0.151175
H26   H     H_    0.191297 0.761407 0.373618 0.117358
H27   H     H_    0.108490 0.775092 0.298200 0.128599
H28   H     H_    0.173662 0.848271 0.257200 0.140142
O31   O     O_3   0.727691 0.804909 0.699634 -0.516961
C67   C     C_3   0.737701 0.609504 0.701593 -0.194003
H29   H     H_    0.779371 0.573128 0.677152 0.120075
H30   H     H_    0.693993 0.533875 0.660318 0.095222
H31   H     H_    0.748936 0.560026 0.774098 0.163334
O32   O     O_3   0.266923 0.370799 0.298582 -0.486310
C68   C     C_3   0.269727 0.175005 0.286123 -0.064163
H32   H     H_    0.253732 0.090765 0.337479 0.044304
H33   H     H_    0.319124 0.133212 0.288196 0.135984
H34   H     H_    0.237088 0.138351 0.217208 0.183745
O33   O     O_3   0.511880 0.004430 0.477160 -0.529214
C69   C     C_3   0.445840 0.966085 0.437772 -0.154967
H35   H     H_    0.437063 0.821992 0.409356 0.202448
H36   H     H_    0.423657 0.070972 0.383496 0.090495
H37   H     H_    0.421777 0.978346 0.492455 0.165288
O34   O     O_3   0.482702 0.566178 0.530244 -0.545174
C70   C     C_3   0.544597 0.485879 0.550092 -0.220750
H38   H     H_    0.544099 0.330463 0.557098 0.175296
H39   H     H_    0.577455 0.548801 0.613418 0.165144
H40   H     H_    0.564139 0.518630 0.492076 0.157166
O35   O     O_3   0.159891 0.654921 0.863793 -0.626982
H41   H     H_    0.115449 0.695132 0.857444 0.305293
O36   O     O_3   0.837592 0.140443 0.130595 -0.629350
H42   H     H_    0.882185 0.164966 0.131274 0.303173
O37   O     O_3   0.208554 0.344243 0.073405 -0.623011
H43   H     H_    0.222890 0.474382 0.067443 0.324406
O38   O     O_3   0.794117 0.845814 0.931410 -0.621879
H44   H     H_    0.778884 0.974902 0.936478 0.311758
O39   O     O_3   0.203975 0.304824 0.917422 -0.554960
C71   C     C_3   0.138837 0.270130 0.875796 -0.100079
H45   H     H_    0.110295 0.334696 0.916059 0.200229
H46   H     H_    0.129850 0.120358 0.861526 0.080986
H47   H     H_    0.124465 0.338205 0.807091 0.176222
O40   O     O_3   0.798932 0.791298 0.087603 -0.556339
C72   C     C_3   0.865010 0.763086 0.125834 -0.080577
H48   H     H_    0.890709 0.828603 0.081788 0.205738
H49   H     H_    0.876444 0.614123 0.143356 0.065360
H50   H     H_    0.881262 0.837234 0.192627 0.188608
O41   O     O_3   0.334071 0.288086 0.119709 -0.630743
H51   H     H_    0.379397 0.245946 0.134369 0.294720
O42   O     O_3   0.666512 0.803387 0.885686 -0.636467
H52   H     H_    0.675663 0.736052 0.834016 0.294044
O43   O     O_3   0.329923 0.278842 0.964441 -0.516706
C73   C     C_3   0.307057 0.196821 0.875224 -0.063023
H53   H     H_    0.269051 0.089774 0.866257 0.076255
H54   H     H_    0.347453 0.133957 0.856320 0.097844
H55   H     H_    0.286874 0.307324 0.823970 0.188578
O44   O     O_3   0.671709 0.774397 0.039659 -0.495621
C74   C     C_3   0.694952 0.687804 0.128107 -0.070233
H56   H     H_    0.731131 0.576208 0.134872 0.067574
H57   H     H_    0.654119 0.629427 0.147978 0.098631
H58   H     H_    0.717824 0.794704 0.179389 0.184022
O45   O     O_3   0.870197 0.825761 0.381302 -0.532435
C75   C     C_3   0.866524 0.644485 0.344010 -0.198778
H59   H     H_    0.870385 0.531326 0.396603 0.133170
H60   H     H_    0.908122 0.629126 0.317376 0.153571
H61   H     H_    0.821618 0.627318 0.286002 0.114452
O46   O     O_3   0.129747 0.240097 0.614282 -0.554562
C76   C     C_3   0.092231 0.400309 0.616336 -0.219176
H62   H     H_    0.058310 0.366855 0.655945 0.156405
H63   H     H_    0.062354 0.442877 0.545941 0.142850
H64   H     H_    0.123099 0.519006 0.651067 0.164964

loop_
_geom_bond_atom_site_label_1
_geom_bond_atom_site_label_2
_ccdc_geom_bond_type
C68   H34   S    
C18   C20   S    
C20   O42   S    
C51   C53   A    
O23   H13   S    
C15   C17   S    
C13   C58   S    
O42   H52   S    
C72   H48   S    
O1    C3    A    
C69   H37   S    
O43   C73   S    
O2    C4    A    
C62   H12   S    
C2    O7    A    
O28   C64   S    
C30   O30   S    
C68   H32   S    
C35   C37   A    
O45   C75   S    
O14   V4    S    
O5    C3    A    
C20   O44   S    
O13   V3    S    
C21   C27   A    
C30   C32   A    
C22   C28   A    
C17   O37   S    
C72   H49   S    
C69   H36   S    
O40   C72   S    
C40   H6    S    
C70   H38   S    
C57   O18   A    
C24   C54   A    
C45   C47   A    
C23   C53   A    
C46   C48   A    
C64   H20   S    
C1    C24   S    
C2    C23   S    
C48   C50   A    
C26   O26   S    
C63   H17   S    
C76   H64   S    
O24   H14   S    
O11   V4    S    
C62   H11   S    
C75   H59   S    
O11   C59   A    
O39   C71   S    
C28   O28   S    
C73   H54   S    
C37   C39   A    
C22   C30   A    
C66   H28   S    
C38   C40   A    
O26   H16   S    
C44   C46   A    
C6    C8    A    
C71   H47   S    
C73   H55   S    
O12   V3    S    
O15   V3    S    
C64   H22   S    
C36   C38   A    
C11   O35   S    
O36   H42   S    
C33   C41   A    
O6    V2    S    
C68   H33   S    
C71   H46   S    
C29   C31   A    
O18   V4    S    
C58   O17   A    
C14   C16   A    
C70   H39   S    
C40   C42   A    
C62   H10   S    
C27   O27   S    
C75   H60   S    
O13   C57   A    
C9    C11   A    
O17   V3    S    
C54   H4    S    
C3    C8    S    
C47   C49   A    
C37   C49   A    
C65   H25   S    
C5    C15   A    
C72   H50   S    
C6    C16   A    
C69   H35   S    
O4    C2    A    
O41   H51   S    
C17   O39   S    
O5    V1    S    
C52   O34   S    
C64   H21   S    
O16   C60   A    
C61   H9    S    
C39   C41   A    
C75   H61   S    
C52   C54   A    
O4    V2    S    
C67   H30   S    
C21   C60   S    
C25   O25   S    
C12   O36   S    
C41   O45   S    
C25   C27   A    
C49   C55   A    
C23   C55   A    
O6    C4    A    
C74   H58   S    
O22   C62   S    
C34   C42   A    
C61   H8    S    
C65   H23   S    
O1    V2    S    
C29   O29   S    
O29   C65   S    
O2    V1    S    
C31   C33   A    
C63   H19   S    
C18   O38   S    
C19   O41   S    
C43   C45   A    
C66   H26   S    
C5    C19   S    
C10   C12   A    
O19   V4    S    
C67   H31   S    
C6    C20   S    
C8    C10   A    
C25   C33   A    
O12   C60   A    
O21   C61   S    
C70   H40   S    
O3    V1    S    
C73   H53   S    
C65   H24   S    
C35   C43   A    
O31   C67   S    
C9    O21   S    
C36   C44   A    
O44   C74   S    
C7    C9    A    
C10   O22   S    
C39   H5    S    
O20   V4    S    
O34   C70   S    
O3    C1    A    
C44   O32   S    
O33   C69   S    
C24   C56   A    
O32   C68   S    
C51   O33   S    
C13   C15   A    
C45   O23   S    
O25   H15   S    
C47   C51   A    
C14   C57   S    
O16   V4    S    
C50   C56   A    
C48   C52   A    
C21   C29   A    
C43   O31   S    
C67   H29   S    
O7    V1    S    
C1    O8    A    
C17   C19   S    
C53   H3    S    
O35   H41   S    
C26   C34   A    
C26   C28   A    
C12   C14   A    
C71   H45   S    
C19   O43   S    
C38   C50   A    
C4    C7    S    
C16   C18   S    
C61   H7    S    
C5    C7    A    
C74   H57   S    
O14   C58   A    
C11   C13   A    
C63   H18   S    
C76   H63   S    
C76   H62   S    
O20   V3    S    
C56   H2    S    
C74   H56   S    
C42   O46   S    
O9    V2    S    
O38   H44   S    
C66   H27   S    
O19   V3    S    
C18   O40   S    
O10   V1    S    
O8    V2    S    
C46   O24   S    
C55   H1    S    
O46   C76   S    
O27   C63   S    
C31   C35   A    
C22   C59   S    
C32   C34   A    
O15   C59   A    
C32   C36   A    
O30   C66   S    
O37   H43   S    
