data_mof_unit_10329.cif
_audit_creation_date              2012-12-10T17:47:45-0500
_audit_creation_method            fapswitch 2.2
_symmetry_space_group_name_H-M    P1
_symmetry_Int_Tables_number       1
_space_group_crystal_system       triclinic
_cell_length_a                    14.708021
_cell_length_b                    14.852066
_cell_length_c                    14.364354
_cell_angle_alpha                 76.571766
_cell_angle_beta                  102.782354
_cell_angle_gamma                 114.91381
_cell_volume                      2740.79117221

loop_
_atom_site_label
_atom_site_type_symbol
_atom_type_description
_atom_site_fract_x
_atom_site_fract_y
_atom_site_fract_z
_atom_type_partial_charge
C1    C     C_R   0.880317 0.312624 0.511472 0.803245
C2    C     C_R   0.119799 0.687596 0.484398 0.823381
C3    C     C_R   0.639056 0.082521 0.477154 0.054197
C4    C     C_R   0.359147 0.923758 0.458970 0.051194
C5    C     C_R   0.677825 0.011478 0.472135 -0.003170
C6    C     C_R   0.321572 0.997672 0.458121 -0.010400
C7    C     C_R   0.532302 0.054718 0.465915 0.013358
C8    C     C_R   0.465419 0.952846 0.460028 0.014088
C9    C     C_R   0.507312 0.883794 0.456227 -0.288069
C10   C     C_R   0.490645 0.126113 0.460455 -0.296164
C11   C     C_R   0.611611 0.912255 0.462501 0.433542
C12   C     C_R   0.387851 0.097765 0.461077 0.460379
C13   C     C_R   0.702246 0.641672 0.321927 -0.329427
C14   C     C_R   0.305085 0.374550 0.685797 -0.334304
C15   C     C_R   0.787805 0.619991 0.355504 0.044459
C16   C     C_R   0.214131 0.384114 0.646516 0.096967
C17   C     C_R   0.719839 0.519678 0.497680 0.010570
C18   C     C_R   0.281361 0.483710 0.503739 -0.004710
C19   C     C_R   0.630558 0.539365 0.467801 -0.024685
C20   C     C_R   0.375359 0.474201 0.538472 -0.020481
C21   C     C_R   0.622897 0.600826 0.377212 0.165373
C22   C     C_R   0.385924 0.418966 0.632116 0.150254
C23   C     C_R   0.000329 0.499736 0.668995 0.817565
C24   C     C_R   0.999600 0.500129 0.331024 0.788393
C25   C     C_R   0.549192 0.500177 0.523660 0.077792
C26   C     C_R   0.458772 0.517998 0.484770 0.067827
C27   C     C_R   0.455189 0.579637 0.394080 -0.233802
C28   C     C_R   0.556184 0.445876 0.617841 -0.272383
C29   C     C_R   0.536260 0.621030 0.342157 -0.141725
C30   C     C_R   0.476621 0.407659 0.671374 -0.218752
C31   C     C_1   0.000935 0.499475 0.771561 -0.200707
C32   C     C_1   0.998855 0.500062 0.228524 -0.211428
C33   C     C_1   0.000744 0.499440 0.856930 -0.009744
C34   C     C_1   0.998978 0.499862 0.143203 -0.015111
C35   C     C_1   0.000136 0.499514 0.957462 0.001927
C36   C     C_1   0.999548 0.499643 0.042702 0.000829
C37   C     C_R   0.813360 0.206894 0.503397 -0.145286
C38   C     C_R   0.187022 0.795231 0.471828 -0.155901
C39   C     C_R   0.782904 0.039971 0.479113 -0.252032
C40   C     C_R   0.218333 0.970282 0.460506 -0.248088
C41   C     C_R   0.850662 0.136978 0.493412 0.415169
C42   C     C_R   0.151115 0.870424 0.468222 0.431191
C43   C     C_R   0.708822 0.178518 0.496567 -0.288596
C44   C     C_R   0.289477 0.822684 0.464718 -0.291620
Cu1   Cu    Cu3+1 0.081740 0.475690 0.523180 0.936984
Cu2   Cu    Cu3+1 0.918260 0.524310 0.476820 0.933729
H1    H     H_    0.391163 0.598866 0.361317 0.130301
H2    H     H_    0.623319 0.433308 0.653480 0.138938
H3    H     H_    0.313606 0.762894 0.467861 0.167386
H4    H     H_    0.684089 0.232609 0.509448 0.165959
H5    H     H_    0.813579 0.987356 0.473148 0.182027
H6    H     H_    0.189686 0.026088 0.461771 0.182592
H7    H     H_    0.461444 0.806857 0.447051 0.153945
H8    H     H_    0.535621 0.205545 0.455526 0.154211
H9    H     H_    0.530557 0.668562 0.273162 0.141530
H10   H     H_    0.485482 0.366852 0.743591 0.151980
H11   H     H_    0.267570 0.527691 0.435500 0.125342
H12   H     H_    0.730151 0.469899 0.562875 0.121687
H13   H     H_    0.152180 0.351363 0.688744 0.139109
H14   H     H_    0.848556 0.650257 0.312013 0.124808
H15   H     H_    0.697774 0.689210 0.252740 0.146045
H16   H     H_    0.312458 0.333969 0.758281 0.138972
N1    N     N_R   0.795420 0.560790 0.441960 -0.170795
N2    N     N_R   0.204580 0.439210 0.558040 -0.181833
O1    O     O_R   0.977910 0.338120 0.530560 -0.539342
O2    O     O_R   0.022090 0.661880 0.469440 -0.558470
O3    O     O_R   0.839850 0.379180 0.491410 -0.585089
O4    O     O_R   0.160150 0.620820 0.508590 -0.582159
O5    O     O_R   0.069040 0.479460 0.643530 -0.568068
O6    O     O_R   0.930960 0.520540 0.356470 -0.566681
O7    O     O_R   0.930990 0.520530 0.604380 -0.561451
O8    O     O_R   0.069010 0.479470 0.395620 -0.573510
O9    O     O_3   0.648988 0.842084 0.458416 -0.619286
C45   C     C_3   0.662479 0.788312 0.552218 0.039933
H17   H     H_    0.596542 0.715159 0.559075 0.172454
H18   H     H_    0.668741 0.828255 0.611936 0.130800
C46   C     C_3   0.759564 0.769477 0.565539 -0.319273
H19   H     H_    0.757779 0.733303 0.505480 0.233763
H20   H     H_    0.826196 0.842075 0.563614 0.218295
C47   C     C_3   0.773069 0.703108 0.661583 -0.890068
H21   H     H_    0.781038 0.741148 0.722774 0.253620
H22   H     H_    0.842398 0.688546 0.667206 0.269428
H23   H     H_    0.707152 0.630097 0.666609 0.257183
O10   O     O_3   0.351223 0.168012 0.467040 -0.631665
C48   C     C_3   0.380367 0.193766 0.561378 0.041620
H24   H     H_    0.355269 0.254671 0.559898 0.193640
H25   H     H_    0.464179 0.224756 0.581146 0.147436
C49   C     C_3   0.329336 0.105627 0.638870 -0.372327
H26   H     H_    0.245728 0.080041 0.620936 0.227296
H27   H     H_    0.350694 0.041631 0.641609 0.220878
C50   C     C_3   0.361465 0.135451 0.739312 -0.902695
H28   H     H_    0.445257 0.165926 0.757362 0.252347
H29   H     H_    0.328766 0.068490 0.793692 0.260477
H30   H     H_    0.332993 0.192394 0.742884 0.255911
O11   O     O_3   0.055389 0.846748 0.488895 -0.605193
C51   C     C_3   0.986778 0.845783 0.402537 0.099692
H31   H     H_    0.912355 0.788207 0.419866 0.182609
H32   H     H_    0.005858 0.823483 0.342574 0.114712
C52   C     C_3   0.975445 0.946554 0.369354 -0.411396
H33   H     H_    0.965399 0.971768 0.432003 0.237046
H34   H     H_    0.044568 0.003732 0.339727 0.217057
C53   C     C_3   0.884050 0.937118 0.291183 -0.916319
H35   H     H_    0.890475 0.907803 0.229516 0.253868
H36   H     H_    0.880081 0.011809 0.263963 0.253389
H37   H     H_    0.813021 0.885513 0.321129 0.276751
O12   O     O_3   0.953453 0.159725 0.505309 -0.599425
C54   C     C_3   0.986820 0.193390 0.413781 0.056238
H38   H     H_    0.975326 0.263701 0.378429 0.149927
H39   H     H_    0.945232 0.135376 0.365861 0.131080
C55   C     C_3   0.099668 0.214719 0.427192 -0.294305
H40   H     H_    0.141693 0.270172 0.477408 0.239653
H41   H     H_    0.111602 0.144368 0.459878 0.210968
C56   C     C_3   0.142086 0.256057 0.331374 -0.903020
H42   H     H_    0.102265 0.201041 0.280312 0.251773
H43   H     H_    0.223932 0.270358 0.343969 0.285425
H44   H     H_    0.133178 0.327948 0.298849 0.256438

loop_
_geom_bond_atom_site_label_1
_geom_bond_atom_site_label_2
_ccdc_geom_bond_type
C44   H3    S    
C7    C10   A    
C39   H5    S    
C27   C29   A    
C15   H14   S    
C23   O5    A    
O11   C51   S    
C4    C8    A    
C24   O6    A    
C7    C8    A    
C39   C41   A    
C46   H19   S    
C25   C28   A    
C3    C43   A    
C26   C27   A    
C45   H18   S    
C19   C21   A    
Cu2   O2    S    
C3    C7    A    
C6    C12   A    
C33   C35   S    
C48   C49   S    
O12   C54   S    
C14   H16   S    
C51   C52   S    
C12   O10   S    
C53   H37   S    
O9    C45   S    
C55   H40   S    
C1    O3    A    
C35   C36   T    
C8    C9    A    
C45   C46   S    
C51   H32   S    
C1    O1    A    
C54   H38   S    
C31   C33   T    
C18   C20   A    
C1    C37   S    
C17   H12   S    
C56   H44   S    
C40   C42   A    
Cu1   O8    S    
C54   H39   S    
C47   H23   S    
C10   H8    S    
C46   H20   S    
C41   O12   S    
C48   H25   S    
Cu1   O5    S    
C42   O11   S    
C23   O7    A    
C6    C40   A    
O10   C48   S    
C47   H22   S    
C11   O9    S    
C50   H28   S    
C4    C44   A    
C3    C5    A    
C25   C26   A    
Cu1   Cu2   S    
C30   H10   S    
C16   H13   S    
C23   C31   S    
C37   C43   A    
C24   C32   S    
C38   C44   A    
C50   H29   S    
C2    C38   S    
C18   H11   S    
C52   H33   S    
C49   C50   S    
C51   H31   S    
Cu1   O4    S    
C13   C21   A    
C49   H26   S    
C53   H36   S    
C9    C11   A    
C55   C56   S    
Cu2   O7    S    
C10   C12   A    
C4    C6    A    
C52   H34   S    
C49   H27   S    
C13   C15   A    
Cu1   O1    S    
C54   C55   S    
C14   C16   A    
C9    H7    S    
C24   O8    A    
C56   H42   S    
C46   C47   S    
C27   H1    S    
C28   H2    S    
C22   C30   A    
C20   C22   A    
C47   H21   S    
C2    O2    A    
C48   H24   S    
C43   H4    S    
C5    C11   A    
C29   H9    S    
Cu1   N2    S    
C2    O4    A    
Cu2   N1    S    
C14   C22   A    
C5    C39   A    
Cu2   O3    S    
C20   C26   A    
C40   H6    S    
C17   N1    A    
C50   H30   S    
C18   N2    A    
C21   C29   A    
C28   C30   A    
C17   C19   A    
C34   C36   S    
C37   C41   A    
C53   H35   S    
C19   C25   A    
C55   H41   S    
Cu2   O6    S    
C38   C42   A    
C52   C53   S    
C13   H15   S    
C45   H17   S    
C15   N1    A    
C16   N2    A    
C32   C34   T    
C56   H43   S    
