data_mof_unit_12512.cif
_audit_creation_date              2012-12-10T20:21:38-0500
_audit_creation_method            fapswitch 2.2
_symmetry_space_group_name_H-M    P1
_symmetry_Int_Tables_number       1
_space_group_crystal_system       triclinic
_cell_length_a                    19.329698
_cell_length_b                    18.631707
_cell_length_c                    8.890108
_cell_angle_alpha                 90.003593
_cell_angle_beta                  92.630547
_cell_angle_gamma                 90.019112
_cell_volume                      3198.35630754

loop_
_atom_site_label
_atom_site_type_symbol
_atom_type_description
_atom_site_fract_x
_atom_site_fract_y
_atom_site_fract_z
_atom_type_partial_charge
C1    C     C_R   0.365815 0.499987 0.499132 0.846037
C2    C     C_R   0.634185 0.500013 0.500868 0.846039
C3    C     C_R   0.533805 0.727293 0.615518 0.256047
C4    C     C_R   0.466195 0.272707 0.384481 0.256048
C5    C     C_R   0.466199 0.727268 0.384480 0.256228
C6    C     C_R   0.533801 0.272732 0.615519 0.256227
C7    C     C_R   0.529540 0.803741 0.623205 0.089127
C8    C     C_R   0.470461 0.196259 0.376793 0.089126
C9    C     C_R   0.470468 0.803718 0.376803 0.089022
C10   C     C_R   0.529533 0.196282 0.623196 0.089024
C11   C     C_R   0.500003 0.842611 0.500007 -0.002599
C12   C     C_R   0.499998 0.157389 0.499990 -0.002600
C13   C     C_R   0.562274 0.962267 0.492280 -0.191782
C14   C     C_R   0.437727 0.037733 0.507717 -0.191781
C15   C     C_R   0.437729 0.962223 0.507728 -0.191696
C16   C     C_R   0.562273 0.037777 0.492269 -0.191695
C17   C     C_R   0.499999 0.076442 0.499986 0.156814
C18   C     C_R   0.500003 0.923558 0.500011 0.156814
C19   C     C_R   0.499745 0.499999 0.218737 0.945553
C20   C     C_R   0.500255 0.500001 0.781262 0.945554
C21   C     C_1   0.499904 0.499998 0.065433 -0.214383
C22   C     C_1   0.500096 0.500002 0.934567 -0.214386
C23   C     C_R   0.745599 0.434840 0.504599 -0.196045
C24   C     C_R   0.254401 0.565160 0.495398 -0.196045
C25   C     C_R   0.254492 0.434676 0.498458 -0.195915
C26   C     C_R   0.745508 0.565324 0.501536 -0.195915
C27   C     C_R   0.817265 0.434931 0.505098 -0.179564
C28   C     C_R   0.182734 0.565068 0.494896 -0.179564
C29   C     C_R   0.182832 0.434677 0.498109 -0.180572
C30   C     C_R   0.817168 0.565323 0.501882 -0.180571
C31   C     C_R   0.853152 0.500149 0.503313 0.119047
C32   C     C_R   0.146848 0.499850 0.496678 0.119047
C33   C     C_R   0.709371 0.500056 0.502347 -0.027416
C34   C     C_R   0.290629 0.499943 0.497651 -0.027416
C35   C     C_R   0.961600 0.543580 0.398908 -0.186143
C36   C     C_R   0.038400 0.456419 0.601082 -0.186143
C37   C     C_R   0.033216 0.543407 0.397033 -0.187874
C38   C     C_R   0.966784 0.456592 0.602957 -0.187874
C39   C     C_R   0.071735 0.499822 0.498108 0.107205
C40   C     C_R   0.928265 0.500177 0.501882 0.107205
H1    H     H_    0.718719 0.383828 0.505408 0.157253
H2    H     H_    0.281281 0.616172 0.494590 0.157253
H3    H     H_    0.281429 0.383694 0.499448 0.157444
H4    H     H_    0.718571 0.616305 0.500547 0.157444
H5    H     H_    0.844663 0.384215 0.504853 0.130234
H6    H     H_    0.155337 0.615784 0.495140 0.130234
H7    H     H_    0.155437 0.383933 0.497827 0.130152
H8    H     H_    0.844563 0.616066 0.502162 0.130152
H9    H     H_    0.932186 0.576778 0.319000 0.133519
H10   H     H_    0.067814 0.423222 0.680990 0.133519
H11   H     H_    0.058529 0.576527 0.315823 0.133030
H12   H     H_    0.941470 0.423473 0.684167 0.133030
H13   H     H_    0.610928 0.933870 0.486048 0.144365
H14   H     H_    0.389073 0.066130 0.513949 0.144364
H15   H     H_    0.389076 0.933791 0.513965 0.144404
H16   H     H_    0.610925 0.066209 0.486032 0.144403
N1    N     N_R   0.500000 0.689440 0.500000 -0.123633
N2    N     N_R   0.500000 0.310560 0.500000 -0.123634
O1    O     O_R   0.398180 0.560840 0.499960 -0.631964
O2    O     O_R   0.601820 0.439160 0.500040 -0.631963
O3    O     O_R   0.601820 0.560840 0.500040 -0.632214
O4    O     O_R   0.398180 0.439160 0.499960 -0.632214
O5    O     O_R   0.500000 0.560800 0.285330 -0.616879
O6    O     O_R   0.500000 0.439200 0.714670 -0.616879
O7    O     O_R   0.500000 0.560800 0.714670 -0.616754
O8    O     O_R   0.500000 0.439200 0.285330 -0.616755
Zn1   Zn    Zn3+2 0.500000 0.581210 0.500000 0.928184
Zn2   Zn    Zn3+2 0.500000 0.418790 0.500000 0.928183
C41   C     C_3   0.575239 0.688755 0.738808 -0.811502
H17   H     H_    0.621382 0.720333 0.777129 0.206903
H18   H     H_    0.542613 0.679263 0.836433 0.235294
H19   H     H_    0.597252 0.638232 0.700378 0.270201
C42   C     C_3   0.424760 0.311245 0.261192 -0.811497
H20   H     H_    0.378616 0.279666 0.222874 0.206903
H21   H     H_    0.402749 0.361769 0.299622 0.270202
H22   H     H_    0.457386 0.320736 0.163564 0.235292
C43   C     C_3   0.424771 0.688702 0.261165 -0.811808
H23   H     H_    0.378627 0.720247 0.222852 0.206799
H24   H     H_    0.457401 0.679241 0.163541 0.235367
H25   H     H_    0.402757 0.638161 0.299550 0.270029
C44   C     C_3   0.575227 0.311298 0.738837 -0.811807
H26   H     H_    0.621369 0.279752 0.777161 0.206801
H27   H     H_    0.597244 0.361838 0.700449 0.270026
H28   H     H_    0.542594 0.320763 0.836455 0.235371
C45   C     C_3   0.556165 0.843067 0.764054 -0.910308
H29   H     H_    0.613563 0.845837 0.766680 0.238485
H30   H     H_    0.535766 0.898448 0.771968 0.251776
H31   H     H_    0.539279 0.814984 0.866253 0.245271
C46   C     C_3   0.443836 0.156934 0.235945 -0.910309
H32   H     H_    0.386437 0.154161 0.233323 0.238485
H33   H     H_    0.460718 0.185018 0.133745 0.245271
H34   H     H_    0.464237 0.101553 0.228027 0.251776
C47   C     C_3   0.443850 0.843022 0.235953 -0.910276
H35   H     H_    0.386451 0.845755 0.233317 0.238486
H36   H     H_    0.464253 0.898416 0.228047 0.251767
H37   H     H_    0.460738 0.814947 0.133753 0.245284
C48   C     C_3   0.556150 0.156977 0.764044 -0.910284
H38   H     H_    0.613549 0.154241 0.766678 0.238487
H39   H     H_    0.539264 0.185053 0.866245 0.245285
H40   H     H_    0.535745 0.101584 0.771952 0.251768

loop_
_geom_bond_atom_site_label_1
_geom_bond_atom_site_label_2
_ccdc_geom_bond_type
C15   C18   A    
O8    Zn2   S    
C11   C18   S    
C47   H35   S    
C10   C48   S    
C24   H2    S    
C42   H20   S    
C6    N2    A    
C4    C8    A    
C1    O4    A    
C25   H3    S    
C48   H38   S    
C26   H4    S    
C43   H23   S    
C7    C11   A    
C28   H6    S    
C13   C18   A    
C29   H7    S    
O6    Zn2   S    
C30   H8    S    
C3    C41   S    
C29   C32   A    
C3    C7    A    
C1    O1    A    
C30   C31   A    
C37   H11   S    
C2    O2    A    
C43   H25   S    
C38   H12   S    
C31   C40   S    
C19   O8    A    
C32   C39   S    
C41   H18   S    
O1    Zn1   S    
C19   O5    A    
C16   C17   A    
O7    Zn1   S    
C12   C17   S    
C35   H9    S    
C23   C27   A    
C46   H33   S    
C2    O3    A    
C25   C34   A    
C27   H5    S    
C43   H24   S    
C47   H36   S    
C6    C44   S    
C21   C22   T    
C42   H21   S    
C14   C17   A    
N1    Zn1   S    
C44   H27   S    
C1    C34   S    
C44   H26   S    
C13   H13   S    
C45   H30   S    
C25   C29   A    
O5    Zn1   S    
C27   C31   A    
C20   O7    A    
C28   C32   A    
C48   H39   S    
C23   C33   A    
C45   H29   S    
C24   C34   A    
C15   H15   S    
C20   O6    A    
C41   H19   S    
C16   H16   S    
C5    C9    A    
O3    Zn1   S    
C26   C33   A    
C8    C12   A    
C46   H34   S    
C9    C11   A    
C4    C42   S    
C10   C12   A    
C3    N1    A    
C2    C33   S    
N2    Zn2   S    
C14   H14   S    
C20   C22   S    
C26   C30   A    
C47   H37   S    
C42   H22   S    
C5    C43   S    
C9    C47   S    
C44   H28   S    
C36   H10   S    
C45   H31   S    
C48   H40   S    
C35   C37   A    
C36   C39   A    
C24   C28   A    
C6    C10   A    
O4    Zn2   S    
C23   H1    S    
C5    N1    A    
C36   C38   A    
C35   C40   A    
C37   C39   A    
C38   C40   A    
C7    C45   S    
C41   H17   S    
O2    Zn2   S    
C13   C16   A    
C4    N2    A    
C14   C15   A    
C8    C46   S    
C46   H32   S    
C19   C21   S    
