data_mof_unit_49293.cif
_audit_creation_date              2012-12-11T14:06:33-0500
_audit_creation_method            fapswitch 2.2
_symmetry_space_group_name_H-M    P1
_symmetry_Int_Tables_number       1
_space_group_crystal_system       triclinic
_cell_length_a                    6.918377
_cell_length_b                    17.314901
_cell_length_c                    24.116539
_cell_angle_alpha                 104.621564
_cell_angle_beta                  90.610571
_cell_angle_gamma                 90.093659
_cell_volume                      2795.19730103

loop_
_atom_site_label
_atom_site_type_symbol
_atom_type_description
_atom_site_fract_x
_atom_site_fract_y
_atom_site_fract_z
_atom_type_partial_charge
O1    O     O_R   0.494290 0.391990 0.999150 -0.534634
O2    O     O_R   0.827170 0.534410 0.082350 -0.542100
O3    O     O_R   0.994360 0.608010 0.000850 -0.548015
C1    C     C_R   0.659134 0.551083 0.106111 0.710985
O4    O     O_R   0.824210 0.388010 0.004470 -0.543433
O5    O     O_R   0.991370 0.460560 0.922410 -0.536194
C2    C     C_R   0.654428 0.354875 0.001453 0.781614
O6    O     O_R   0.497270 0.539440 0.077590 -0.538721
O7    O     O_3   0.659770 0.523970 0.973170 -0.374416
V1    V     V_3+5 0.935840 0.495550 0.004980 1.409224
O8    O     O_R   0.320910 0.465590 0.917650 -0.545746
C3    C     C_R   0.150261 0.451892 0.893787 0.716551
O9    O     O_R   0.323870 0.611990 0.995530 -0.542814
C4    C     C_R   0.154369 0.644005 0.995955 0.747900
V2    V     V_3+5 0.435470 0.504450 0.995020 1.406586
O10   O     O_3   0.161670 0.476030 0.026830 -0.367380
C5    C     C_2   0.144484 0.726163 0.988612 -0.032287
C6    C     C_2   0.979404 0.769937 0.001986 -0.349525
H1    H     H_    0.853287 0.743226 0.016320 0.123359
C7    C     C_R   0.062949 0.234374 0.628792 0.605844
N1    N     N_R   0.089968 0.315132 0.649663 -0.558795
C8    C     C_R   0.103738 0.364383 0.613505 0.575584
C9    C     C_R   0.083010 0.333791 0.554079 -0.023326
C10   C     C_R   0.051490 0.251200 0.531540 -0.022861
C11   C     C_R   0.036409 0.200091 0.568929 -0.094750
C12   C     C_R   0.091491 0.384397 0.516842 -0.150444
C13   C     C_R   0.070092 0.353813 0.457850 -0.136117
C14   C     C_R   0.043559 0.271619 0.434473 -0.026848
C15   C     C_R   0.035504 0.220078 0.471296 -0.005534
C16   C     C_R   0.011921 0.137652 0.447810 -0.038230
C17   C     C_R   0.994577 0.087101 0.484672 -0.218828
C18   C     C_R   0.998813 0.117167 0.544529 -0.031934
C19   C     C_R   0.026607 0.239582 0.374903 0.615953
N2    N     N_R   0.013362 0.158618 0.352422 -0.544338
C20   C     C_R   0.003794 0.107706 0.387679 0.603515
O11   O     O_2   0.065415 0.187871 0.665920 -0.486995
O12   O     O_2   0.137464 0.443102 0.635172 -0.517531
H2    H     H_    0.113842 0.448066 0.533179 0.171349
H3    H     H_    0.077016 0.394765 0.430589 0.180967
O13   O     O_2   0.025266 0.288961 0.339643 -0.503990
O14   O     O_2   0.988222 0.028359 0.364722 -0.528720
H4    H     H_    0.969191 0.023817 0.466822 0.180712
C21   C     C_R   0.839927 0.090605 0.263923 -0.065019
H5    H     H_    0.718188 0.082169 0.289559 0.144024
C22   C     C_R   0.824052 0.066153 0.204202 -0.154546
H6    H     H_    0.690127 0.038938 0.185072 0.134330
C23   C     C_R   0.979480 0.076158 0.169698 -0.079758
C24   C     C_R   0.151851 0.110641 0.196416 -0.233865
H7    H     H_    0.273721 0.117649 0.170222 0.160971
C25   C     C_R   0.169515 0.136093 0.256581 0.010071
C26   C     C_R   0.009633 0.127008 0.290795 0.309497
C27   C     C_R   0.950194 0.400123 0.739395 0.174734
C28   C     C_R   0.971647 0.439438 0.798614 0.104934
C29   C     C_R   0.134095 0.421841 0.830156 -0.089299
C30   C     C_R   0.278799 0.371364 0.800864 -0.254981
H8    H     H_    0.404546 0.357683 0.823745 0.147126
C31   C     C_R   0.262295 0.336532 0.742127 -0.126945
H9    H     H_    0.376863 0.298296 0.720608 0.155636
C32   C     C_R   0.099323 0.349863 0.710965 0.348532
C33   C     C_R   0.485609 0.887433 0.612586 0.602350
N3    N     N_R   0.512527 0.837032 0.647686 -0.566159
C34   C     C_R   0.560513 0.758599 0.625279 0.568859
C35   C     C_R   0.583452 0.728263 0.565743 -0.018829
C36   C     C_R   0.556256 0.779277 0.529034 -0.023508
C37   C     C_R   0.507235 0.859474 0.552614 -0.074667
C38   C     C_R   0.633174 0.648195 0.542261 -0.138667
C39   C     C_R   0.655000 0.618966 0.483279 -0.143848
C40   C     C_R   0.627417 0.668950 0.446111 -0.021134
C41   C     C_R   0.578072 0.749814 0.468839 -0.042420
C42   C     C_R   0.550287 0.800730 0.431650 -0.038396
C43   C     C_R   0.502518 0.882545 0.456322 0.104922
C44   C     C_R   0.482135 0.910180 0.516093 -0.093994
C45   C     C_R   0.646470 0.639299 0.386573 0.577009
N4    N     N_R   0.617278 0.687967 0.350554 -0.561060
C46   C     C_R   0.571176 0.767045 0.371537 0.578453
O15   O     O_2   0.440142 0.964538 0.635581 -0.485912
O16   O     O_2   0.585207 0.709852 0.660471 -0.517669
H10   H     H_    0.655323 0.607677 0.569384 0.175314
H11   H     H_    0.693090 0.556767 0.466893 0.171141
O17   O     O_2   0.691375 0.561821 0.364710 -0.509069
O18   O     O_2   0.546496 0.812298 0.334070 -0.521414
H12   H     H_    0.445979 0.972233 0.534299 0.189418
C47   C     C_R   0.461903 0.644434 0.254897 -0.086714
H13   H     H_    0.323186 0.662747 0.274121 0.117108
C48   C     C_R   0.471728 0.610237 0.195802 -0.190483
H14   H     H_    0.339188 0.603707 0.170729 0.130094
C49   C     C_R   0.649945 0.585392 0.169444 -0.058955
C50   C     C_R   0.818056 0.595734 0.204117 -0.190978
H15   H     H_    0.957696 0.577629 0.185494 0.131058
C51   C     C_R   0.807700 0.629669 0.263406 -0.075141
H16   H     H_    0.938498 0.636822 0.289292 0.120680
C52   C     C_R   0.629523 0.654476 0.289241 0.382932
C53   C     C_R   0.662002 0.873061 0.744203 -0.082011
H17   H     H_    0.801848 0.856536 0.725157 0.115539
C54   C     C_R   0.648156 0.900047 0.803800 -0.189573
H18   H     H_    0.779169 0.903621 0.829312 0.129824
C55   C     C_R   0.468210 0.921623 0.830055 -0.060434
C56   C     C_R   0.302456 0.915732 0.794707 -0.194475
H19   H     H_    0.161773 0.931873 0.813250 0.130493
C57   C     C_R   0.316877 0.888951 0.734822 -0.074056
H20   H     H_    0.187765 0.884440 0.708397 0.119043
C58   C     C_R   0.496839 0.867123 0.709168 0.377952
C59   C     C_2   0.642874 0.269790 0.001869 -0.333534
H21   H     H_    0.777662 0.239090 0.005245 0.151801
C60   C     C_2   0.472634 0.230153 0.997945 -0.335403
H22   H     H_    0.337845 0.260851 0.994565 0.150820
O19   O     O_R   0.618210 0.960470 0.922400 -0.540251
O20   O     O_R   0.291310 0.111960 0.995450 -0.544862
O21   O     O_R   0.124210 0.039530 0.077580 -0.540269
C61   C     C_R   0.461089 0.145086 0.998416 0.785034
O22   O     O_R   0.288310 0.965490 0.917650 -0.544223
O23   O     O_R   0.121180 0.892010 0.999220 -0.532201
C62   C     C_R   0.456723 0.950423 0.893764 0.701299
O24   O     O_R   0.621230 0.107990 0.000760 -0.533543
O25   O     O_3   0.455770 0.976060 0.026840 -0.373619
V3    V     V_3+5 0.179680 0.004440 0.995020 1.411639
O26   O     O_R   0.791670 0.888040 0.004570 -0.550907
C63   C     C_R   0.961794 0.854563 0.000464 0.773783
O27   O     O_R   0.794680 0.034510 0.082370 -0.540865
C64   C     C_R   0.964843 0.049024 0.106132 0.719764
V4    V     V_3+5 0.680070 0.995560 0.005010 1.411507
O28   O     O_3   0.953840 0.023940 0.973160 -0.370555
C65   C     C_3   0.320720 0.756764 0.963373 -0.688415
H23   H     H_    0.426117 0.708785 0.945929 0.189166
H24   H     H_    0.277155 0.781358 0.926812 0.198176
H25   H     H_    0.397651 0.802694 0.996814 0.223817
C66   C     C_2   0.356033 0.171314 0.282457 0.787190
O29   O     O_2   0.466310 0.201625 0.254618 -0.545879
O30   O     O_R   0.407680 0.169258 0.338294 -0.667992
H26   H     H_    0.535966 0.196612 0.351253 0.296229
C67   C     C_3   0.766914 0.410116 0.707054 -0.705069
H27   H     H_    0.766453 0.469634 0.697623 0.236832
H28   H     H_    0.750008 0.363819 0.666094 0.205531
H29   H     H_    0.638793 0.404441 0.733000 0.202322
C68   C     C_3   0.824404 0.500924 0.827595 -0.708869
H30   H     H_    0.896556 0.551324 0.858688 0.193941
H31   H     H_    0.747589 0.528519 0.796955 0.211161
H32   H     H_    0.716086 0.472575 0.849892 0.215903
C69   C     C_3   0.472009 0.942619 0.421218 -0.619041
H33   H     H_    0.348557 0.923945 0.390989 0.252092
H34   H     H_    0.437313 0.002933 0.448324 0.183386
H35   H     H_    0.605783 0.948779 0.397639 0.245139
C70   C     C_2   0.949775 0.059685 0.578564 0.868776
O31   O     O_2   0.823325 0.075497 0.614681 -0.508962
O32   O     O_R   0.038681 0.984918 0.566309 -0.664494
H36   H     H_    0.989913 0.949969 0.591223 0.299942

loop_
_geom_bond_atom_site_label_1
_geom_bond_atom_site_label_2
_ccdc_geom_bond_type
C68   H32   S    
C49   C50   A    
C53   H17   S    
O25   V4    S    
C17   H4    S    
C45   N4    A    
C34   O16   S    
C54   H18   S    
C28   C68   S    
C1    O6    A    
C67   H29   S    
C55   C56   A    
C31   H9    S    
C65   H23   S    
C1    C49   S    
C28   C29   A    
C47   C52   A    
C12   C13   A    
C15   C16   A    
V3    O28   S    
C16   C20   A    
C14   C15   A    
C60   C61   S    
N1    C32   S    
O5    C3    A    
C16   C17   A    
C69   H35   S    
C31   C32   A    
C7    C11   A    
C70   O31   D    
C5    C6    D    
N2    C20   A    
C22   C23   A    
N4    C52   S    
C9    C12   A    
O26   V4    S    
C10   C15   A    
O19   C62   A    
C18   C70   S    
C59   H21   S    
O21   V3    S    
O24   V4    S    
O8    V2    S    
C5    C65   S    
C23   C24   A    
C13   H3    S    
C40   C41   A    
C9    C10   A    
O22   V3    S    
O1    V2    S    
O7    V1    S    
C61   O24   A    
C11   C18   A    
C24   C25   A    
C38   C39   A    
C35   C38   A    
C53   C54   A    
C2    C59   S    
N1    C8    A    
C4    C5    S    
C41   C42   A    
C25   C26   A    
O27   V4    S    
C38   H10   S    
C69   H33   S    
C19   O13   S    
V4    O28   S    
N4    C46   A    
C48   C49   A    
C39   C40   A    
C68   H30   S    
C39   H11   S    
C10   C11   A    
C59   C60   D    
O4    C2    A    
C6    H1    S    
C65   H25   S    
C43   C69   S    
C40   C45   A    
C22   H6    S    
C8    O12   S    
C33   O15   S    
C33   N3    A    
O2    C1    A    
C21   H5    S    
C66   O30   S    
C34   C35   A    
C27   C32   A    
C33   C37   A    
C51   C52   A    
C47   H13   S    
O27   C64   A    
C30   H8    S    
C57   C58   A    
C19   N2    A    
N2    C26   S    
O22   C62   A    
C36   C41   A    
C7    N1    A    
C21   C22   A    
C48   H14   S    
C42   C43   A    
O3    C4    A    
C23   C64   S    
C47   C48   A    
C50   C51   A    
C14   C19   A    
O6    V2    S    
C56   C57   A    
C30   C31   A    
C68   H31   S    
O19   V4    S    
C55   C62   S    
C67   H27   S    
O2    V1    S    
O32   H36   S    
O23   V3    S    
C27   C28   A    
O30   H26   S    
C70   O32   S    
C6    C63   S    
C29   C30   A    
C24   H7    S    
O1    C2    A    
C27   C67   S    
C17   C18   A    
C12   H2    S    
C67   H28   S    
C53   C58   A    
O5    V1    S    
O8    C3    A    
C54   C55   A    
C66   O29   D    
C46   O18   S    
C37   C44   A    
C60   H22   S    
C36   C37   A    
O20   V3    S    
O9    V2    S    
N3    C58   S    
O7    V2    S    
O4    V1    S    
O3    V1    S    
V1    O10   S    
O26   C63   A    
O23   C63   A    
C69   H34   S    
C21   C26   A    
C51   H16   S    
V2    O10   S    
C57   H20   S    
C45   O17   S    
O20   C61   A    
N3    C34   A    
C20   O14   S    
C3    C29   S    
C65   H24   S    
C35   C36   A    
C7    O11   S    
C43   C44   A    
C50   H15   S    
C56   H19   S    
C42   C46   A    
C8    C9    A    
C25   C66   S    
O9    C4    A    
C44   H12   S    
O25   V3    S    
O21   C64   A    
C13   C14   A    
