data_mof_unit_6284.cif
_audit_creation_date              2012-12-11T14:19:36-0500
_audit_creation_method            fapswitch 2.2
_symmetry_space_group_name_H-M    P1
_symmetry_Int_Tables_number       1
_space_group_crystal_system       triclinic
_cell_length_a                    19.472575
_cell_length_b                    7.219226
_cell_length_c                    17.80754
_cell_angle_alpha                 89.998025
_cell_angle_beta                  107.934842
_cell_angle_gamma                 90.000559
_cell_volume                      2381.6856539

loop_
_atom_site_label
_atom_site_type_symbol
_atom_type_description
_atom_site_fract_x
_atom_site_fract_y
_atom_site_fract_z
_atom_type_partial_charge
O1    O     O_R   0.414820 0.494320 0.416790 -0.534420
O2    O     O_R   0.585180 0.994320 0.583210 -0.534397
O3    O     O_R   0.560270 0.819500 0.430140 -0.537207
O4    O     O_R   0.439730 0.319500 0.569860 -0.537190
C1    C     C_R   0.582931 0.655056 0.416610 0.708194
C2    C     C_R   0.417067 0.155052 0.583390 0.708206
O5    O     O_R   0.413840 0.823740 0.407440 -0.554074
O6    O     O_R   0.586160 0.323740 0.592560 -0.554083
O7    O     O_R   0.437710 0.998590 0.560350 -0.532745
O8    O     O_R   0.562290 0.498590 0.439650 -0.532753
C3    C     C_R   0.388526 0.654040 0.383678 0.674483
C4    C     C_R   0.611476 0.154036 0.616320 0.674509
O9    O     O_3   0.508000 0.662290 0.550200 -0.380885
O10   O     O_3   0.492000 0.162290 0.449800 -0.380908
V1    V     V_3+5 0.498520 0.935380 0.490690 1.439858
V2    V     V_3+5 0.501480 0.435380 0.509310 1.439851
C5    C     C_2   0.787485 0.270166 0.784268 -0.092822
C6    C     C_2   0.212494 0.770161 0.215759 -0.092818
C7    C     C_2   0.824223 0.114011 0.813305 -0.246517
C8    C     C_2   0.175782 0.613994 0.186691 -0.246548
H1    H     H_    0.806684 0.402457 0.811766 0.130206
H2    H     H_    0.193269 0.902467 0.188292 0.130212
H3    H     H_    0.808717 0.984107 0.782478 0.162773
H4    H     H_    0.191313 0.484062 0.217491 0.162768
C9    C     C_2   0.723980 0.274017 0.711250 -0.210910
C10   C     C_2   0.276001 0.773993 0.288776 -0.210929
C11   C     C_2   0.674407 0.137028 0.689718 0.311139
C12   C     C_2   0.325599 0.637053 0.310275 0.311120
H5    H     H_    0.717686 0.397179 0.674706 0.093444
H6    H     H_    0.282273 0.897095 0.325351 0.093467
C13   C     C_R   0.317797 0.989529 0.623587 -0.092875
C14   C     C_R   0.682207 0.489550 0.376426 -0.092874
C15   C     C_R   0.364407 0.144425 0.629232 -0.123336
C16   C     C_R   0.635596 0.644438 0.370772 -0.123339
C17   C     C_R   0.359775 0.293367 0.678455 -0.178973
C18   C     C_R   0.640230 0.793379 0.321548 -0.179005
C19   C     C_R   0.311753 0.289201 0.723209 0.024518
C20   C     C_R   0.688254 0.789204 0.276796 0.024544
C21   C     C_R   0.266713 0.134242 0.719072 0.053213
C22   C     C_R   0.733292 0.634240 0.280936 0.053209
C23   C     C_R   0.269361 0.984344 0.668860 0.065763
C24   C     C_R   0.730642 0.484349 0.331151 0.065759
C25   C     C_R   0.308150 0.438767 0.772043 -0.273998
C26   C     C_R   0.691861 0.938765 0.227961 -0.274025
C27   C     C_R   0.261791 0.434264 0.818873 0.450122
C28   C     C_R   0.738226 0.934259 0.181134 0.450147
C29   C     C_R   0.216225 0.280066 0.814948 -0.009463
C30   C     C_R   0.783787 0.780057 0.185064 -0.009453
C31   C     C_R   0.218420 0.130013 0.764715 -0.014567
C32   C     C_R   0.781584 0.630002 0.235294 -0.014590
C33   C     C_R   0.172081 0.976299 0.759488 0.100948
C34   C     C_R   0.827915 0.476274 0.240515 0.100947
C35   C     C_R   0.175181 0.829109 0.708757 -0.123469
C36   C     C_R   0.824815 0.329095 0.291255 -0.123496
C37   C     C_R   0.222932 0.832635 0.664767 -0.193394
C38   C     C_R   0.777067 0.332635 0.335248 -0.193409
C39   C     C_R   0.169516 0.272227 0.861449 -0.173219
C40   C     C_R   0.830499 0.772223 0.138566 -0.173141
C41   C     C_R   0.124275 0.118722 0.858586 -0.140607
C42   C     C_R   0.875725 0.618699 0.141416 -0.140654
C43   C     C_R   0.123920 0.972329 0.804994 -0.069646
C44   C     C_R   0.876062 0.472274 0.194993 -0.069663
H7    H     H_    0.394444 0.413014 0.682760 0.138646
H8    H     H_    0.605566 0.913030 0.317243 0.138635
H9    H     H_    0.341240 0.560409 0.773778 0.144852
H10   H     H_    0.658775 0.060406 0.226226 0.144826
H11   H     H_    0.169346 0.384884 0.901590 0.176610
H12   H     H_    0.830679 0.884900 0.098436 0.176655
H13   H     H_    0.141309 0.707789 0.703152 0.136201
H14   H     H_    0.858686 0.207773 0.296866 0.136198
H15   H     H_    0.223039 0.714025 0.627630 0.142119
H16   H     H_    0.776957 0.214029 0.372387 0.142129
O11   O     O_R   0.937810 0.773680 0.060480 -0.535511
O12   O     O_R   0.062190 0.273680 0.939520 -0.535525
O13   O     O_R   0.086190 0.439740 0.092580 -0.542425
O14   O     O_R   0.913810 0.939740 0.907420 -0.542409
C45   C     C_R   0.111706 0.608597 0.115587 0.706422
C46   C     C_R   0.888295 0.108600 0.884413 0.706438
O15   O     O_R   0.939760 0.444210 0.069890 -0.536125
O16   O     O_R   0.060240 0.944210 0.930110 -0.536118
O17   O     O_R   0.914790 0.269640 0.916760 -0.537091
O18   O     O_R   0.085210 0.769640 0.083240 -0.537089
C47   C     C_R   0.921080 0.612418 0.087210 0.690709
C48   C     C_R   0.078919 0.112424 0.912791 0.690709
O19   O     O_3   0.992050 0.601530 0.949880 -0.368844
O20   O     O_3   0.007950 0.101530 0.050120 -0.368840
V3    V     V_3+5 0.001480 0.328340 0.009300 1.472488
V4    V     V_3+5 0.998520 0.828340 0.990700 1.472520
C49   C     C_1   0.072508 0.821141 0.793934 0.322163
N1    N     N_1   0.031632 0.700408 0.784908 -0.349350
C50   C     C_1   0.927427 0.320984 0.206003 0.322259
N2    N     N_1   0.968258 0.200168 0.214990 -0.349344
O21   O     O_3   0.676193 0.994633 0.743132 -0.551982
C51   C     C_3   0.682676 0.819381 0.710509 -0.222379
H17   H     H_    0.711206 0.823896 0.664981 0.116385
H18   H     H_    0.628696 0.754511 0.686207 0.172377
H19   H     H_    0.714614 0.727797 0.758673 0.139411
O22   O     O_3   0.323840 0.494769 0.256823 -0.551997
C52   C     C_3   0.317417 0.319432 0.289408 -0.222409
H20   H     H_    0.288872 0.323768 0.334926 0.116386
H21   H     H_    0.371420 0.254686 0.313710 0.172376
H22   H     H_    0.285521 0.227843 0.241223 0.139441
C53   C     C_1   0.317095 0.838518 0.569469 0.298157
N3    N     N_1   0.316203 0.717511 0.526536 -0.376252
C54   C     C_1   0.682915 0.338571 0.430570 0.298241
N4    N     N_1   0.683822 0.217617 0.473513 -0.376326
O23   O     O_3   0.256765 0.587120 0.863794 -0.554294
C55   C     C_3   0.318461 0.594082 0.930784 -0.256548
H23   H     H_    0.325243 0.463553 0.965653 0.134954
H24   H     H_    0.311524 0.708496 0.969396 0.170964
H25   H     H_    0.367894 0.624127 0.914196 0.136769
O24   O     O_3   0.743261 0.087098 0.136212 -0.554320
C56   C     C_3   0.681532 0.094211 0.069262 -0.256547
H26   H     H_    0.674637 0.963630 0.034409 0.134933
H27   H     H_    0.688505 0.208496 0.030614 0.170963
H28   H     H_    0.632145 0.124554 0.085911 0.136792

loop_
_geom_bond_atom_site_label_1
_geom_bond_atom_site_label_2
_ccdc_geom_bond_type
C20   C22   A    
O4    V2    S    
O21   C51   S    
C28   O24   S    
C26   H10   S    
O1    C3    A    
O16   C48   A    
C35   H13   S    
C2    O7    A    
O15   V3    S    
C29   C31   A    
O5    C3    A    
C8    C45   S    
C45   O18   A    
C17   C19   A    
O14   C46   A    
C42   C47   S    
C22   C32   A    
C39   C41   A    
C40   C42   A    
C55   H23   S    
C42   C44   A    
C27   C29   A    
C23   C37   A    
C24   C38   A    
C6    C10   S    
C8    H4    S    
C26   C28   A    
C38   H16   S    
C33   C43   A    
C32   C34   A    
O23   C55   S    
C13   C15   A    
O12   V3    S    
O14   V4    S    
C16   C18   A    
O6    C4    A    
C56   H28   S    
C34   C36   A    
O5    V1    S    
O2    C4    A    
O6    V2    S    
C1    C16   S    
C39   H11   S    
O24   C56   S    
C43   C49   S    
C28   C30   A    
C35   C37   A    
C9    H5    S    
C36   C38   A    
C41   C43   A    
C4    C11   S    
C41   C48   S    
C21   C23   A    
C50   N2    T    
O20   V3    S    
C5    C7    D    
C51   H19   S    
C31   C33   A    
C5    H1    S    
C33   C35   A    
C14   C16   A    
C19   C25   A    
C7    C46   S    
C7    H3    S    
O11   V4    S    
C20   C26   A    
C12   O22   S    
C29   C39   A    
C25   C27   A    
C52   H20   S    
C36   H14   S    
C25   H9    S    
C44   C50   S    
O1    V2    S    
C51   H18   S    
O2    V1    S    
O13   C45   A    
O17   V3    S    
C40   H12   S    
C21   C31   A    
C10   H6    S    
C14   C54   S    
C11   O21   S    
O4    C2    A    
O3    V1    S    
C56   H26   S    
O19   V4    S    
O13   V3    S    
C13   C23   A    
C52   H21   S    
C6    H2    S    
O12   C48   A    
C22   C24   A    
O3    C1    A    
C17   H7    S    
C55   H25   S    
C30   C40   A    
C9    C11   D    
C54   N4    T    
C10   C12   D    
C2    C15   S    
C5    C9    S    
C18   C20   A    
O7    V1    S    
C1    O8    A    
O16   V4    S    
C34   C44   A    
O15   C47   A    
C46   O17   A    
C3    C12   S    
O18   V4    S    
C30   C32   A    
C15   C17   A    
C55   H24   S    
C6    C8    D    
C51   H17   S    
C52   H22   S    
C19   C21   A    
O22   C52   S    
O9    V2    S    
C53   N3    T    
C14   C24   A    
O10   V1    S    
O8    V2    S    
C49   N1    T    
C18   H8    S    
O11   C47   A    
C37   H15   S    
C27   O23   S    
C13   C53   S    
C56   H27   S    
