data_mof_unit_64981.cif
_audit_creation_date              2012-12-10T21:20:55-0500
_audit_creation_method            fapswitch 2.2
_symmetry_space_group_name_H-M    P1
_symmetry_Int_Tables_number       1
_space_group_crystal_system       triclinic
_cell_length_a                    17.551909
_cell_length_b                    16.741004
_cell_length_c                    19.133414
_cell_angle_alpha                 90.005426
_cell_angle_beta                  89.994998
_cell_angle_gamma                 89.995776
_cell_volume                      5622.09684816

loop_
_atom_site_label
_atom_site_type_symbol
_atom_type_description
_atom_site_fract_x
_atom_site_fract_y
_atom_site_fract_z
_atom_type_partial_charge
C1    C     C_R   0.353104 0.500017 0.499221 0.878265
C2    C     C_R   0.530608 0.167887 0.556492 0.078515
C3    C     C_R   0.561574 0.832114 0.528097 0.078641
C4    C     C_R   0.469226 0.167954 0.443454 0.078748
C5    C     C_R   0.439956 0.747896 0.472120 -0.042478
C6    C     C_R   0.530299 0.252039 0.555083 -0.042875
C7    C     C_R   0.560037 0.747964 0.527811 -0.041885
C8    C     C_R   0.469616 0.252102 0.444915 -0.042108
C9    C     C_R   0.499948 0.875595 0.499923 0.017545
C10   C     C_R   0.499911 0.124405 0.499954 0.017013
C11   C     C_1   0.499913 0.963461 0.499912 0.104054
C12   C     C_R   0.646902 0.500012 0.499375 0.880184
C13   C     C_1   0.499901 0.036539 0.499922 0.103812
C14   C     C_R   0.498705 0.499985 0.365046 0.875518
C15   C     C_R   0.498925 0.499991 0.634963 0.876220
C16   C     C_R   0.480619 0.572343 0.253582 -0.180883
C17   C     C_R   0.482575 0.427347 0.746506 -0.180347
C18   C     C_R   0.481261 0.572350 0.746501 -0.179960
C19   C     C_R   0.481218 0.427336 0.253644 -0.181320
C20   C     C_R   0.465540 0.572235 0.182442 -0.147100
C21   C     C_R   0.467684 0.427200 0.817680 -0.144609
C22   C     C_R   0.466365 0.572222 0.817675 -0.147904
C23   C     C_R   0.729449 0.500093 0.493808 -0.051430
C24   C     C_R   0.466142 0.427208 0.182508 -0.143610
C25   C     C_R   0.458460 0.499663 0.146353 0.076278
C26   C     C_R   0.459584 0.499642 0.853790 0.076840
C27   C     C_R   0.488554 0.499901 0.289548 -0.047979
C28   C     C_R   0.489290 0.499920 0.710522 -0.048470
C29   C     C_R   0.449424 0.499550 0.929520 0.293937
C30   C     C_R   0.448740 0.499562 0.070576 0.294112
C31   C     C_R   0.847457 0.572854 0.481758 -0.145451
C32   C     C_R   0.152496 0.427693 0.480541 -0.148691
C33   C     C_R   0.152657 0.572838 0.480503 -0.144887
C34   C     C_R   0.270593 0.500106 0.493306 -0.050119
C35   C     C_R   0.847534 0.427715 0.480679 -0.149141
C36   C     C_R   0.769017 0.572852 0.490165 -0.185584
C37   C     C_R   0.230929 0.427468 0.488988 -0.185757
C38   C     C_R   0.231087 0.572856 0.488953 -0.186221
C39   C     C_R   0.769094 0.427468 0.489090 -0.185259
C40   C     C_R   0.886119 0.500346 0.476914 0.151556
C41   C     C_R   0.113943 0.500315 0.476293 0.151305
C42   C     C_1   0.966212 0.500416 0.472885 -0.050524
C43   C     C_1   0.033829 0.500405 0.472679 -0.050447
C44   C     C_R   0.438364 0.832044 0.471763 0.078947
H1    H     H_    0.485390 0.629103 0.280415 0.167598
H2    H     H_    0.121895 0.371530 0.478008 0.145675
H3    H     H_    0.122187 0.629081 0.477941 0.147479
H4    H     H_    0.878101 0.371555 0.477690 0.145400
H5    H     H_    0.739503 0.629550 0.493558 0.164915
H6    H     H_    0.260356 0.370696 0.491960 0.168462
H7    H     H_    0.260629 0.629565 0.491902 0.164291
H8    H     H_    0.739633 0.370691 0.491614 0.168706
H9    H     H_    0.392798 0.714895 0.450016 0.153581
H10   H     H_    0.554351 0.284988 0.598394 0.155607
H11   H     H_    0.607245 0.715017 0.549890 0.155129
H12   H     H_    0.488080 0.370665 0.719652 0.164038
H13   H     H_    0.445528 0.285100 0.401654 0.153468
H14   H     H_    0.485702 0.629112 0.719632 0.167813
H15   H     H_    0.486473 0.370645 0.280512 0.163119
H16   H     H_    0.460216 0.629009 0.155766 0.160382
H17   H     H_    0.463156 0.370345 0.844340 0.161064
H18   H     H_    0.460793 0.628987 0.844332 0.159853
H19   H     H_    0.461274 0.370354 0.155889 0.161877
H20   H     H_    0.877959 0.629096 0.479611 0.147009
I1    I     I_    0.341556 0.889234 0.428472 -0.312544
I2    I     I_    0.577630 0.110578 0.645309 -0.306918
I3    I     I_    0.658384 0.889426 0.571255 -0.309414
I4    I     I_    0.422054 0.110764 0.354639 -0.310081
N1    N     N_R   0.448350 0.429760 0.034704 -0.167750
N2    N     N_R   0.447412 0.569329 0.965381 -0.168770
N3    N     N_R   0.448678 0.429755 0.965382 -0.167944
N4    N     N_R   0.447086 0.569334 0.034702 -0.168635
N5    N     N_R   0.500000 0.707230 0.500000 -0.115289
N6    N     N_R   0.500000 0.292770 0.500000 -0.115344
O1    O     O_R   0.389110 0.566570 0.500000 -0.626402
O2    O     O_R   0.610890 0.433430 0.500000 -0.613156
O3    O     O_R   0.610890 0.566570 0.500000 -0.625280
O4    O     O_R   0.389110 0.433430 0.500000 -0.614421
O5    O     O_R   0.499990 0.566560 0.398140 -0.613866
O6    O     O_R   0.500010 0.433440 0.601860 -0.625381
O7    O     O_R   0.500010 0.566560 0.601860 -0.613120
O8    O     O_R   0.499990 0.433440 0.398140 -0.625811
Zn1   Zn    Zn3+2 0.500000 0.588860 0.500000 0.959171
Zn2   Zn    Zn3+2 0.500000 0.411140 0.500000 0.959038

loop_
_geom_bond_atom_site_label_1
_geom_bond_atom_site_label_2
_ccdc_geom_bond_type
C21   C26   A    
C34   C37   A    
C7    H11   S    
O6    Zn2   S    
O2    Zn2   S    
C7    N5    A    
C12   C23   S    
C5    H9    S    
C3    C7    A    
C20   C25   A    
O3    Zn1   S    
C31   C40   A    
N1    N3    A    
C18   H14   S    
C32   C41   A    
C14   C27   S    
C20   H16   S    
C19   C27   A    
C21   H17   S    
C4    C8    A    
C16   C27   A    
C40   C42   S    
C39   H8    S    
C18   C22   A    
C1    O4    A    
C41   C43   S    
C44   I1    S    
C2    C6    A    
C6    H10   S    
C35   H4    S    
O7    Zn1   S    
C1    C34   S    
C6    N6    A    
C1    O1    A    
C18   C28   A    
C24   C25   A    
C15   O7    A    
C4    I4    S    
C38   H7    S    
C19   H15   S    
C14   O5    A    
C17   C21   A    
C35   C39   A    
C3    C9    A    
C8    H13   S    
C22   H18   S    
C15   O6    A    
C16   C20   A    
C12   O3    A    
C8    N6    A    
C32   C37   A    
C9    C11   S    
C17   H12   S    
C5    C44   A    
C24   H19   S    
O8    Zn2   S    
C12   O2    A    
C33   H3    S    
C42   C43   T    
C14   O8    A    
C4    C10   A    
C2    C10   A    
C30   N1    A    
C29   N2    A    
C25   C30   S    
C9    C44   A    
C34   C38   A    
C17   C28   A    
C32   H2    S    
C31   H20   S    
C3    I3    S    
N6    Zn2   S    
C2    I2    S    
C10   C13   S    
C16   H1    S    
C30   N4    A    
C33   C38   A    
C33   C41   A    
C35   C40   A    
O5    Zn1   S    
C37   H6    S    
C11   C13   T    
O1    Zn1   S    
C15   C28   S    
C23   C39   A    
C19   C24   A    
C5    N5    A    
O4    Zn2   S    
C26   C29   S    
C23   C36   A    
C22   C26   A    
C31   C36   A    
N2    N4    A    
N5    Zn1   S    
C36   H5    S    
C29   N3    A    
