data_mof_unit_12659.cif
_audit_creation_date              2012-12-10T17:25:20-0500
_audit_creation_method            fapswitch 2.2
_symmetry_space_group_name_H-M    P1
_symmetry_Int_Tables_number       1
_space_group_crystal_system       triclinic
_cell_length_a                    27.80468
_cell_length_b                    10.88078
_cell_length_c                    9.587851
_cell_angle_alpha                 87.988182
_cell_angle_beta                  89.897615
_cell_angle_gamma                 94.226341
_cell_volume                      2890.97716153

loop_
_atom_site_label
_atom_site_type_symbol
_atom_type_description
_atom_site_fract_x
_atom_site_fract_y
_atom_site_fract_z
_atom_type_partial_charge
C1    C     C_R   0.498673 0.262190 0.501936 0.791996
C2    C     C_R   0.278146 0.492770 0.623300 -0.104933
C3    C     C_R   0.253772 0.523074 0.501059 0.354442
C4    C     C_R   0.102179 0.519255 0.482241 -0.051446
C5    C     C_R   0.125439 0.408077 0.486003 -0.017009
C6    C     C_R   0.098231 0.295199 0.479569 -0.134278
C7    C     C_R   0.130022 0.633483 0.485607 -0.080411
C8    C     C_R   0.354678 0.514721 0.497664 -0.089036
C9    C     C_R   0.645423 0.485672 0.499804 -0.088756
C10   C     C_R   0.973153 0.397112 0.447508 0.040787
C11   C     C_R   0.976337 0.617181 0.499196 0.041766
C12   C     C_R   0.407573 0.504387 0.499454 0.773738
C13   C     C_R   0.949411 0.504627 0.473651 0.075788
C14   C     C_R   0.945054 0.289865 0.409573 -0.204066
C15   C     C_R   0.894960 0.287024 0.405797 -0.137036
C16   C     C_R   0.871118 0.390234 0.441768 -0.027034
C17   C     C_R   0.898287 0.499084 0.476804 -0.047575
C18   C     C_R   0.874332 0.601981 0.516611 -0.019292
C19   C     C_R   0.823741 0.594570 0.519188 0.534324
C20   C     C_R   0.820550 0.387283 0.444245 0.544959
C21   C     C_R   0.722616 0.467544 0.616297 -0.151092
C22   C     C_R   0.672370 0.466812 0.623645 -0.071547
C23   C     C_R   0.496701 0.736769 0.497371 0.773775
C24   C     C_R   0.670000 0.494699 0.370857 -0.236253
C25   C     C_R   0.720032 0.494251 0.365041 -0.113824
C26   C     C_R   0.746454 0.482997 0.487845 0.355621
C27   C     C_R   0.023962 0.400049 0.462350 0.049113
C28   C     C_R   0.051085 0.515239 0.475303 0.062600
C29   C     C_R   0.027364 0.625891 0.480568 -0.016885
C30   C     C_R   0.048503 0.291077 0.467165 -0.202090
C31   C     C_R   0.106267 0.744401 0.471226 -0.074596
C32   C     C_R   0.951467 0.714996 0.550346 -0.185244
C33   C     C_R   0.901359 0.708307 0.556732 -0.144098
C34   C     C_R   0.592444 0.495351 0.500321 0.775199
C35   C     C_R   0.055503 0.740128 0.462971 -0.077325
C36   C     C_R   0.429293 0.108795 0.677349 -0.122423
C37   C     C_R   0.398612 0.036500 0.767479 -0.110471
C38   C     C_R   0.399843 0.909250 0.772303 -0.121284
C39   C     C_R   0.430677 0.853253 0.683983 -0.145824
C40   C     C_R   0.462776 0.924665 0.592923 0.100858
C41   C     C_R   0.463228 0.055057 0.593231 0.073921
C42   C     C_R   0.495643 0.127201 0.503164 -0.162997
C43   C     C_R   0.520825 0.069674 0.398965 -0.094687
C44   C     C_R   0.511882 0.944060 0.381632 -0.096383
C45   C     C_R   0.175726 0.411753 0.495250 0.539682
C46   C     C_R   0.490401 0.869628 0.491142 -0.155644
C47   C     C_R   0.567654 0.658006 0.137920 -0.309342
C48   C     C_R   0.601022 0.737707 0.062932 0.423965
C49   C     C_R   0.600769 0.738282 0.918355 0.430832
C50   C     C_R   0.567132 0.660294 0.849741 -0.278797
C51   C     C_R   0.533516 0.577335 0.922273 0.084529
C52   C     C_R   0.533645 0.576740 0.071550 0.159747
C53   C     C_R   0.468271 0.426204 0.078204 -0.120125
C54   C     C_R   0.467019 0.427577 0.928464 0.613282
C55   C     C_R   0.180916 0.631403 0.497122 0.540419
C56   C     C_R   0.279627 0.553049 0.378006 -0.149931
C57   C     C_R   0.329772 0.550033 0.374951 -0.051193
C58   C     C_R   0.328179 0.489835 0.621815 -0.239461
Cu1   Cu    Cu3+1 0.500000 0.499990 0.640660 0.992203
Cu2   Cu    Cu3+1 0.500000 0.500010 0.359340 0.965293
H1    H     H_    0.346109 0.467435 0.718036 0.177253
H2    H     H_    0.260328 0.578473 0.284396 0.138493
H3    H     H_    0.970326 0.795934 0.591766 0.158322
H4    H     H_    0.650616 0.504267 0.273710 0.174315
H5    H     H_    0.883925 0.786615 0.594441 0.189467
H6    H     H_    0.738369 0.504531 0.265118 0.141024
H7    H     H_    0.424331 0.205886 0.668856 0.192197
H8    H     H_    0.372696 0.078601 0.831048 0.141122
H9    H     H_    0.258270 0.471096 0.719331 0.141010
H10   H     H_    0.375204 0.853285 0.840147 0.154770
H11   H     H_    0.426582 0.753930 0.682997 0.161266
H12   H     H_    0.443626 0.365307 0.140136 0.145348
H13   H     H_    0.566911 0.670834 0.247047 0.220148
H14   H     H_    0.568015 0.671570 0.739554 0.222593
H15   H     H_    0.115313 0.208824 0.483824 0.201851
H16   H     H_    0.743529 0.455757 0.710555 0.140859
H17   H     H_    0.874961 0.202778 0.376201 0.191777
H18   H     H_    0.960951 0.207460 0.378713 0.159371
H19   H     H_    0.029952 0.200514 0.466635 0.162256
N1    N     N_R   0.202185 0.522021 0.500359 -0.464993
N2    N     N_R   0.798052 0.488539 0.482698 -0.466323
N3    N     N_R   0.500460 0.501210 0.147910 -0.194727
N4    N     N_R   0.500480 0.501290 0.852040 -0.214028
O1    O     O_R   0.500000 0.319640 0.618810 -0.536717
O2    O     O_2   0.794058 0.283879 0.409968 -0.522956
O3    O     O_2   0.209245 0.736891 0.505668 -0.523293
O4    O     O_2   0.800347 0.692543 0.557322 -0.550214
O5    O     O_R   0.500000 0.319660 0.381240 -0.576839
O6    O     O_R   0.430260 0.500010 0.618770 -0.551259
O7    O     O_R   0.430270 0.500030 0.381200 -0.575070
O8    O     O_R   0.500000 0.680340 0.618760 -0.603087
O9    O     O_R   0.500000 0.680360 0.381190 -0.588009
O10   O     O_R   0.569730 0.499970 0.618800 -0.589765
O11   O     O_R   0.569740 0.499990 0.381230 -0.590469
O12   O     O_2   0.198213 0.305865 0.497663 -0.524276
C59   C     C_1   0.133102 0.864188 0.459555 0.353749
N5    N     N_1   0.154231 0.959870 0.450139 -0.225354
C60   C     C_1   0.033604 0.851347 0.415132 0.229337
N6    N     N_1   0.016382 0.939996 0.376542 -0.303062
C61   C     C_1   0.555135 0.138620 0.305580 0.320810
N7    N     N_1   0.582460 0.193342 0.231343 -0.221555
C62   C     C_1   0.512961 0.901966 0.240265 0.327306
N8    N     N_1   0.512135 0.872757 0.125438 -0.254806
O13   O     O_3   0.628818 0.829805 0.127920 -0.527750
C63   C     C_3   0.661988 0.777244 0.218850 -0.260758
H20   H     H_    0.682089 0.706623 0.166815 0.143131
H21   H     H_    0.643772 0.738561 0.315555 0.141094
H22   H     H_    0.688949 0.851165 0.250507 0.216008
O14   O     O_3   0.630128 0.826399 0.844829 -0.531963
C64   C     C_3   0.664854 0.767838 0.768899 -0.233304
H23   H     H_    0.648346 0.721481 0.677366 0.134075
H24   H     H_    0.683946 0.701438 0.835926 0.149130
H25   H     H_    0.692375 0.839183 0.728256 0.215243
O15   O     O_3   0.434284 0.351776 0.855484 -0.565881
C65   C     C_3   0.389758 0.327325 0.925982 -0.426327
H26   H     H_    0.362415 0.292837 0.850107 0.189168
H27   H     H_    0.376464 0.411736 0.970465 0.181599
H28   H     H_    0.392348 0.252879 0.007285 0.177669
C66   C     C_1   0.650188 0.442552 0.759133 0.266786
N9    N     N_1   0.632722 0.422539 0.868015 -0.268086
C67   C     C_1   0.354213 0.588230 0.245730 0.266169
N10   N     N_1   0.373699 0.619329 0.142251 -0.300297

loop_
_geom_bond_atom_site_label_1
_geom_bond_atom_site_label_2
_ccdc_geom_bond_type
C10   C27   A    
C21   C26   A    
C38   H10   S    
C23   O8    A    
C41   C42   A    
C34   O10   A    
C7    C55   A    
O15   C65   S    
Cu2   O5    S    
C36   H7    S    
C33   H5    S    
C6    H15   S    
C53   C54   A    
C1    O1    A    
C40   C46   A    
C63   H21   S    
C21   H16   S    
C43   C61   S    
C12   O7    A    
C36   C37   A    
Cu1   N4    S    
C19   O4    S    
C50   H14   S    
C5    C6    A    
C9    C22   A    
C31   C59   S    
C48   O13   S    
C37   H8    S    
C56   C57   A    
C18   C19   A    
Cu1   O6    S    
C64   H23   S    
C54   N4    A    
C20   N2    A    
C8    C58   A    
Cu2   N3    S    
C16   C17   A    
C65   H27   S    
C2    H9    S    
C16   C20   A    
C58   H1    S    
Cu1   Cu2   S    
C24   H4    S    
C23   C46   S    
C21   C22   A    
C59   N5    T    
C27   C30   A    
C36   C41   A    
C4    C7    A    
C3    N1    S    
O13   C63   S    
C4    C28   A    
C44   C46   A    
C17   C18   A    
Cu2   O9    S    
C22   C66   S    
C63   H22   S    
C35   C60   S    
C7    C31   A    
C51   C52   A    
C12   O6    A    
C38   C39   A    
Cu1   O1    S    
C47   H13   S    
C10   C14   A    
C39   C40   A    
C44   C62   S    
C25   C26   A    
C5    C45   A    
C53   N3    A    
C43   C44   A    
C37   C38   A    
C8    C57   A    
C3    C56   A    
C47   C48   A    
C8    C12   S    
C65   H28   S    
C20   O2    S    
C50   C51   A    
Cu1   O8    S    
C24   C25   A    
C52   N3    A    
C64   H25   S    
C67   N10   T    
C30   H19   S    
C40   C41   A    
C6    C30   A    
C11   C32   A    
C60   N6    T    
C26   N2    S    
C9    C34   S    
C56   H2    S    
C42   C43   A    
C45   O12   S    
C51   N4    A    
C49   O14   S    
C28   C29   A    
C23   O9    A    
C25   H6    S    
C34   O11   A    
C32   H3    S    
C4    C5    A    
C10   C13   A    
C66   N9    T    
C2    C58   A    
C9    C24   A    
C47   C52   A    
Cu2   O7    S    
C63   H20   S    
C29   C35   A    
C13   C17   A    
C32   C33   A    
C55   O3    S    
C2    C3    A    
O14   C64   S    
C55   N1    A    
C11   C13   A    
C65   H26   S    
C15   H17   S    
C1    O5    A    
C48   C49   A    
C54   O15   S    
C61   N7    T    
C45   N1    A    
C31   C35   A    
C14   H18   S    
C62   N8    T    
C18   C33   A    
C64   H24   S    
C57   C67   S    
C1    C42   S    
C11   C29   A    
C49   C50   A    
C27   C28   A    
C39   H11   S    
C14   C15   A    
Cu1   O10   S    
C19   N2    A    
C53   H12   S    
C15   C16   A    
Cu2   O11   S    
