data_mof_unit_16872.cif
_audit_creation_date              2012-12-10T17:27:01-0500
_audit_creation_method            fapswitch 2.2
_symmetry_space_group_name_H-M    P1
_symmetry_Int_Tables_number       1
_space_group_crystal_system       triclinic
_cell_length_a                    18.377387
_cell_length_b                    18.145065
_cell_length_c                    11.960704
_cell_angle_alpha                 89.746956
_cell_angle_beta                  86.146071
_cell_angle_gamma                 90.399418
_cell_volume                      3979.23940163

loop_
_atom_site_label
_atom_site_type_symbol
_atom_type_description
_atom_site_fract_x
_atom_site_fract_y
_atom_site_fract_z
_atom_type_partial_charge
C1    C     C_R   0.401008 0.101511 0.520835 0.956592
C2    C     C_R   0.535124 0.001661 0.020648 -0.110826
C3    C     C_R   0.965131 0.497804 0.979308 -0.105074
C4    C     C_R   0.035283 0.502604 0.020470 -0.107970
C5    C     C_R   0.587238 0.002684 0.828564 -0.103451
C6    C     C_R   0.412920 0.995005 0.171434 -0.139494
C7    C     C_R   0.087156 0.504071 0.828094 -0.100274
C8    C     C_R   0.912964 0.494860 0.171374 -0.146849
C9    C     C_R   0.597027 0.005101 0.944498 0.452804
C10   C     C_R   0.403220 0.993057 0.055593 0.435547
C11   C     C_R   0.097218 0.507459 0.944071 0.463188
C12   C     C_R   0.599458 0.899510 0.478575 0.971653
C13   C     C_R   0.903297 0.492696 0.055429 0.437136
C14   C     C_R   0.458708 0.997622 0.862423 -0.036729
C15   C     C_R   0.541312 0.002681 0.137618 -0.036182
C16   C     C_R   0.958798 0.497208 0.862458 -0.036095
C17   C     C_R   0.041317 0.503271 0.137552 -0.054672
C18   C     C_R   0.658670 0.151927 0.466281 -0.268679
C19   C     C_R   0.341466 0.848260 0.533583 -0.268730
C20   C     C_R   0.348417 0.160309 0.530929 -0.302724
C21   C     C_R   0.653873 0.843527 0.465490 -0.292937
C22   C     C_R   0.158405 0.652091 0.466952 -0.269242
C23   C     C_R   0.599322 0.100756 0.478671 0.980110
C24   C     C_R   0.842619 0.347059 0.533029 -0.272378
C25   C     C_R   0.849004 0.660911 0.530520 -0.302194
C26   C     C_R   0.153135 0.342764 0.466059 -0.284630
C27   C     C_R   0.218122 0.822494 0.602416 -0.260842
C28   C     C_R   0.778659 0.182363 0.387351 -0.283675
C29   C     C_R   0.697585 0.732922 0.375787 -0.265593
C30   C     C_R   0.301758 0.268961 0.625229 -0.251814
C31   C     C_R   0.722307 0.317056 0.610430 -0.258978
C32   C     C_R   0.282226 0.677152 0.401099 -0.264237
C33   C     C_R   0.195934 0.231427 0.377464 -0.266814
C34   C     C_R   0.400804 0.899217 0.521309 0.992289
C35   C     C_R   0.802847 0.770002 0.624316 -0.248529
C36   C     C_R   0.279715 0.866958 0.602406 0.430343
C37   C     C_R   0.717146 0.136755 0.388413 0.433815
C38   C     C_R   0.649932 0.791480 0.379403 0.448346
C39   C     C_R   0.347428 0.208325 0.623320 0.444012
C40   C     C_R   0.783048 0.362512 0.608267 0.431702
C41   C     C_R   0.219878 0.633945 0.397234 0.410386
C42   C     C_R   0.148455 0.290190 0.380883 0.447209
C43   C     C_R   0.848254 0.709116 0.622672 0.446778
C44   C     C_R   0.341848 0.787645 0.461580 0.430185
C45   C     C_R   0.901132 0.601649 0.520776 0.955170
C46   C     C_R   0.661082 0.209091 0.544508 0.430765
C47   C     C_R   0.707739 0.839618 0.543522 0.456528
C48   C     C_R   0.301051 0.170911 0.444163 0.439812
C49   C     C_R   0.841117 0.289097 0.456037 0.434099
C50   C     C_R   0.157785 0.712724 0.539265 0.428644
C51   C     C_R   0.207008 0.338753 0.544008 0.453276
C52   C     C_R   0.802083 0.671941 0.443293 0.443689
C53   C     C_R   0.281118 0.741219 0.465641 -0.081806
C54   C     C_R   0.721079 0.256230 0.538976 -0.083440
C55   C     C_R   0.753972 0.779418 0.540802 -0.080393
C56   C     C_R   0.099357 0.399401 0.478649 0.978893
C57   C     C_R   0.249664 0.226519 0.454555 -0.085116
C58   C     C_R   0.780665 0.242218 0.460607 -0.073339
C59   C     C_R   0.218514 0.759200 0.535844 -0.080100
C60   C     C_R   0.252908 0.278327 0.541696 -0.077011
C61   C     C_R   0.750949 0.727772 0.453384 -0.088964
C62   C     C_3   0.618502 0.192109 0.727971 -0.210011
C63   C     C_3   0.390516 0.796607 0.280160 -0.205193
C64   C     C_3   0.339529 0.162452 0.259124 -0.277711
C65   C     C_3   0.754061 0.952168 0.583368 -0.340686
C66   C     C_3   0.107573 0.702035 0.719821 -0.209225
C67   C     C_R   0.099216 0.600823 0.478810 0.995275
C68   C     C_3   0.887386 0.305526 0.273810 -0.200152
C69   C     C_3   0.841368 0.663486 0.258591 -0.282379
C70   C     C_3   0.257055 0.449610 0.583163 -0.307925
C71   C     C_3   0.776067 0.041116 0.288353 -0.341442
C72   C     C_3   0.244254 0.986402 0.616673 -0.296996
C73   C     C_3   0.361111 0.175810 0.804425 -0.247925
C74   C     C_3   0.624513 0.815672 0.199505 -0.250869
C75   C     C_3   0.231442 0.580772 0.224539 -0.291273
C76   C     C_3   0.747495 0.481217 0.633347 -0.290887
C77   C     C_3   0.861996 0.677180 0.804038 -0.260604
C78   C     C_R   0.901281 0.398751 0.521116 0.987474
C79   C     C_3   0.121830 0.313249 0.201138 -0.242393
C80   C     C_3   0.704435 0.069314 0.948470 -0.325921
C81   C     C_3   0.300420 0.923191 0.044113 -0.312157
C82   C     C_3   0.208151 0.568031 0.932760 -0.394374
C83   C     C_3   0.797473 0.425797 0.051212 -0.305862
C84   C     C_R   0.464991 0.997806 0.979353 -0.107485
H1    H     H_    0.366132 0.993237 0.231284 0.178675
H2    H     H_    0.566919 0.172469 0.772179 0.206027
H3    H     H_    0.641089 0.235862 0.780252 0.136577
H4    H     H_    0.443540 0.812805 0.236934 0.212044
H5    H     H_    0.353806 0.845125 0.276823 0.126287
H6    H     H_    0.367878 0.750780 0.231905 0.125789
H7    H     H_    0.335960 0.128225 0.183181 0.194680
H8    H     H_    0.398181 0.171225 0.272821 0.183069
H9    H     H_    0.314524 0.216379 0.240673 0.140585
H10   H     H_    0.761496 0.991869 0.651998 0.184592
H11   H     H_    0.725472 0.981546 0.517597 0.164439
H12   H     H_    0.633935 0.002635 0.768620 0.172788
H13   H     H_    0.809254 0.934708 0.549909 0.162148
H14   H     H_    0.146796 0.655538 0.723168 0.123773
H15   H     H_    0.054598 0.682247 0.759282 0.214625
H16   H     H_    0.126387 0.747984 0.771676 0.137486
H17   H     H_    0.938286 0.331812 0.237236 0.210008
H18   H     H_    0.843697 0.347956 0.274778 0.118707
H19   H     H_    0.873524 0.260405 0.216630 0.132727
H20   H     H_    0.838176 0.629279 0.182550 0.194954
H21   H     H_    0.899923 0.672037 0.273186 0.180875
H22   H     H_    0.816681 0.717510 0.239777 0.137483
H23   H     H_    0.866260 0.493182 0.231343 0.178863
H24   H     H_    0.262136 0.491371 0.649661 0.176611
H25   H     H_    0.232755 0.477299 0.511660 0.195357
H26   H     H_    0.312898 0.429905 0.557429 0.170215
H27   H     H_    0.808213 0.033833 0.363252 0.146634
H28   H     H_    0.808983 0.069700 0.219741 0.175868
H29   H     H_    0.762817 0.985257 0.257889 0.193573
H30   H     H_    0.185104 0.974183 0.612612 0.168273
H31   H     H_    0.269726 0.997839 0.531154 0.161555
H32   H     H_    0.249372 0.037318 0.666625 0.182715
H33   H     H_    0.331326 0.123181 0.791465 0.168642
H34   H     H_    0.133373 0.504401 0.767350 0.171878
H35   H     H_    0.323170 0.217989 0.841414 0.148441
H36   H     H_    0.402319 0.164658 0.865919 0.182057
H37   H     H_    0.660366 0.772333 0.160787 0.145367
H38   H     H_    0.654946 0.868845 0.203217 0.166116
H39   H     H_    0.579213 0.824355 0.144179 0.181322
H40   H     H_    0.285804 0.605272 0.200075 0.145402
H41   H     H_    0.187238 0.616293 0.195370 0.171937
H42   H     H_    0.228564 0.527104 0.181115 0.223049
H43   H     H_    0.688314 0.468752 0.630279 0.167690
H44   H     H_    0.771650 0.495926 0.548199 0.154308
H45   H     H_    0.594270 0.005783 0.171902 0.208294
H46   H     H_    0.752892 0.530246 0.687302 0.183760
H47   H     H_    0.831911 0.624653 0.791736 0.168545
H48   H     H_    0.824348 0.719720 0.840712 0.151124
H49   H     H_    0.903237 0.666065 0.865495 0.179900
H50   H     H_    0.157304 0.269531 0.162633 0.143866
H51   H     H_    0.152454 0.366385 0.203407 0.166499
H52   H     H_    0.076125 0.321608 0.146467 0.180433
H53   H     H_    0.676050 0.330841 0.666938 0.201465
H54   H     H_    0.331796 0.659211 0.355716 0.202094
H55   H     H_    0.189843 0.189330 0.314758 0.209414
H56   H     H_    0.405703 0.995058 0.828206 0.203964
H57   H     H_    0.805878 0.809370 0.691709 0.210798
H58   H     H_    0.170220 0.838586 0.653722 0.199836
H59   H     H_    0.824595 0.171230 0.329216 0.192217
H60   H     H_    0.691811 0.691099 0.312567 0.210798
H61   H     H_    0.304649 0.308237 0.692772 0.210137
H62   H     H_    0.670817 0.119805 0.961951 0.149346
H63   H     H_    0.724880 0.064905 0.859250 0.148716
H64   H     H_    0.752656 0.075460 0.998773 0.203080
H65   H     H_    0.283444 0.919962 0.134939 0.149191
H66   H     H_    0.336280 0.875975 0.018908 0.151699
H67   H     H_    0.094136 0.506403 0.171921 0.183399
H68   H     H_    0.250404 0.918107 0.997622 0.209628
H69   H     H_    0.176694 0.620210 0.929899 0.148419
H70   H     H_    0.230334 0.552262 0.847686 0.176687
H71   H     H_    0.255714 0.578916 0.982683 0.191488
H72   H     H_    0.776543 0.429857 0.140248 0.154871
H73   H     H_    0.832439 0.376197 0.038209 0.146603
H74   H     H_    0.749652 0.418242 0.000451 0.211201
H75   H     H_    0.905819 0.493981 0.828255 0.207290
H76   H     H_    0.656789 0.144639 0.723273 0.120463
N1    N     N_R   0.480750 0.000000 0.209750 -0.136834
N2    N     N_R   0.519250 0.000000 0.790250 -0.137587
N3    N     N_R   0.980750 0.500000 0.209750 -0.133768
N4    N     N_R   0.019250 0.500000 0.790250 -0.140319
O1    O     O_R   0.418020 0.076820 0.422210 -0.601256
O2    O     O_R   0.569630 0.923170 0.391410 -0.587462
O3    O     O_R   0.569630 0.076830 0.391410 -0.598709
O4    O     O_R   0.430370 0.923170 0.608590 -0.601749
O5    O     O_R   0.930370 0.576830 0.608590 -0.581933
O6    O     O_R   0.069630 0.423170 0.391410 -0.586589
O7    O     O_R   0.069630 0.576830 0.391410 -0.620099
O8    O     O_R   0.930370 0.423170 0.608590 -0.598290
O9    O     O_3   0.602369 0.220502 0.621880 -0.583757
O10   O     O_3   0.403041 0.773379 0.390481 -0.581702
O11   O     O_3   0.302975 0.125165 0.351188 -0.603967
O12   O     O_R   0.581980 0.923180 0.577790 -0.586991
O13   O     O_3   0.712242 0.891902 0.627087 -0.588148
O14   O     O_3   0.096380 0.727024 0.609862 -0.591540
O15   O     O_3   0.900829 0.276795 0.380899 -0.581006
O16   O     O_3   0.804094 0.626331 0.350152 -0.600573
O17   O     O_3   0.212036 0.391587 0.626635 -0.598648
O18   O     O_3   0.710087 0.078870 0.313213 -0.592530
O19   O     O_3   0.279870 0.928713 0.669947 -0.594680
O20   O     O_3   0.397568 0.201485 0.704033 -0.567977
O21   O     O_3   0.594651 0.793541 0.306297 -0.566005
O22   O     O_3   0.222199 0.567443 0.340725 -0.628186
O23   O     O_R   0.581980 0.076820 0.577790 -0.623449
O24   O     O_3   0.784460 0.421937 0.680296 -0.591825
O25   O     O_3   0.898457 0.702209 0.703276 -0.572800
O26   O     O_3   0.092630 0.292013 0.308709 -0.565101
O27   O     O_3   0.666150 0.004852 0.984312 -0.610256
O28   O     O_3   0.333991 0.991623 0.016496 -0.616227
O29   O     O_3   0.166374 0.510015 0.984259 -0.626526
O30   O     O_3   0.834185 0.491198 0.015588 -0.616776
O31   O     O_R   0.418020 0.923180 0.422210 -0.623896
O32   O     O_R   0.918020 0.576820 0.422210 -0.598664
O33   O     O_R   0.081980 0.423180 0.577790 -0.587871
O34   O     O_R   0.081980 0.576820 0.577790 -0.626366
O35   O     O_R   0.918020 0.423180 0.422210 -0.622203
O36   O     O_R   0.430370 0.076830 0.608590 -0.578647
Zn1   Zn    Zn3+2 0.491750 1.000000 0.375560 0.979809
Zn2   Zn    Zn3+2 0.508250 0.000000 0.624440 0.994373
Zn3   Zn    Zn3+2 0.991750 0.500000 0.375560 0.970527
Zn4   Zn    Zn3+2 0.008250 0.500000 0.624440 0.992292

loop_
_geom_bond_atom_site_label_1
_geom_bond_atom_site_label_2
_ccdc_geom_bond_type
C34   O31   A    
C8    C13   A    
C73   H35   S    
C63   H4    S    
C2    C84   A    
C71   O18   S    
C68   H19   S    
C14   C84   A    
C67   O34   A    
C25   C43   A    
C53   C59   A    
C48   C57   A    
C16   N4    A    
C7    C11   A    
C79   H52   S    
C66   O14   S    
C72   H31   S    
N3    Zn3   S    
C6    H1    S    
C65   O13   S    
N2    Zn2   S    
C50   C59   A    
N1    Zn1   S    
C50   O14   S    
C18   C37   A    
C44   O10   S    
C64   H9    S    
C52   C61   A    
C69   O16   S    
C12   O2    A    
C22   C41   A    
C81   H66   S    
C72   H30   S    
C27   H58   S    
C31   C40   A    
C71   H29   S    
O33   Zn4   S    
C77   H47   S    
C66   H16   S    
O8    Zn4   S    
O1    Zn1   S    
C82   O29   S    
C70   H26   S    
C82   H69   S    
C76   H46   S    
C44   C53   A    
C80   H63   S    
C21   C38   A    
C79   O26   S    
C71   H27   S    
C29   C38   A    
C41   O22   S    
C32   C41   A    
C31   H53   S    
C35   C43   A    
C39   O20   S    
C76   O24   S    
C12   O12   A    
C74   O21   S    
C45   O32   A    
C80   H62   S    
C74   H39   S    
C49   O15   S    
C73   H36   S    
C16   H75   S    
O35   Zn3   S    
C7    H34   S    
C63   H5    S    
C32   H54   S    
C17   H67   S    
C77   H49   S    
C34   O4    A    
C18   C46   A    
C29   C61   A    
C73   H33   S    
C35   C55   A    
C18   C23   S    
O12   Zn2   S    
C68   H17   S    
C36   O19   S    
C73   O20   S    
C69   H21   S    
C57   C60   A    
C83   H72   S    
C67   O7    A    
C62   O9    S    
C12   C21   S    
C8    N3    A    
C10   O28   S    
C49   C58   A    
C75   H40   S    
C45   O5    A    
O32   Zn3   S    
C77   H48   S    
C66   H15   S    
C14   N2    A    
C80   H64   S    
C52   O16   S    
C81   O28   S    
C5    C9    A    
C70   H25   S    
C62   H2    S    
C42   O26   S    
C70   O17   S    
C15   H45   S    
C6    N1    A    
C1    O1    A    
C69   H22   S    
C4    C11   A    
C71   H28   S    
C46   C54   A    
C78   O8    A    
O31   Zn1   S    
C46   O9    S    
C28   H59   S    
C64   O11   S    
C2    C15   A    
O23   Zn2   S    
O6    Zn3   S    
C20   C48   A    
C26   C56   S    
C35   H57   S    
C23   O3    A    
C82   H71   S    
C24   C78   S    
C65   H10   S    
C74   H38   S    
C14   H56   S    
C13   O30   S    
O34   Zn4   S    
C76   H44   S    
C80   O27   S    
C62   H76   S    
C30   H61   S    
C1    O36   A    
N4    Zn4   S    
C78   O35   A    
C4    C17   A    
C3    C4    A    
C38   O21   S    
C8    H23   S    
C25   C45   S    
C32   C53   A    
C5    H12   S    
C30   C60   A    
C19   C44   A    
C26   C42   A    
C63   O10   S    
C47   C55   A    
C56   O33   A    
C7    N4    A    
C69   H20   S    
C75   O22   S    
C24   C49   A    
C20   C39   A    
C79   H50   S    
C33   C42   A    
C1    C20   S    
C33   C57   A    
C56   O6    A    
C15   N1    A    
C11   O29   S    
C72   O19   S    
C68   H18   S    
C51   O17   S    
C19   C34   S    
C3    C13   A    
C6    C10   A    
C83   H73   S    
C40   O24   S    
C28   C58   A    
C27   C36   A    
C81   H68   S    
C79   H51   S    
C62   H3    S    
C72   H32   S    
C68   O15   S    
C22   C50   A    
C19   C36   A    
C75   H42   S    
C77   O25   S    
C5    N2    A    
C48   O11   S    
C83   O30   S    
C25   C52   A    
C65   H13   S    
C47   O13   S    
C27   C59   A    
C26   C51   A    
O5    Zn4   S    
C23   O23   A    
C29   H60   S    
C66   H14   S    
C83   H74   S    
C17   N3    A    
C28   C37   A    
C33   H55   S    
C81   H65   S    
C37   O18   S    
C55   C61   A    
C63   H6    S    
C10   C84   A    
C24   C40   A    
O4    Zn2   S    
C30   C39   A    
O3    Zn1   S    
C31   C54   A    
O7    Zn3   S    
C22   C67   S    
C82   H70   S    
C65   H11   S    
C74   H37   S    
C54   C58   A    
C43   O25   S    
O36   Zn2   S    
C76   H43   S    
C64   H8    S    
C70   H24   S    
C51   C60   A    
C64   H7    S    
C75   H41   S    
C9    O27   S    
C2    C9    A    
O2    Zn1   S    
C3    C16   A    
C21   C47   A    
