data_mof_unit_59274.cif
_audit_creation_date              2012-12-10T17:47:42-0500
_audit_creation_method            fapswitch 2.2
_symmetry_space_group_name_H-M    P1
_symmetry_Int_Tables_number       1
_space_group_crystal_system       triclinic
_cell_length_a                    10.683957
_cell_length_b                    10.664262
_cell_length_c                    9.884966
_cell_angle_alpha                 91.209973
_cell_angle_beta                  90.967643
_cell_angle_gamma                 91.830617
_cell_volume                      1125.25895658

loop_
_atom_site_label
_atom_site_type_symbol
_atom_type_description
_atom_site_fract_x
_atom_site_fract_y
_atom_site_fract_z
_atom_type_partial_charge
C1    C     C_R   0.509830 0.260333 0.499199 0.841195
C2    C     C_3   0.877910 0.488650 0.503365 0.073209
C3    C     C_3   0.931761 0.624531 0.509713 -0.412649
C4    C     C_3   0.919237 0.427292 0.367632 -0.471467
C5    C     C_R   0.608496 0.120613 0.731500 -0.165624
C6    C     C_R   0.606817 0.065503 0.857835 -0.174888
C7    C     C_R   0.533998 0.957103 0.876315 -0.228936
C8    C     C_R   0.472053 0.896685 0.765506 0.255833
C9    C     C_R   0.492107 0.942163 0.632378 0.065254
C10   C     C_R   0.541261 0.064094 0.620483 0.058336
C11   C     C_R   0.517093 0.126499 0.498647 -0.103397
C12   C     C_R   0.257627 0.493771 0.498483 0.821084
C13   C     C_R   0.474550 0.060591 0.382416 -0.229101
C14   C     C_R   0.455634 0.933222 0.386655 -0.234885
C15   C     C_R   0.468919 0.872491 0.509614 -0.129758
C16   C     C_R   0.347253 0.325152 0.133112 -0.139706
C17   C     C_R   0.275248 0.235762 0.059484 -0.228353
C18   C     C_R   0.271628 0.238339 0.919738 -0.198791
C19   C     C_R   0.342669 0.328226 0.852935 -0.144405
C20   C     C_R   0.423111 0.414859 0.924193 0.166519
C21   C     C_R   0.424152 0.414185 0.068804 0.170261
C22   C     C_R   0.573343 0.581791 0.074834 -0.142610
C23   C     C_R   0.486532 0.739223 0.502297 0.905031
C24   C     C_R   0.573670 0.581399 0.931516 -0.151051
C25   C     C_R   0.741748 0.493636 0.501263 0.849551
C26   C     C_3   0.074551 0.415892 0.623563 -0.459217
C27   C     C_3   0.930056 0.407033 0.621671 0.101924
C28   C     C_3   0.074643 0.623551 0.512762 -0.434695
C29   C     C_3   0.063502 0.413170 0.365075 0.433990
C30   C     C_3   0.120672 0.487244 0.495765 0.081098
H1    H     H_    0.112417 0.464066 0.716490 0.215289
H2    H     H_    0.899883 0.676259 0.419410 0.166732
H3    H     H_    0.456194 0.107033 0.288038 0.171697
H4    H     H_    0.662623 0.207258 0.721234 0.147940
H5    H     H_    0.656046 0.110878 0.943049 0.147043
H6    H     H_    0.522725 0.922075 0.977589 0.132124
H7    H     H_    0.432205 0.882104 0.293217 0.166227
H8    H     H_    0.633129 0.648612 0.131370 0.147712
H9    H     H_    0.112256 0.319964 0.627347 0.147043
H10   H     H_    0.338288 0.324106 0.239773 0.205846
H11   H     H_    0.219625 0.165959 0.111028 0.160235
H12   H     H_    0.212214 0.171451 0.862653 0.144327
H13   H     H_    0.633304 0.648215 0.879998 0.153680
H14   H     H_    0.903293 0.307744 0.593546 0.091060
H15   H     H_    0.108390 0.663199 0.611864 0.184135
H16   H     H_    0.896720 0.677072 0.598731 0.180989
H17   H     H_    0.866504 0.336936 0.352237 0.168046
N1    N     N_R   0.498810 0.498800 0.142780 -0.117428
N2    N     N_R   0.498760 0.498720 0.857170 -0.117327
O1    O     O_R   0.500000 0.316780 0.614690 -0.641829
O2    O     O_R   0.499990 0.316750 0.385360 -0.648593
O3    O     O_R   0.314800 0.499990 0.614670 -0.639223
O4    O     O_R   0.314790 0.499970 0.385330 -0.619739
O5    O     O_R   0.500010 0.683250 0.614640 -0.596188
O6    O     O_R   0.500000 0.683220 0.385310 -0.625185
O7    O     O_R   0.685210 0.500030 0.614670 -0.591383
O8    O     O_R   0.685200 0.500010 0.385330 -0.629373
Zn1   Zn    Zn3+2 0.500010 0.500020 0.653130 0.936228
Zn2   Zn    Zn3+2 0.499990 0.499980 0.346870 0.921075
H18   H     H_    0.888306 0.484137 0.281034 0.192040
H19   H     H_    0.113524 0.689034 0.438051 0.172903
N3    N     N_2   0.377050 0.803910 0.791624 -0.266079
H20   H     H_    0.388706 0.759503 0.882467 0.224237
C31   C     C_3   0.250925 0.846801 0.773898 -0.827176
H21   H     H_    0.182999 0.771653 0.803089 0.227689
H22   H     H_    0.232931 0.870388 0.666528 0.243875
H23   H     H_    0.236267 0.930570 0.839898 0.235822
H24   H     H_    0.330945 0.327049 0.745988 0.201122
N4    N     N_2   0.875105 0.431404 0.754407 -0.264798
H25   H     H_    0.842115 0.352113 0.802073 0.210667
C32   C     C_3   0.925928 0.526960 0.848245 -0.774386
H26   H     H_    0.851075 0.557349 0.916840 0.234593
H27   H     H_    0.963226 0.610185 0.795731 0.237671
H28   H     H_    0.001315 0.487255 0.911210 0.222161
N5    N     N_2   0.111554 0.456470 0.234434 -0.281777
H29   H     H_    0.084272 0.398377 0.153950 0.235120
C33   C     C_3   0.113186 0.587298 0.195978 -0.805476
H30   H     H_    0.193652 0.639872 0.243994 0.263072
H31   H     H_    0.024042 0.632671 0.219004 0.227060
H32   H     H_    0.127823 0.593591 0.085343 0.223955
N6    N     N_2   0.095779 0.280487 0.378257 -0.324735
H33   H     H_    0.189825 0.265025 0.392080 0.204405
C34   C     C_3   0.029163 0.179872 0.302883 -0.873111
H34   H     H_    0.090009 0.097844 0.292034 0.237562
H35   H     H_    0.999934 0.209541 0.200587 0.239188
H36   H     H_    0.946014 0.147527 0.359889 0.249484

loop_
_geom_bond_atom_site_label_1
_geom_bond_atom_site_label_2
_ccdc_geom_bond_type
C22   N1    A    
C16   C21   A    
O6    Zn2   S    
C7    H6    S    
C19   C20   A    
C1    C11   S    
C25   O7    A    
N6    H33   S    
O4    Zn2   S    
C7    C8    A    
C33   H30   S    
C13   H3    S    
C26   C27   S    
N3    H20   S    
C23   O5    A    
C3    C28   S    
C18   H12   S    
O5    Zn1   S    
C5    C6    A    
C26   H9    S    
O8    Zn2   S    
C22   H8    S    
C6    H5    S    
C18   C19   A    
N4    C32   S    
N3    C31   S    
N6    C34   S    
C27   H14   S    
C8    C9    A    
C2    C27   S    
C1    O1    A    
C4    C29   S    
C27   N4    S    
C21   N1    A    
C28   H19   S    
C15   C23   S    
C26   H1    S    
C13   C14   A    
N4    H25   S    
C25   O8    A    
C12   O3    A    
C33   H31   S    
C28   H15   S    
O1    Zn1   S    
C31   H23   S    
C32   H27   S    
C16   C17   A    
N2    Zn1   S    
C31   H22   S    
C2    C4    S    
N5    H29   S    
C29   N6    S    
C29   C30   S    
C20   N2    A    
C1    O2    A    
C34   H34   S    
C5    H4    S    
C4    H18   S    
C17   C18   A    
C19   H24   S    
N5    C33   S    
O3    Zn1   S    
C16   H10   S    
C34   H35   S    
C26   C30   S    
C22   C24   A    
O2    Zn2   S    
N1    Zn2   S    
C9    C10   A    
C33   H32   S    
C24   N2    A    
C12   C30   S    
C12   O4    A    
C32   H28   S    
C23   O6    A    
C6    C7    A    
C29   N5    S    
C3    H16   S    
C31   H21   S    
C28   C30   S    
C2    C3    S    
C9    C15   A    
C5    C10   A    
C14   H7    S    
C11   C13   A    
O7    Zn1   S    
C2    C25   S    
C3    H2    S    
C17   H11   S    
C10   C11   A    
C32   H26   S    
C34   H36   S    
C20   C21   A    
C24   H13   S    
C14   C15   A    
C8    N3    S    
C4    H17   S    
