data_mof_unit_45236.cif
_audit_creation_date              2012-12-10T17:33:59-0500
_audit_creation_method            fapswitch 2.2
_symmetry_space_group_name_H-M    P1
_symmetry_Int_Tables_number       1
_space_group_crystal_system       triclinic
_cell_length_a                    11.096862
_cell_length_b                    12.180708
_cell_length_c                    12.88109
_cell_angle_alpha                 95.338293
_cell_angle_beta                  92.63209
_cell_angle_gamma                 85.998199
_cell_volume                      1727.96499122

loop_
_atom_site_label
_atom_site_type_symbol
_atom_type_description
_atom_site_fract_x
_atom_site_fract_y
_atom_site_fract_z
_atom_type_partial_charge
C1    C     C_R   0.486760 0.522332 0.699885 0.913336
C2    C     C_R   0.471231 0.445298 0.973059 0.011005
C3    C     C_R   0.543449 0.529349 0.023434 0.053628
C4    C     C_R   0.742131 0.500467 0.498809 0.862102
C5    C     C_R   0.574786 0.524462 0.131222 0.116144
C6    C     C_R   0.451931 0.364906 0.135724 0.164739
C7    C     C_R   0.435356 0.360814 0.029254 -0.157838
C8    C     C_R   0.392749 0.952958 0.392543 0.085642
C9    C     C_R   0.416747 0.836778 0.394992 0.061065
C10   C     C_R   0.530591 0.865503 0.553415 -0.012454
C11   C     C_R   0.538837 0.978094 0.534426 -0.088948
C12   C     C_3   0.120607 0.506705 0.493495 -0.193354
C13   C     C_R   0.459984 0.024740 0.460128 0.066263
C14   C     C_R   0.455040 0.141058 0.453230 -0.020089
C15   C     C_R   0.603363 0.161533 0.590874 0.030151
C16   C     C_R   0.504995 0.475623 0.299901 0.953152
C17   C     C_R   0.620859 0.046265 0.591113 -0.106300
C18   C     C_R   0.257929 0.500885 0.496725 0.966718
C19   C     C_3   0.942618 0.422472 0.580212 0.319572
C20   C     C_3   0.081724 0.441228 0.586631 -0.064716
C21   C     C_3   0.926008 0.463043 0.383996 -0.179282
C22   C     C_3   0.917689 0.632135 0.524389 0.227476
C23   C     C_3   0.070222 0.445210 0.382874 -0.134884
C24   C     C_3   0.879149 0.503626 0.497852 -0.013260
C25   C     C_3   0.931321 0.296220 0.545424 -0.715398
C26   C     C_3   0.084438 0.696661 0.408584 -0.872174
C27   C     C_2   0.117552 0.491223 0.286230 0.904255
C28   C     C_3   0.677270 0.585941 0.186553 -0.869940
C29   C     C_3   0.402586 0.273589 0.190391 -0.807585
C30   C     C_3   0.656879 0.706654 0.997089 -0.854969
C31   C     C_3   0.424705 0.732863 0.862199 -0.821866
C32   C     C_3   0.364149 0.351874 0.813957 -0.787025
C33   C     C_3   0.884039 0.435890 0.690402 -0.789781
C34   C     C_3   0.061135 0.635185 0.507490 0.095051
C35   C     C_2   0.667650 0.227055 0.676135 0.977197
C36   C     C_3   0.301130 0.999298 0.314254 -0.887291
C37   C     C_2   0.737203 0.999127 0.634838 0.926778
C38   C     C_2   0.399321 0.772736 0.292933 0.965000
C39   C     C_2   0.563620 0.837326 0.659738 0.929653
C40   C     C_3   0.133657 0.477968 0.696642 -0.892411
C41   C     C_3   0.854935 0.372833 0.318388 -0.777165
C42   C     C_2   0.113897 0.322306 0.358305 0.860713
C43   C     C_3   0.844283 0.720707 0.457178 -0.733035
C44   C     C_3   0.882075 0.676098 0.638108 -0.729516
C45   C     C_R   0.512677 0.453340 0.187630 -0.065500
C46   C     C_2   0.118741 0.713235 0.595710 0.981309
C47   C     C_R   0.469497 0.534316 0.812720 -0.134068
C48   C     C_R   0.569060 0.618734 0.965158 0.162618
C49   C     C_R   0.505182 0.629415 0.870575 0.138264
C50   C     C_R   0.438728 0.444423 0.866010 0.150977
H1    H     H_    0.901168 0.533366 0.338409 0.208142
H2    H     H_    0.175382 0.678338 0.383565 0.308046
H3    H     H_    0.082603 0.543839 0.142916 0.358170
H4    H     H_    0.654742 0.675605 0.198445 0.283019
H5    H     H_    0.699358 0.560385 0.265421 0.213247
H6    H     H_    0.761768 0.565931 0.144176 0.258866
H7    H     H_    0.353657 0.214340 0.135897 0.223389
H8    H     H_    0.478360 0.225307 0.227828 0.236542
H9    H     H_    0.337643 0.308130 0.249455 0.282726
H10   H     H_    0.669481 0.757640 0.931665 0.253258
H11   H     H_    0.623274 0.764817 0.061894 0.266388
H12   H     H_    0.387340 0.292759 0.992332 0.167111
H13   H     H_    0.748284 0.669005 0.014520 0.246169
H14   H     H_    0.333125 0.718423 0.887305 0.229415
H15   H     H_    0.456661 0.804146 0.913376 0.249049
H16   H     H_    0.416798 0.754186 0.781163 0.279062
H17   H     H_    0.345759 0.352468 0.729487 0.263417
H18   H     H_    0.408981 0.269299 0.824260 0.279693
H19   H     H_    0.276106 0.355848 0.851847 0.207402
H20   H     H_    0.918265 0.368441 0.738495 0.269479
H21   H     H_    0.904149 0.509434 0.741905 0.210860
H22   H     H_    0.784440 0.433922 0.684422 0.245474
H23   H     H_    0.396615 0.179412 0.395921 0.181598
H24   H     H_    0.661339 0.307622 0.819542 0.340207
H25   H     H_    0.246629 0.935105 0.272000 0.249959
H26   H     H_    0.235909 0.058802 0.356052 0.267218
H27   H     H_    0.347656 0.041339 0.256173 0.249007
H28   H     H_    0.912154 0.957927 0.608725 0.386259
H29   H     H_    0.435754 0.757889 0.140582 0.344430
H30   H     H_    0.571867 0.896014 0.811525 0.358224
H31   H     H_    0.122651 0.412622 0.749120 0.241431
H32   H     H_    0.230491 0.490866 0.694400 0.268012
H33   H     H_    0.091639 0.554009 0.734501 0.267597
H34   H     H_    0.130687 0.359013 0.576884 0.238432
H35   H     H_    0.870852 0.288991 0.343720 0.259905
H36   H     H_    0.756327 0.392644 0.317947 0.214813
H37   H     H_    0.879248 0.368993 0.235427 0.298565
H38   H     H_    0.117476 0.188557 0.252042 0.343168
H39   H     H_    0.823584 0.692006 0.374927 0.205453
H40   H     H_    0.757775 0.755497 0.490036 0.270691
H41   H     H_    0.890503 0.798131 0.458883 0.270472
H42   H     H_    0.862320 0.767045 0.647509 0.283705
H43   H     H_    0.801215 0.638223 0.660542 0.269601
H44   H     H_    0.951758 0.663901 0.699085 0.189124
H45   H     H_    0.983131 0.263187 0.479448 0.216052
H46   H     H_    0.232146 0.739536 0.718523 0.339349
H47   H     H_    0.970148 0.244684 0.607143 0.265460
H48   H     H_    0.839408 0.272219 0.524281 0.279113
H49   H     H_    0.022835 0.677193 0.340887 0.247405
H50   H     H_    0.077790 0.788303 0.421522 0.255792
N1    N     N_R   0.523380 0.207800 0.519350 -0.158861
N2    N     N_R   0.476620 0.792180 0.480650 -0.191140
O1    O     O_R   0.506240 0.421700 0.658830 -0.610024
O2    O     O_R   0.039075 0.517068 0.202342 -0.812431
O3    O     O_2   0.777452 0.219278 0.682746 -0.672512
O4    O     O_R   0.606003 0.273223 0.762513 -0.786222
O5    O     O_2   0.752217 0.991654 0.728633 -0.581145
O6    O     O_R   0.833654 0.975985 0.568938 -0.817160
O7    O     O_2   0.321532 0.706954 0.278102 -0.613558
O8    O     O_R   0.462529 0.799609 0.208581 -0.834328
O9    O     O_2   0.632737 0.758458 0.674897 -0.639115
O10   O     O_R   0.526852 0.911509 0.743711 -0.797614
O11   O     O_2   0.180769 0.272181 0.417956 -0.676965
O12   O     O_R   0.491240 0.609310 0.646410 -0.566507
O13   O     O_R   0.082073 0.267640 0.261281 -0.792785
O14   O     O_2   0.078824 0.809623 0.608509 -0.653237
O15   O     O_R   0.215230 0.680050 0.660733 -0.824866
O16   O     O_R   0.692710 0.406190 0.506230 -0.643292
O17   O     O_R   0.677700 0.593810 0.493810 -0.613801
O18   O     O_R   0.508760 0.390690 0.353590 -0.643921
O19   O     O_R   0.493760 0.578300 0.341170 -0.589718
O20   O     O_R   0.322300 0.406190 0.506190 -0.595662
O21   O     O_R   0.307290 0.593810 0.493770 -0.585519
O22   O     O_2   0.226079 0.497801 0.278252 -0.631458
Zn1   Zn    Zn3+2 0.510020 0.374730 0.508290 0.967329
Zn2   Zn    Zn3+2 0.489980 0.625270 0.491710 1.010581

loop_
_geom_bond_atom_site_label_1
_geom_bond_atom_site_label_2
_ccdc_geom_bond_type
C31   H16   S    
C8    C13   A    
C6    C45   A    
C27   O2    S    
C19   C20   S    
C28   H6    S    
C47   C49   A    
C41   H36   S    
C12   C23   S    
C43   H39   S    
C23   C42   S    
C30   C48   S    
C37   O5    D    
C36   H27   S    
C16   O18   A    
C20   C40   S    
H3    O2    S    
C3    C48   A    
H28   O6    S    
C8    C36   S    
C44   H43   S    
C2    C50   A    
C33   H22   S    
C26   C34   S    
C22   C44   S    
C29   H9    S    
C8    C9    A    
C30   H10   S    
N1    Zn1   S    
C4    O17   A    
C34   C46   S    
O16   Zn1   S    
C23   C27   S    
C38   O8    S    
C36   H26   S    
C1    O1    A    
C44   H42   S    
C26   H49   S    
C32   H18   S    
C39   O9    D    
C30   H13   S    
C40   H33   S    
C4    O16   A    
C31   C49   S    
C41   H37   S    
C31   H14   S    
C15   C35   S    
C28   H5    S    
C47   C50   A    
C22   C34   S    
C43   H40   S    
C14   H23   S    
C40   H32   S    
H46   O15   S    
C10   N2    A    
C37   O6    S    
C19   C33   S    
C28   H4    S    
O18   Zn1   S    
C9    N2    A    
O21   Zn2   S    
C3    C5    A    
C5    C45   A    
H30   O10   S    
C43   H41   S    
C46   O15   S    
C10   C39   S    
C16   O19   A    
C7    H12   S    
N2    Zn2   S    
C35   O3    D    
C36   H25   S    
C26   H2    S    
H24   O4    S    
C5    C28   S    
C25   H48   S    
C42   O11   D    
C22   C43   S    
C12   C20   S    
C17   C37   S    
C15   N1    A    
C38   O7    D    
C32   C50   S    
C6    C7    A    
C33   H20   S    
C18   O20   A    
C32   H17   S    
C21   C41   S    
C25   H47   S    
C39   O10   S    
C29   H7    S    
C25   H45   S    
C21   C23   S    
C2    C7    A    
C22   C24   S    
C21   C24   S    
C1    O12   A    
C12   C34   S    
C21   H1    S    
C31   H15   S    
C48   C49   A    
H29   O8    S    
C40   H31   S    
C1    C47   S    
C14   N1    A    
C11   C17   A    
C16   C45   S    
C27   O22   D    
C15   C17   A    
C32   H19   S    
C41   H35   S    
C18   O21   A    
C46   O14   D    
O20   Zn1   S    
C20   H34   S    
C2    C3    A    
O19   Zn2   S    
C35   O4    S    
C11   C13   A    
H38   O13   S    
C4    C24   S    
C9    C38   S    
C19   C24   S    
C19   C25   S    
C44   H44   S    
C10   C11   A    
C33   H21   S    
O17   Zn2   S    
C42   O13   S    
C6    C29   S    
C29   H8    S    
C30   H11   S    
C12   C18   S    
O12   Zn2   S    
C13   C14   A    
O1    Zn1   S    
C26   H50   S    
