data_mof_unit_24705.cif
_audit_creation_date              2012-12-10T17:22:12-0500
_audit_creation_method            fapswitch 2.2
_symmetry_space_group_name_H-M    P1
_symmetry_Int_Tables_number       1
_space_group_crystal_system       triclinic
_cell_length_a                    10.184376
_cell_length_b                    10.699602
_cell_length_c                    15.778897
_cell_angle_alpha                 90.885731
_cell_angle_beta                  82.546861
_cell_angle_gamma                 95.948709
_cell_volume                      1695.69601559

loop_
_atom_site_label
_atom_site_type_symbol
_atom_type_description
_atom_site_fract_x
_atom_site_fract_y
_atom_site_fract_z
_atom_type_partial_charge
C1    C     C_R   0.556361 0.733486 0.491014 0.867155
C2    C     C_2   0.486774 0.933105 0.462657 -0.212842
C3    C     C_2   0.409802 0.133761 0.493887 -0.312657
C4    C     C_R   0.501598 0.500448 0.661231 0.894602
C5    C     C_2   0.501567 0.067156 0.452612 -0.074705
C6    C     C_2   0.924715 0.497562 0.516453 -0.059422
C7    C     C_2   0.067517 0.473977 0.504357 -0.052373
C8    C     C_R   0.443412 0.267119 0.502090 0.929397
C9    C     C_R   0.498450 0.499586 0.338854 0.887695
C10   C     C_3   0.412909 0.598540 0.957624 -0.246148
C11   C     C_3   0.650118 0.541216 0.939271 -0.304436
C12   C     C_3   0.397545 0.589442 0.057104 -0.299716
C13   C     C_3   0.648585 0.549128 0.040338 -0.228822
C14   C     C_1   0.494868 0.498983 0.250704 0.076687
C15   C     C_3   0.506939 0.500705 0.916400 0.041776
C16   C     C_2   0.398880 0.717809 0.101218 0.955749
C17   C     C_2   0.278192 0.590485 0.924963 0.962968
C18   C     C_2   0.528570 0.256349 0.078279 0.972064
C19   C     C_2   0.727377 0.926977 0.476994 0.958474
C20   C     C_2   0.103271 0.356435 0.461828 0.982878
C21   C     C_2   0.877196 0.572095 0.591242 0.995101
C22   C     C_2   0.756968 0.466645 0.891456 1.014284
C23   C     C_3   0.499663 0.498598 0.083297 -0.060489
C24   C     C_2   0.684315 0.685833 0.069121 0.926163
C25   C     C_2   0.761550 0.481693 0.069629 0.953046
C26   C     C_2   0.304818 0.317771 0.090538 0.895757
C27   C     C_3   0.449425 0.360067 0.050690 -0.140516
C28   C     C_3   0.457885 0.366806 0.950342 -0.397187
C29   C     C_1   0.494504 0.498544 0.175620 0.137014
C30   C     C_1   0.508070 0.501257 0.824447 -0.049174
C31   C     C_1   0.505684 0.501045 0.749528 -0.079807
C32   C     C_2   0.588525 0.867941 0.475811 -0.207086
H1    H     H_    0.295215 0.546382 0.079309 0.169873
H2    H     H_    0.849436 0.072411 0.514163 0.379350
H3    H     H_    0.190528 0.272275 0.357558 0.349811
H4    H     H_    0.818389 0.736732 0.637393 0.340012
H5    H     H_    0.128414 0.633173 0.562452 0.184167
H6    H     H_    0.880482 0.398620 0.413404 0.186260
H7    H     H_    0.836640 0.302104 0.871693 0.377303
H8    H     H_    0.675403 0.636391 0.911258 0.206394
H9    H     H_    0.735261 0.869103 0.039282 0.372026
H10   H     H_    0.959948 0.470324 0.059582 0.385157
H11   H     H_    0.521806 0.299342 0.916978 0.253127
H12   H     H_    0.385758 0.887920 0.464262 0.208313
H13   H     H_    0.173963 0.289794 0.197811 0.367127
H14   H     H_    0.315402 0.089541 0.525252 0.182250
H15   H     H_    0.463309 0.692217 0.936929 0.217496
H16   H     H_    0.361713 0.337534 0.926616 0.242698
H17   H     H_    0.426502 0.907101 0.091749 0.367427
H18   H     H_    0.153718 0.675836 0.860781 0.381347
H19   H     H_    0.642316 0.114657 0.046137 0.366967
H20   H     H_    0.594479 0.112087 0.419671 0.210930
N1    N     N_2   0.842720 0.448890 0.465540 -0.212815
N2    N     N_2   0.157250 0.551040 0.534500 -0.216996
O1    O     O_R   0.431050 0.692470 0.506940 -0.621303
O2    O     O_R   0.430528 0.829300 0.054366 -0.760357
O3    O     O_2   0.198368 0.497276 0.938403 -0.571465
O4    O     O_R   0.245692 0.691420 0.879337 -0.755722
O5    O     O_2   0.526655 0.234502 0.154430 -0.577239
O6    O     O_R   0.596830 0.180367 0.018516 -0.744551
O7    O     O_2   0.821118 0.872796 0.444004 -0.542981
O8    O     O_R   0.751090 0.042972 0.517282 -0.782151
O9    O     O_2   0.066835 0.256120 0.497832 -0.636165
O10   O     O_R   0.171854 0.359159 0.379284 -0.762744
O11   O     O_2   0.871591 0.528013 0.662694 -0.574333
O12   O     O_R   0.651130 0.659650 0.484820 -0.544501
O13   O     O_R   0.848067 0.695083 0.580986 -0.759741
O14   O     O_2   0.844569 0.521003 0.840785 -0.536768
O15   O     O_R   0.759322 0.338840 0.906945 -0.755659
O16   O     O_2   0.690759 0.708334 0.144909 -0.605836
O17   O     O_R   0.713231 0.785300 0.010809 -0.762413
O18   O     O_2   0.741333 0.406298 0.128291 -0.586433
O19   O     O_R   0.893139 0.517392 0.033988 -0.748200
O20   O     O_2   0.219155 0.278438 0.046327 -0.567472
O21   O     O_R   0.271014 0.319925 0.179329 -0.775776
O22   O     O_R   0.389910 0.516410 0.633920 -0.594072
O23   O     O_R   0.609990 0.483590 0.611800 -0.601410
O24   O     O_R   0.348870 0.340350 0.515180 -0.600227
O25   O     O_R   0.568950 0.307530 0.493060 -0.592798
O26   O     O_R   0.390010 0.516410 0.388200 -0.565268
O27   O     O_R   0.610090 0.483590 0.366080 -0.599377
O28   O     O_2   0.366647 0.723534 0.178489 -0.593202
Zn1   Zn    Zn3+2 0.353060 0.521920 0.514770 1.026066
Zn2   Zn    Zn3+2 0.646940 0.478080 0.485230 1.048447

loop_
_geom_bond_atom_site_label_1
_geom_bond_atom_site_label_2
_ccdc_geom_bond_type
H4    O13   S    
C24   O16   D    
C12   C23   S    
C26   C27   S    
N1    Zn2   S    
C23   C29   S    
C10   C15   S    
O25   Zn2   S    
C10   C17   S    
H2    O8    S    
C13   C23   S    
C2    C32   D    
C11   C15   S    
O24   Zn1   S    
C12   C16   S    
C2    H12   S    
C8    O25   A    
C5    H20   S    
H3    O10   S    
C23   C27   S    
C22   O15   S    
C17   O4    S    
H9    O17   S    
C21   O13   S    
C8    O24   A    
C13   C25   S    
O26   Zn1   S    
C19   C32   S    
O22   Zn1   S    
N2    Zn1   S    
C26   O21   S    
C19   O8    S    
H18   O4    S    
C3    C8    S    
O23   Zn2   S    
C6    C21   S    
C1    C32   S    
C13   C24   S    
C9    O26   A    
C20   O10   S    
C9    C14   S    
C16   O2    S    
C16   O28   D    
C1    O12   A    
H7    O15   S    
C25   O18   D    
C22   O14   D    
C10   C12   S    
H5    N2    S    
C18   O6    S    
C2    C5    S    
C6    N1    D    
O1    Zn1   S    
C10   H15   S    
O27   Zn2   S    
C15   C30   S    
C28   H16   S    
H10   O19   S    
C3    H14   S    
C21   O11   D    
C18   C27   S    
C3    C5    D    
C6    C7    S    
H17   O2    S    
C28   H11   S    
H13   O21   S    
C20   O9    D    
C1    O1    A    
C4    O23   A    
C11   C13   S    
C15   C28   S    
C30   C31   T    
H6    N1    S    
C19   O7    D    
C26   O20   D    
C25   O19   S    
C11   H8    S    
C4    O22   A    
C4    C31   S    
O12   Zn2   S    
C18   O5    D    
C11   C22   S    
C7    C20   S    
C9    O27   A    
C27   C28   S    
H19   O6    S    
C14   C29   T    
C7    N2    D    
C12   H1    S    
C24   O17   S    
C17   O3    D    
