data_mof_unit_64032.cif
_audit_creation_date              2012-12-11T18:18:10-0500
_audit_creation_method            fapswitch 2.2
_symmetry_space_group_name_H-M    P1
_symmetry_Int_Tables_number       1
_space_group_crystal_system       triclinic
_cell_length_a                    8.16867
_cell_length_b                    14.301605
_cell_length_c                    15.006393
_cell_angle_alpha                 95.621112
_cell_angle_beta                  97.600453
_cell_angle_gamma                 91.367703
_cell_volume                      1728.15975105

loop_
_atom_site_label
_atom_site_type_symbol
_atom_type_description
_atom_site_fract_x
_atom_site_fract_y
_atom_site_fract_z
_atom_type_partial_charge
Ba1   Ba    Ba6+2 0.833410 0.543320 0.453520 1.637208
Ba2   Ba    Ba6+2 0.356410 0.456750 0.546480 1.636157
C1    C     C_3   0.542016 0.883551 0.208087 -0.343226
C2    C     C_R   0.116023 0.473032 0.208517 0.059650
C3    C     C_R   0.930458 0.479216 0.769092 -0.287240
C4    C     C_3   0.018750 0.736353 0.195204 0.356661
C5    C     C_R   0.838479 0.445228 0.831184 0.015128
C6    C     C_R   0.900853 0.453317 0.922710 -0.144895
C7    C     C_R   0.056014 0.499045 0.955254 0.011125
C8    C     C_R   0.142525 0.544058 0.891844 -0.032438
C9    C     C_R   0.124887 0.503731 0.049512 0.006698
C10   C     C_R   0.281477 0.550153 0.077964 -0.025490
C11   C     C_R   0.360246 0.594585 0.016128 -0.116833
C12   C     C_3   0.543836 0.787843 0.243759 0.335485
C13   C     C_R   0.289027 0.598452 0.927683 -0.038172
C14   C     C_R   0.045617 0.463271 0.116881 -0.134467
C15   C     C_R   0.267996 0.519960 0.233597 -0.292221
C16   C     C_3   0.984823 0.762289 0.098743 -0.361761
C17   C     C_R   0.077809 0.531396 0.796713 0.029152
C18   C     C_R   0.708068 0.937136 0.547641 -0.032036
C19   C     C_R   0.509964 0.800942 0.497800 0.043054
C20   C     C_R   0.357403 0.767685 0.450208 -0.290033
C21   C     C_R   0.245314 0.829276 0.411645 0.016895
C22   C     C_R   0.290878 0.923590 0.411886 -0.146049
C23   C     C_3   0.457115 0.313939 0.275410 0.310029
C24   C     C_R   0.446864 0.958048 0.454423 -0.006275
C25   C     C_R   0.556552 0.897966 0.500759 -0.027582
C26   C     C_R   0.643249 0.091167 0.497933 -0.020456
C27   C     C_R   0.753585 0.032114 0.544745 -0.002713
C28   C     C_3   0.212839 0.743740 0.640307 0.298058
C29   C     C_R   0.688280 0.187294 0.498570 0.016853
C30   C     C_R   0.838978 0.223079 0.545686 -0.285038
C31   C     C_R   0.952574 0.163921 0.586139 0.018908
C32   C     C_R   0.909815 0.068674 0.586545 -0.135008
C33   C     C_R   0.491446 0.052735 0.452528 -0.036596
C34   C     C_3   0.418522 0.285609 0.174238 -0.373140
C35   C     C_3   0.259792 0.848583 0.662928 -0.277758
C36   C     C_3   0.984627 0.254589 0.355397 0.288771
C37   C     C_3   0.978858 0.147563 0.336502 -0.280134
C38   C     C_3   0.742660 0.673602 0.721818 0.328939
C39   C     C_3   0.822178 0.711912 0.816564 -0.397577
C40   C     C_1   0.148564 0.895575 0.721007 0.329991
C41   C     C_1   0.838254 0.115512 0.268170 0.342455
C42   C     C_1   0.367675 0.668778 0.883613 0.320979
C43   C     C_3   0.172658 0.264521 0.804085 0.357230
C44   C     C_3   0.204328 0.239631 0.900942 -0.358363
C45   C     C_3   0.647288 0.212292 0.757742 0.342797
C46   C     C_3   0.642881 0.115480 0.791337 -0.350065
C47   C     C_R   0.353859 0.555738 0.169421 0.002119
H1    H     H_    0.630901 0.792249 0.307580 0.097442
H2    H     H_    0.532882 0.263833 0.146536 0.140018
H3    H     H_    0.450833 0.882136 0.146063 0.112910
H4    H     H_    0.019289 0.704010 0.051127 0.070371
H5    H     H_    0.039404 0.278218 0.788192 -0.061073
H6    H     H_    0.169508 0.298613 0.947688 0.069968
H7    H     H_    0.129476 0.175676 0.908296 0.122575
H8    H     H_    0.774093 0.227412 0.742732 -0.056415
H9    H     H_    0.676572 0.061876 0.738846 0.079802
H10   H     H_    0.945854 0.670952 0.199819 0.096506
H11   H     H_    0.732319 0.114336 0.853739 0.121800
H12   H     H_    0.388081 0.857047 0.698675 0.108339
H13   H     H_    0.477089 0.632335 0.037329 0.107745
H14   H     H_    0.881312 0.469436 0.698099 0.067182
H15   H     H_    0.321220 0.694143 0.448093 0.070763
H16   H     H_    0.203716 0.970153 0.379969 0.070871
H17   H     H_    0.998920 0.023384 0.617999 0.082142
H18   H     H_    0.152313 0.723095 0.210156 -0.066267
H19   H     H_    0.792963 0.894883 0.586311 0.105285
H20   H     H_    0.405233 0.095831 0.415548 0.092495
H21   H     H_    0.851495 0.775241 0.081147 0.149203
H22   H     H_    0.253694 0.883759 0.600086 0.018201
H23   H     H_    0.088970 0.275244 0.409322 0.068313
H24   H     H_    0.868578 0.278374 0.378639 -0.011075
H25   H     H_    0.095064 0.124462 0.311632 0.083890
H26   H     H_    0.838336 0.639846 0.685266 0.007413
H27   H     H_    0.644245 0.620530 0.727222 0.064800
H28   H     H_    0.943042 0.747528 0.813500 0.137619
H29   H     H_    0.841086 0.654168 0.860568 0.053985
H30   H     H_    0.341065 0.334365 0.301635 0.012852
H31   H     H_    0.546627 0.374966 0.286387 0.060732
H32   H     H_    0.368353 0.345703 0.139287 0.053701
H33   H     H_    0.246796 0.329435 0.799271 0.094697
H34   H     H_    0.967251 0.114516 0.399240 0.025423
H35   H     H_    0.337317 0.226381 0.919426 0.149230
H36   H     H_    0.559032 0.210644 0.694631 0.098016
H37   H     H_    0.516812 0.097659 0.806109 0.148661
H38   H     H_    0.322941 0.525369 0.303649 0.073717
H39   H     H_    0.929759 0.423901 0.100851 0.089632
H40   H     H_    0.824347 0.423544 0.966674 0.081423
H41   H     H_    0.872249 0.296867 0.546237 0.065125
H42   H     H_    0.058728 0.826659 0.091593 0.116110
H43   H     H_    0.315794 0.707973 0.612129 0.004291
H44   H     H_    0.100852 0.735291 0.589445 0.058188
H45   H     H_    0.666578 0.902148 0.191736 0.162713
H46   H     H_    0.742860 0.763937 0.847810 0.159569
H47   H     H_    0.417405 0.770168 0.257758 -0.055841
H48   H     H_    0.507471 0.937614 0.259878 0.083253
H49   H     H_    0.325577 0.226217 0.160958 0.129097
N1    N     N_1   0.061351 0.932291 0.767143 -0.303556
N2    N     N_1   0.727449 0.090977 0.213980 -0.292949
N3    N     N_1   0.434686 0.726966 0.852181 -0.290121
O1    O     O_2   0.841250 0.444240 0.280450 -0.457288
O2    O     O_2   0.292407 0.168898 0.581199 -0.493397
O3    O     O_3   0.219390 0.189932 0.745682 -0.595494
O4    O     O_3   0.112870 0.447390 0.393710 -0.498636
O5    O     O_3   0.560600 0.613720 0.540760 -0.487351
O6    O     O_2   0.387470 0.270310 0.467210 -0.468610
O7    O     O_3   0.523910 0.237415 0.317470 -0.636776
O8    O     O_2   0.496740 0.450560 0.828460 -0.490648
O9    O     O_3   0.602108 0.279473 0.824091 -0.600320
O10   O     O_3   0.597960 0.615760 0.327700 -0.486814
O11   O     O_2   0.697317 0.549272 0.173026 -0.491127
O12   O     O_3   0.673783 0.748111 0.677749 -0.632743
O13   O     O_3   0.005602 0.294130 0.275857 -0.639979
O14   O     O_3   0.596176 0.721476 0.179165 -0.609466
O15   O     O_2   0.802240 0.729720 0.532850 -0.475227
O16   O     O_3   0.017190 0.664840 0.371090 -0.489511
O17   O     O_2   0.907589 0.832140 0.421250 -0.494654
O18   O     O_3   0.972118 0.810047 0.254666 -0.596765
O19   O     O_2   0.348460 0.555790 0.719610 -0.461330
O20   O     O_3   0.076820 0.552690 0.606290 -0.496336
O21   O     O_3   0.591740 0.384320 0.672310 -0.484460
O22   O     O_3   0.182650 0.706047 0.719252 -0.637182
O23   O     O_3   0.629090 0.386360 0.459240 -0.477681
O24   O     O_3   0.172500 0.335240 0.628910 -0.489202
P1    P     P_3+3 0.018620 0.416870 0.295980 0.982925
P2    P     P_3+3 0.635650 0.716500 0.560900 0.973799
P3    P     P_3+3 0.035577 0.785475 0.365772 0.943911
P4    P     P_3+3 0.171070 0.583210 0.704020 0.982006
P5    P     P_3+3 0.158904 0.213579 0.634016 0.947697
P6    P     P_3+3 0.561729 0.608837 0.210786 0.940699
P7    P     P_3+3 0.561341 0.268592 0.434252 0.935441
P8    P     P_3+3 0.632242 0.391531 0.789966 0.946974

loop_
_geom_bond_atom_site_label_1
_geom_bond_atom_site_label_2
_ccdc_geom_bond_type
C31   P5    S    
C17   P4    S    
C16   H21   S    
C23   H31   S    
C43   H33   S    
C34   H2    S    
C32   H17   S    
C10   C47   A    
C5    C6    A    
C39   H46   S    
C43   C44   S    
C47   P6    S    
C3    H14   S    
C24   C25   A    
O4    P1    S    
C16   H42   S    
C45   H36   S    
C26   C27   A    
C22   C24   A    
C13   C42   S    
C5    P8    S    
C28   H44   S    
C8    C13   A    
C39   H28   S    
C36   C37   S    
C36   O13   S    
C12   O14   S    
Ba2   O6    S    
Ba2   P4    S    
O23   P7    S    
Ba1   Ba2   S    
C37   H25   S    
C35   C40   S    
C16   H4    S    
O24   P5    S    
C30   H41   S    
C11   H13   S    
C38   O12   S    
C26   C33   A    
C6    C7    A    
O15   P2    D    
C44   H6    S    
C21   C22   A    
Ba1   O15   S    
C19   P2    S    
C7    C8    A    
C8    C17   A    
Ba1   O5    S    
O18   P3    S    
C19   C25   A    
O3    P5    S    
C19   C20   A    
O22   P4    S    
O17   P3    D    
C12   H47   S    
O16   P3    S    
C46   H11   S    
C18   C27   A    
Ba2   O21   S    
C4    C16   S    
C36   H23   S    
O12   P2    S    
O8    P8    D    
O19   P4    D    
C41   N2    T    
C28   H43   S    
C15   C47   A    
C39   H29   S    
C3    C5    A    
Ba2   O19   S    
C37   C41   S    
C27   C32   A    
Ba2   O5    S    
C38   H27   S    
C28   C35   S    
C2    C14   A    
C26   C29   A    
O21   P8    S    
C29   P7    S    
C43   O3    S    
C45   H8    S    
C9    C14   A    
C1    H48   S    
C45   C46   S    
C34   H32   S    
C9    C10   A    
C31   C32   A    
Ba1   O16   S    
Ba1   P1    S    
C28   O22   S    
C7    C9    A    
C42   N3    T    
C1    C12   S    
C22   H16   S    
C44   H35   S    
C2    C15   A    
O10   P6    S    
C38   C39   S    
C43   H5    S    
C11   C13   A    
C46   H37   S    
C4    O18   S    
Ba2   O20   S    
C4    H18   S    
C15   H38   S    
C4    H10   S    
C18   H19   S    
C29   C30   A    
Ba1   P2    S    
O20   P4    S    
O6    P7    D    
O1    P1    D    
C23   H30   S    
C35   H12   S    
C1    H3    S    
C46   H9    S    
C3    C17   A    
C18   C25   A    
Ba2   O23   S    
C45   O9    S    
Ba2   O4    S    
C38   H26   S    
C2    P1    S    
C30   C31   A    
C35   H22   S    
Ba1   O23   S    
C37   H34   S    
C40   N1    T    
Ba1   O10   S    
C12   H1    S    
O13   P1    S    
O5    P2    S    
C1    H45   S    
O11   P6    D    
O2    P5    D    
Ba1   O20   S    
O7    P7    S    
C23   C34   S    
C20   H15   S    
Ba2   O24   S    
C24   C33   A    
O14   P6    S    
C10   C11   A    
C33   H20   S    
C44   H7    S    
C14   H39   S    
C20   C21   A    
O9    P8    S    
C34   H49   S    
C6    H40   S    
Ba1   O1    S    
C23   O7    S    
Ba1   O4    S    
C21   P3    S    
C36   H24   S    
