data_mof_unit_36776.cif
_audit_creation_date              2012-12-10T19:43:04-0500
_audit_creation_method            fapswitch 2.2
_symmetry_space_group_name_H-M    P1
_symmetry_Int_Tables_number       1
_space_group_crystal_system       triclinic
_cell_length_a                    18.311266
_cell_length_b                    18.329432
_cell_length_c                    18.531435
_cell_angle_alpha                 119.863995
_cell_angle_beta                  89.600679
_cell_angle_gamma                 60.228125
_cell_volume                      4406.84165847

loop_
_atom_site_label
_atom_site_type_symbol
_atom_type_description
_atom_site_fract_x
_atom_site_fract_y
_atom_site_fract_z
_atom_type_partial_charge
C1    C     C_R   0.859563 0.780034 0.638820 0.900123
C2    C     C_R   0.248940 0.316385 0.775842 -0.071833
C3    C     C_R   0.159478 0.376739 0.783614 -0.244488
C4    C     C_R   0.138462 0.220165 0.360260 0.810152
C5    C     C_R   0.129859 0.456078 0.772865 -0.083298
C6    C     C_R   0.239868 0.052214 0.335740 0.143838
C7    C     C_R   0.185460 0.108389 0.305227 -0.168266
C8    C     C_R   0.173209 0.055409 0.224074 -0.111142
C9    C     C_R   0.227049 0.945881 0.169235 -0.106285
C10   C     C_R   0.293398 0.891427 0.196249 -0.160525
C11   C     C_R   0.293028 0.946284 0.282119 0.089870
C12   C     C_R   0.287206 0.649796 0.808079 -0.203697
C13   C     C_3   0.368602 0.939206 0.316051 -0.339114
C14   C     C_3   0.309379 0.057604 0.376043 -0.346482
C15   C     C_R   0.221236 0.566733 0.339831 0.053863
C16   C     C_R   0.860035 0.500945 0.640912 0.852624
C17   C     C_R   0.202951 0.493236 0.304893 -0.101028
C18   C     C_R   0.249634 0.409312 0.215696 -0.357710
C19   C     C_R   0.302440 0.408260 0.158590 0.522876
C20   C     C_R   0.311972 0.490690 0.194674 -0.172358
C21   C     C_R   0.275347 0.564896 0.286041 -0.071906
C22   C     C_3   0.220710 0.680374 0.340716 0.389255
C23   C     C_R   0.276796 0.568392 0.775029 0.087339
C24   C     C_3   0.159383 0.681515 0.398647 -0.487757
C25   C     C_R   0.832357 0.949605 0.702472 -0.042182
C26   C     C_R   0.801426 0.891722 0.695278 -0.164695
C27   C     C_R   0.711282 0.946640 0.747697 0.426634
C28   C     C_R   0.140502 0.499716 0.360390 0.829556
C29   C     C_R   0.663137 0.053660 0.815882 -0.217836
C30   C     C_R   0.695110 0.109353 0.813455 -0.205753
C31   C     C_R   0.780426 0.053154 0.755853 0.060617
C32   C     C_3   0.850394 0.064777 0.731700 0.353423
C33   C     C_3   0.910328 0.944320 0.668215 -0.337025
C34   C     C_R   0.240854 0.549388 0.706423 0.066552
C35   C     C_R   0.709702 0.572287 0.338695 0.099649
C36   C     C_R   0.803355 0.507397 0.304074 -0.138635
C37   C     C_R   0.843705 0.453578 0.212435 -0.336113
C38   C     C_R   0.791676 0.455358 0.156250 0.469411
C39   C     C_R   0.698623 0.505699 0.192431 -0.152177
C40   C     C_R   0.859334 0.500735 0.360199 0.841291
C41   C     C_R   0.659996 0.567583 0.283325 0.068710
C42   C     C_3   0.590014 0.581291 0.339666 -0.496951
C43   C     C_3   0.641344 0.591530 0.403932 -0.191017
C44   C     C_R   0.712814 0.557701 0.719920 -0.052479
C45   C     C_R   0.301857 0.502546 0.804066 -0.166323
C46   C     C_R   0.805086 0.501073 0.697775 -0.011182
C47   C     C_R   0.843785 0.438941 0.728874 -0.123156
C48   C     C_R   0.789604 0.436976 0.780769 -0.211284
C49   C     C_R   0.696182 0.493444 0.799098 -0.056707
C50   C     C_R   0.661254 0.546797 0.760761 -0.010149
C51   C     C_3   0.578528 0.610850 0.745722 0.277183
C52   C     C_R   0.139593 0.500996 0.640253 0.824364
C53   C     C_3   0.639830 0.624155 0.701003 -0.248731
C54   C     C_R   0.361148 0.498307 0.139501 0.864308
C55   C     C_R   0.639958 0.497501 0.857926 0.821079
C56   C     C_R   0.267370 0.441725 0.779558 0.005779
C57   C     C_R   0.358438 0.779712 0.139734 0.848252
C58   C     C_R   0.639833 0.220413 0.863476 0.926016
C59   C     C_R   0.640879 0.500326 0.138970 0.845082
C60   C     C_R   0.359508 0.500168 0.859725 0.799340
C61   C     C_R   0.252958 0.576981 0.650452 -0.185410
C62   C     C_R   0.275751 0.646858 0.676909 -0.006286
C63   C     C_R   0.284967 0.689612 0.760080 -0.216397
C64   C     C_2   0.211268 0.889744 0.086763 0.950068
C65   C     C_2   0.389980 0.884647 0.360819 1.030102
C66   C     C_2   0.280576 0.107760 0.474470 1.040714
C67   C     C_R   0.192864 0.472345 0.752980 -0.027663
C68   C     C_3   0.301482 0.286328 0.026223 0.152161
C69   C     C_3   0.211891 0.365149 0.027992 -0.448800
C70   C     C_3   0.220786 0.426612 0.999926 -0.697969
C71   C     C_3   0.119404 0.712430 0.261195 0.087996
C72   C     C_3   0.114795 0.724774 0.185310 -0.299961
C73   C     C_3   0.042396 0.716645 0.149522 -0.946131
C74   C     C_3   0.635450 0.889242 0.663807 0.192886
C75   C     C_3   0.567468 0.993256 0.679010 -0.501921
C76   C     C_3   0.517705 0.984260 0.612787 -0.683366
C77   C     C_2   0.586290 0.102186 0.892186 1.038545
C78   C     C_R   0.191409 0.507627 0.700069 -0.161951
C79   C     C_2   0.821544 0.123758 0.689301 0.843335
C80   C     C_3   0.931766 0.133790 0.800960 0.127634
C81   C     C_3   0.027693 0.041322 0.739059 -0.405701
C82   C     C_3   0.089338 0.075635 0.743538 -0.802421
C83   C     C_2   0.934702 0.898367 0.570524 0.918870
C84   C     C_3   0.887557 0.426380 0.048039 0.068249
C85   C     C_3   0.892162 0.411187 0.958833 -0.316841
C86   C     C_3   0.954879 0.433108 0.933982 -0.938971
C87   C     C_2   0.288224 0.676195 0.618698 0.931781
C88   C     C_2   0.587970 0.699705 0.486275 1.065971
C89   C     C_R   0.304371 0.349647 0.774539 -0.040866
C90   C     C_3   0.518647 0.511429 0.703637 0.124553
C91   C     C_3   0.589724 0.395671 0.655326 -0.371859
C92   C     C_3   0.556643 0.347372 0.680923 -0.816664
C93   C     C_2   0.501234 0.710397 0.828810 0.888425
C94   C     C_2   0.664048 0.569804 0.601848 1.036386
C95   C     C_2   0.616241 0.732892 0.750279 0.946340
C96   C     C_2   0.402506 0.274953 0.737475 0.935865
C97   C     C_2   0.280815 0.219440 0.767233 0.906946
C98   C     C_2   0.032553 0.526109 0.790978 0.965826
C99   C     C_2   0.101750 0.114119 0.199033 0.998588
H1    H     H_    0.113888 0.358975 0.794283 0.189967
H2    H     H_    0.915706 0.407504 0.183809 0.179041
H3    H     H_    0.523000 0.652416 0.362493 0.238667
H4    H     H_    0.591985 0.510256 0.309426 0.200706
H5    H     H_    0.668243 0.530142 0.414911 0.154183
H6    H     H_    0.915414 0.391842 0.713326 0.200418
H7    H     H_    0.821065 0.390929 0.805851 0.164437
H8    H     H_    0.294669 0.750409 0.786226 0.229636
H9    H     H_    0.293887 0.687043 0.871751 0.212415
H10   H     H_    0.192142 0.873197 0.973900 0.334727
H11   H     H_    0.344770 0.859455 0.439715 0.342555
H12   H     H_    0.428250 0.907151 0.264511 0.155409
H13   H     H_    0.183097 0.182663 0.586795 0.359489
H14   H     H_    0.344712 0.225188 0.956078 0.207204
H15   H     H_    0.292918 0.245371 0.050046 0.090378
H16   H     H_    0.187112 0.322680 0.981860 0.198414
H17   H     H_    0.160988 0.419076 0.094972 0.199379
H18   H     H_    0.223531 0.487916 0.055221 0.242223
H19   H     H_    0.161846 0.463573 0.982173 0.215553
H20   H     H_    0.282192 0.376070 0.942191 0.306837
H21   H     H_    0.053217 0.773811 0.314716 0.173894
H22   H     H_    0.134301 0.635642 0.236087 0.118720
H23   H     H_    0.335331 0.091905 0.357934 0.136699
H24   H     H_    0.100156 0.801087 0.208935 0.261300
H25   H     H_    0.180549 0.664254 0.131165 0.208558
H26   H     H_    0.054184 0.642011 0.127359 0.256701
H27   H     H_    0.043229 0.721801 0.092339 0.284004
H28   H     H_    0.975540 0.780447 0.201475 0.275339
H29   H     H_    0.601839 0.851118 0.657332 0.220072
H30   H     H_    0.689993 0.839351 0.599915 0.176091
H31   H     H_    0.518184 0.047869 0.746555 0.300381
H32   H     H_    0.604105 0.023621 0.671211 0.212614
H33   H     H_    0.565368 0.933220 0.544538 0.289613
H34   H     H_    0.242584 0.346833 0.191159 0.182025
H35   H     H_    0.469793 0.061196 0.626819 0.283289
H36   H     H_    0.479340 0.954589 0.618140 0.262229
H37   H     H_    0.494264 0.093965 0.941950 0.343235
H38   H     H_    0.858468 0.157471 0.613552 0.356012
H39   H     H_    0.934490 0.175646 0.868280 0.186008
H40   H     H_    0.903430 0.190344 0.784119 0.148100
H41   H     H_    0.053129 0.986761 0.758185 0.238982
H42   H     H_    0.029164 0.000753 0.669906 0.279148
H43   H     H_    0.065535 0.129613 0.723871 0.272281
H44   H     H_    0.158057 0.007447 0.697674 0.293167
H45   H     H_    0.259305 0.708613 0.376603 0.132595
H46   H     H_    0.091520 0.114349 0.811625 0.253519
H47   H     H_    0.915973 0.826924 0.455105 0.327012
H48   H     H_    0.955965 0.374267 0.044699 0.146124
H49   H     H_    0.862408 0.508114 0.099071 0.134986
H50   H     H_    0.916413 0.330744 0.906669 0.209870
H51   H     H_    0.824092 0.463710 0.961952 0.234733
H52   H     H_    0.931086 0.514079 0.983982 0.275607
H53   H     H_    0.956516 0.420830 0.868830 0.288885
H54   H     H_    0.023734 0.380320 0.929160 0.257306
H55   H     H_    0.301345 0.648742 0.497989 0.338863
H56   H     H_    0.161885 0.713030 0.466826 0.221611
H57   H     H_    0.482025 0.808200 0.599314 0.352502
H58   H     H_    0.461666 0.520186 0.679378 0.178668
H59   H     H_    0.490952 0.551810 0.775509 0.162771
H60   H     H_    0.606008 0.357995 0.582855 0.257033
H61   H     H_    0.652091 0.380665 0.670340 0.231637
H62   H     H_    0.547816 0.377138 0.751500 0.243609
H63   H     H_    0.606302 0.262524 0.639759 0.301075
H64   H     H_    0.492137 0.365026 0.669800 0.269482
H65   H     H_    0.374748 0.836071 0.880401 0.362366
H66   H     H_    0.704713 0.440357 0.482006 0.324311
H67   H     H_    0.245869 0.544255 0.586142 0.202778
H68   H     H_    0.527522 0.878973 0.789226 0.368899
H69   H     H_    0.515611 0.194092 0.753419 0.333533
H70   H     H_    0.359370 0.117687 0.793801 0.340051
H71   H     H_    0.032959 0.652078 0.836134 0.300289
H72   H     H_    0.069050 0.167562 0.123621 0.342232
H73   H     H_    0.090969 0.709212 0.395751 0.193829
H74   H     H_    0.968093 0.906361 0.686862 0.169321
O1    O     O_3   0.000000 0.500000 0.500000 -0.515063
O2    O     O_R   0.676550 0.268320 0.884150 -0.603236
O3    O     O_R   0.555150 0.560600 0.176460 -0.637744
O4    O     O_R   0.944950 0.731580 0.615800 -0.637450
O5    O     O_R   0.384220 0.439220 0.884170 -0.631189
O6    O     O_R   0.676580 0.439170 0.055020 -0.596579
O7    O     O_R   0.384230 0.560650 0.884170 -0.667180
O8    O     O_R   0.384260 0.731500 0.055040 -0.611467
O9    O     O_R   0.555100 0.268330 0.884160 -0.614517
O10   O     O_R   0.384250 0.560620 0.176470 -0.630830
O11   O     O_R   0.676570 0.439190 0.884150 -0.650641
O12   O     O_R   0.944910 0.439280 0.615800 -0.617119
O13   O     O_R   0.115780 0.268410 0.444920 -0.611420
O14   O     O_R   0.823470 0.560720 0.615800 -0.619681
O15   O     O_R   0.115800 0.439290 0.323490 -0.654997
O16   O     O_R   0.823460 0.560740 0.444930 -0.614137
O17   O     O_R   0.115830 0.560690 0.615790 -0.651488
O18   O     O_R   0.944900 0.439310 0.323490 -0.643033
O19   O     O_R   0.115810 0.439260 0.615790 -0.629221
O20   O     O_2   0.202498 0.822318 0.072572 -0.651109
O21   O     O_R   0.206031 0.914204 0.025733 -0.770271
O22   O     O_2   0.467994 0.825031 0.349341 -0.629348
O23   O     O_R   0.115820 0.560710 0.444920 -0.629552
O24   O     O_R   0.321341 0.901015 0.414101 -0.758258
O25   O     O_2   0.333821 0.111242 0.513155 -0.615714
O26   O     O_R   0.193801 0.150654 0.521329 -0.735854
O27   O     O_3   0.348814 0.327320 0.069324 -0.580172
O28   O     O_3   0.185150 0.724690 0.293519 -0.593949
O29   O     O_3   0.669495 0.897647 0.734400 -0.571727
O30   O     O_2   0.565659 0.178972 0.964079 -0.605046
O31   O     O_R   0.541661 0.056375 0.884387 -0.773137
O32   O     O_2   0.742633 0.178351 0.699576 -0.665359
O33   O     O_R   0.885751 0.114557 0.637574 -0.786340
O34   O     O_R   0.823500 0.731590 0.615800 -0.618342
O35   O     O_3   0.875221 0.104206 0.807638 -0.624333
O36   O     O_2   0.991363 0.898945 0.536112 -0.613907
O37   O     O_R   0.893472 0.854898 0.519416 -0.816136
O38   O     O_3   0.831308 0.401110 0.065825 -0.613201
O39   O     O_2   0.299650 0.744447 0.645740 -0.582709
O40   O     O_R   0.288738 0.624444 0.531981 -0.820275
O41   O     O_2   0.609931 0.757023 0.499830 -0.676813
O42   O     O_R   0.512466 0.734360 0.546261 -0.747176
O43   O     O_3   0.551162 0.555204 0.680770 -0.588506
O44   O     O_2   0.509304 0.738813 0.901700 -0.609310
O45   O     O_R   0.115770 0.268420 0.323490 -0.630465
O46   O     O_R   0.421331 0.771318 0.821022 -0.748463
O47   O     O_2   0.673406 0.609293 0.569059 -0.640439
O48   O     O_R   0.684913 0.470304 0.547138 -0.762056
O49   O     O_2   0.664417 0.754174 0.788002 -0.549023
O50   O     O_R   0.538273 0.808929 0.752282 -0.765701
O51   O     O_2   0.443270 0.248679 0.667060 -0.641964
O52   O     O_R   0.448845 0.237220 0.783370 -0.729907
O53   O     O_2   0.247464 0.172944 0.731570 -0.624071
O54   O     O_R   0.346008 0.182602 0.802041 -0.807169
O55   O     O_2   0.985686 0.494860 0.781900 -0.611352
O56   O     O_3   0.500040 0.499910 0.999960 -0.517201
O57   O     O_R   0.992218 0.628524 0.820793 -0.771241
O58   O     O_2   0.023653 0.155783 0.237398 -0.635361
O59   O     O_R   0.123685 0.124477 0.133870 -0.739254
O60   O     O_R   0.384230 0.439200 0.055040 -0.585994
O61   O     O_R   0.555130 0.560630 0.884160 -0.647171
O62   O     O_R   0.384270 0.731490 0.176470 -0.626660
Zn1   Zn    Zn3+2 0.043370 0.413240 0.543370 1.040995
Zn2   Zn    Zn3+2 0.869870 0.586760 0.543380 1.054528
Zn3   Zn    Zn3+2 0.043360 0.413260 0.369880 0.984611
Zn4   Zn    Zn3+2 0.043390 0.586740 0.543370 0.998634
Zn5   Zn    Zn3+2 0.456670 0.586670 0.956580 0.991310
Zn6   Zn    Zn3+2 0.456680 0.586650 0.130080 1.014428
Zn7   Zn    Zn3+2 0.630180 0.413150 0.956570 1.020520
Zn8   Zn    Zn3+2 0.456650 0.413170 0.956580 1.035438

loop_
_geom_bond_atom_site_label_1
_geom_bond_atom_site_label_2
_ccdc_geom_bond_type
C51   O43   S    
C92   H62   S    
O2    Zn7   S    
C69   H17   S    
C25   C31   A    
C23   C45   A    
C88   O42   S    
C81   H41   S    
C9    C64   S    
C11   C13   S    
C87   O39   D    
C19   C20   A    
H37   O31   S    
C82   H43   S    
O16   Zn2   S    
C42   H4    S    
C58   O9    A    
C57   O8    A    
C99   O59   S    
C84   O38   S    
H66   O48   S    
C7    C8    A    
C39   C41   A    
C13   C65   S    
C85   C86   S    
C92   H64   S    
C12   C23   A    
C19   O27   S    
C37   C38   A    
C88   O41   D    
C71   H21   S    
C14   H23   S    
C43   C88   S    
O56   Zn7   S    
C36   C37   A    
O13   Zn1   S    
C86   H54   S    
C18   C19   A    
C16   O12   A    
C28   O15   A    
C30   C31   A    
O56   Zn8   S    
C80   H39   S    
C27   C29   A    
O7    Zn5   S    
C70   H18   S    
C60   O5    A    
C73   H27   S    
C27   O29   S    
C30   C58   S    
C18   H34   S    
C93   O44   D    
C61   H67   S    
C52   O19   A    
C4    O13   A    
C85   H51   S    
O62   Zn6   S    
C45   C60   S    
H47   O37   S    
C21   C22   S    
C98   O57   S    
C1    O4    A    
C3    H1    S    
O60   Zn8   S    
C48   H7    S    
C40   O16   A    
C35   C36   A    
C45   C56   A    
C44   C46   A    
C8    C9    A    
C47   H6    S    
C72   H25   S    
C64   O21   S    
C94   O48   S    
C55   O11   A    
H70   O54   S    
C92   H63   S    
C38   O38   S    
C32   O35   S    
C29   C30   A    
C35   C43   S    
C9    C10   A    
H13   O26   S    
C91   H60   S    
C66   O26   S    
C75   H31   S    
C5    C67   A    
C68   H14   S    
O4    Zn4   S    
O18   Zn3   S    
C81   H42   S    
C97   O53   D    
C86   H52   S    
C13   C14   S    
O9    Zn8   S    
H11   O24   S    
C69   C70   S    
C67   C78   A    
H55   O40   S    
C52   C78   S    
C77   O30   D    
C90   O43   S    
C57   O62   A    
C76   H36   S    
C75   H32   S    
O19   Zn1   S    
C98   O55   D    
H38   O33   S    
C84   H49   S    
C87   O40   S    
C74   H29   S    
C95   O49   D    
C74   C75   S    
C1    O34   A    
O6    Zn7   S    
C36   C40   S    
C10   C57   S    
C84   C85   S    
C2    C97   S    
C72   C73   S    
C20   C54   S    
C59   O3    A    
O14   Zn2   S    
O1    Zn2   S    
C16   C46   S    
C91   C92   S    
C12   H9    S    
C12   C63   A    
C76   H35   S    
C68   C69   S    
O61   Zn5   S    
C74   O29   S    
C96   O51   D    
C25   C26   A    
C79   O32   D    
C34   C61   A    
C81   C82   S    
C51   C53   S    
C90   H59   S    
C2    C89   A    
C75   C76   S    
C41   C42   S    
C73   H28   S    
C62   C63   A    
C86   H53   S    
C53   C95   S    
C6    C14   S    
O56   Zn6   S    
C47   C48   A    
C70   H20   S    
C48   C49   A    
C23   C34   A    
C39   C59   S    
C64   O20   D    
C20   C21   A    
H57   O42   S    
C94   O47   D    
C17   C18   A    
C44   C53   S    
H10   O21   S    
C50   C51   S    
C52   O17   A    
C14   C66   S    
O56   Zn5   S    
C33   C83   S    
H68   O50   S    
C91   H61   S    
C66   O25   D    
C35   C41   A    
C51   C93   S    
C65   O24   S    
H65   O46   S    
C15   C24   S    
C80   O35   S    
C4    O45   A    
C6    C11   A    
C72   H24   S    
C26   C27   A    
C1    C26   S    
C82   H44   S    
C22   C24   S    
C83   O36   D    
C42   C43   S    
O45   Zn3   S    
C55   O61   A    
C63   H8    S    
C56   C67   A    
C77   O31   S    
H69   O52   S    
C82   H46   S    
C33   H74   S    
O8    Zn5   S    
O5    Zn8   S    
C84   H48   S    
C44   C50   A    
C71   O28   S    
C79   O33   S    
C56   C89   A    
C46   C47   A    
C69   H16   S    
C22   O28   S    
C97   O54   S    
C53   C94   S    
C17   C28   S    
C8    C99   S    
C31   C32   S    
O17   Zn4   S    
C80   C81   S    
C3    C5    A    
C16   O14   A    
O1    Zn1   S    
C99   O58   D    
C24   H56   S    
C58   O2    A    
C15   C17   A    
C6    C7    A    
C85   H50   S    
C60   O7    A    
C80   H40   S    
C62   C87   S    
C93   O46   S    
C68   O27   S    
C96   O52   S    
C90   H58   S    
O1    Zn3   S    
C2    C3    A    
C71   C72   S    
C13   H12   S    
C49   C55   S    
O1    Zn4   S    
C32   C33   S    
C32   C79   S    
C37   H2    S    
C43   H5    S    
C76   H33   S    
C68   H15   S    
C90   C91   S    
C38   C39   A    
C40   O18   A    
C70   H19   S    
C73   H26   S    
H71   O57   S    
C59   O6    A    
C28   O23   A    
C61   C62   A    
C24   H73   S    
C95   O50   S    
C83   O37   S    
O15   Zn3   S    
C10   C11   A    
O34   Zn2   S    
C71   H22   S    
C15   C21   A    
O12   Zn1   S    
C29   C77   S    
C5    C98   S    
C42   H3    S    
C4    C7    S    
C49   C50   A    
C74   H30   S    
C22   H45   S    
O11   Zn7   S    
C54   O10   A    
O10   Zn6   S    
C54   O60   A    
C89   C96   S    
H72   O59   S    
C34   C78   A    
C25   C33   S    
O3    Zn6   S    
C65   O22   D    
O23   Zn4   S    
