data_mof_unit_5796.cif
_audit_creation_date              2012-12-11T17:08:27-0500
_audit_creation_method            fapswitch 2.2
_symmetry_space_group_name_H-M    P1
_symmetry_Int_Tables_number       1
_space_group_crystal_system       triclinic
_cell_length_a                    6.968691
_cell_length_b                    14.517608
_cell_length_c                    16.091224
_cell_angle_alpha                 90.012863
_cell_angle_beta                  89.984843
_cell_angle_gamma                 90.002419
_cell_volume                      1627.92850364

loop_
_atom_site_label
_atom_site_type_symbol
_atom_type_description
_atom_site_fract_x
_atom_site_fract_y
_atom_site_fract_z
_atom_type_partial_charge
O1    O     O_R   0.505700 0.583890 0.413310 -0.536307
O2    O     O_R   0.175960 0.594920 0.586080 -0.542690
O3    O     O_R   0.005660 0.416110 0.586690 -0.536404
C1    C     C_R   0.344678 0.616902 0.614836 0.694028
O4    O     O_R   0.175980 0.594920 0.413930 -0.543408
O5    O     O_R   0.005680 0.416110 0.413310 -0.539111
C2    C     C_R   0.344780 0.616940 0.385212 0.693759
O6    O     O_R   0.505680 0.583890 0.586690 -0.536600
O7    O     O_3   0.339200 0.441330 0.500000 -0.369735
V1    V     V_3+5 0.064350 0.510880 0.500000 1.384410
O8    O     O_R   0.675960 0.405080 0.413920 -0.539226
C3    C     C_R   0.845004 0.383234 0.385047 0.695304
O9    O     O_R   0.675940 0.405080 0.586070 -0.543128
C4    C     C_R   0.844700 0.383083 0.614807 0.693798
V2    V     V_3+5 0.564340 0.489120 0.500000 1.388629
O10   O     O_3   0.839360 0.558670 0.500000 -0.370774
C5    C     C_R   0.007154 0.317180 0.741237 0.098959
C6    C     C_R   0.852652 0.317619 0.685495 -0.112244
C7    C     C_R   0.700988 0.255934 0.701381 -0.179622
H1    H     H_    0.578364 0.253843 0.660375 0.133666
C8    C     C_R   0.712212 0.191737 0.766896 -0.178400
H2    H     H_    0.597263 0.142431 0.774532 0.127842
C9    C     C_R   0.875767 0.187033 0.818336 -0.111416
C10   C     C_R   0.018705 0.253401 0.805827 0.101679
C11   C     C_3   0.229042 0.240864 0.793765 -0.409637
C12   C     C_3   0.216586 0.310743 0.723709 -0.398272
H3    H     H_    0.264772 0.170251 0.772022 0.166603
H4    H     H_    0.313392 0.265749 0.847921 0.174768
H5    H     H_    0.245893 0.280890 0.661363 0.170941
H6    H     H_    0.292980 0.376207 0.737517 0.167510
C13   C     C_R   0.727282 0.182970 0.241158 0.099570
C14   C     C_R   0.881919 0.182448 0.185456 -0.112379
C15   C     C_R   0.033669 0.244067 0.201363 -0.179970
H7    H     H_    0.156352 0.246103 0.160362 0.133836
C16   C     C_R   0.022472 0.308261 0.266895 -0.178745
H8    H     H_    0.137500 0.357516 0.274559 0.128025
C17   C     C_R   0.858852 0.313028 0.318318 -0.111624
C18   C     C_R   0.715756 0.246757 0.305766 0.101821
C19   C     C_3   0.505516 0.259490 0.293624 -0.409792
C20   C     C_3   0.517938 0.189607 0.223545 -0.398413
H9    H     H_    0.470145 0.330140 0.271899 0.166400
H10   H     H_    0.420887 0.234679 0.347735 0.174933
H11   H     H_    0.488971 0.219496 0.161200 0.170688
H12   H     H_    0.441217 0.124217 0.237288 0.167544
C21   C     C_R   0.509162 0.747316 0.689688 0.102067
C22   C     C_R   0.352691 0.687436 0.681431 -0.111490
C23   C     C_R   0.200236 0.698108 0.738111 -0.179602
H13   H     H_    0.076947 0.653230 0.734432 0.131224
C24   C     C_R   0.211858 0.762021 0.803923 -0.179746
H14   H     H_    0.096058 0.765304 0.848538 0.130405
C25   C     C_R   0.376936 0.816653 0.815371 -0.109804
C26   C     C_R   0.521071 0.810248 0.755000 0.098028
C27   C     C_3   0.730479 0.793705 0.765744 -0.415373
C28   C     C_3   0.717592 0.725513 0.694334 -0.396456
H15   H     H_    0.763348 0.760647 0.826384 0.170707
H16   H     H_    0.817364 0.855728 0.750726 0.172138
H17   H     H_    0.743745 0.652992 0.713417 0.166758
H18   H     H_    0.796439 0.748262 0.637892 0.173192
C29   C     C_R   0.507518 0.683004 0.258882 0.099689
C30   C     C_R   0.352815 0.682438 0.314551 -0.112698
C31   C     C_R   0.201048 0.744031 0.298628 -0.180026
H19   H     H_    0.078333 0.746052 0.339609 0.133844
C32   C     C_R   0.212257 0.808218 0.233107 -0.178847
H20   H     H_    0.097199 0.857445 0.225435 0.128043
C33   C     C_R   0.375909 0.813014 0.181701 -0.111464
C34   C     C_R   0.519058 0.746785 0.194284 0.102204
C35   C     C_3   0.729258 0.759593 0.206498 -0.409902
C36   C     C_3   0.716819 0.689723 0.276559 -0.398494
H21   H     H_    0.764497 0.830261 0.228248 0.166268
H22   H     H_    0.814011 0.734798 0.152408 0.174998
H23   H     H_    0.745640 0.719637 0.338919 0.170469
H24   H     H_    0.793652 0.624357 0.262826 0.167694
O11   O     O_R   0.229000 0.916070 0.913330 -0.539268
O12   O     O_R   0.558770 0.905070 0.086080 -0.539223
O13   O     O_R   0.729000 0.083900 0.086690 -0.536426
C37   C     C_R   0.389737 0.883211 0.114967 0.694137
O14   O     O_R   0.558720 0.905070 0.913930 -0.539560
O15   O     O_R   0.728960 0.083900 0.913310 -0.539370
C38   C     C_R   0.389707 0.882829 0.885389 0.693636
O16   O     O_R   0.229050 0.916070 0.086710 -0.539745
O17   O     O_3   0.395460 0.058650 0.000020 -0.370353
V3    V     V_3+5 0.670340 0.989120 0.000000 1.391910
O18   O     O_R   0.058670 0.094960 0.913900 -0.539402
C39   C     C_R   0.889632 0.116816 0.885052 0.695839
O19   O     O_R   0.058720 0.094960 0.086050 -0.543648
C40   C     C_R   0.889928 0.116957 0.114784 0.693159
V4    V     V_3+5 0.170330 0.010930 0.999970 1.387595
O20   O     O_3   0.895340 0.941350 0.999980 -0.369924

loop_
_geom_bond_atom_site_label_1
_geom_bond_atom_site_label_2
_ccdc_geom_bond_type
O18   V4    S    
V4    O20   S    
C32   C33   A    
C4    C6    S    
C27   H15   S    
C7    H1    S    
C1    O6    A    
O17   V3    S    
C23   C24   A    
C1    C22   S    
C21   C22   A    
C11   H4    S    
C33   C37   S    
O12   C37   A    
C5    C12   S    
C7    C8    A    
O16   V4    S    
C29   C34   A    
O5    C3    A    
C18   C19   S    
V2    O10   S    
C13   C20   S    
C6    C7    A    
C3    C17   S    
C31   C32   A    
O11   V4    S    
O8    V2    S    
C20   H11   S    
O18   C39   A    
C24   C25   A    
C9    C10   A    
O1    V2    S    
O7    V1    S    
O14   C38   A    
C34   C35   S    
C29   C30   A    
O9    C4    A    
O12   V3    S    
C5    C6    A    
C19   H10   S    
O19   V4    S    
C5    C10   A    
C9    C39   S    
C35   C36   S    
C23   H13   S    
C10   C11   S    
C19   H9    S    
C19   C20   S    
O4    C2    A    
C21   C26   A    
C11   C12   S    
O19   C40   A    
C25   C26   A    
C30   C31   A    
C35   H21   S    
C16   H8    S    
O2    C1    A    
C17   C18   A    
C29   C36   S    
O15   V3    S    
O13   C40   A    
C13   C14   A    
C36   H24   S    
C14   C40   S    
C15   H7    S    
O11   C38   A    
O17   V4    S    
O3    C4    A    
C21   C28   S    
C12   H6    S    
O6    V2    S    
O9    V2    S    
C24   H14   S    
O2    V1    S    
C2    C30   S    
C26   C27   S    
C28   H18   S    
C27   H16   S    
C22   C23   A    
C16   C17   A    
O1    C2    A    
C37   O16   A    
O5    V1    S    
O8    C3    A    
O13   V3    S    
C27   C28   S    
C11   H3    S    
C13   C18   A    
C35   H22   S    
C14   C15   A    
C8    C9    A    
O7    V2    S    
O4    V1    S    
O3    V1    S    
V1    O10   S    
O14   V3    S    
C36   H23   S    
V3    O20   S    
C15   C16   A    
C31   H19   S    
C25   C38   S    
C32   H20   S    
O15   C39   A    
C20   H12   S    
C12   H5    S    
C33   C34   A    
C8    H2    S    
C28   H17   S    
