data_mof_unit_43453.cif
_audit_creation_date              2013-03-05T16:09:46-0500
_audit_creation_method            fapswitch 2.2
_symmetry_space_group_name_H-M    P1
_symmetry_Int_Tables_number       1
_space_group_crystal_system       triclinic
_cell_length_a                    12.907381
_cell_length_b                    10.680115
_cell_length_c                    9.89358
_cell_angle_alpha                 89.304155
_cell_angle_beta                  96.733602
_cell_angle_gamma                 90.881715
_cell_volume                      1354.21130727

loop_
_atom_site_label
_atom_site_type_symbol
_atom_site_description
_atom_site_fract_x
_atom_site_fract_y
_atom_site_fract_z
_atom_type_partial_charge
O1    O     O_R   0.499990 0.316750 0.614620 -0.583899
O2    O     O_R   0.500010 0.683250 0.385380 -0.583875
O3    O     O_R   0.499990 0.316780 0.385290 -0.635458
O4    O     O_R   0.500010 0.683220 0.614710 -0.635465
C1    C     C_R   0.499549 0.260110 0.500419 0.882376
C2    C     C_R   0.500457 0.739890 0.499581 0.882424
O5    O     O_R   0.346360 0.499970 0.595710 -0.576868
O6    O     O_R   0.653640 0.500030 0.404290 -0.576794
O7    O     O_R   0.346360 0.499990 0.366380 -0.630339
O8    O     O_R   0.653640 0.500010 0.633620 -0.630349
C3    C     C_R   0.298351 0.499686 0.473607 0.920848
C4    C     C_R   0.701649 0.500317 0.526393 0.920888
Zn1   Zn    Zn3+2 0.500000 0.499980 0.653120 1.028398
Zn2   Zn    Zn3+2 0.500000 0.500020 0.346880 1.028401
C5    C     C_R   0.813601 0.498939 0.542254 -0.145031
C6    C     C_R   0.186399 0.501074 0.457747 -0.145029
C7    C     C_R   0.022637 0.530319 0.317974 0.330207
C8    C     C_R   0.977364 0.469705 0.682028 0.330208
C9    C     C_R   0.130687 0.526745 0.331154 -0.220864
C10   C     C_R   0.869313 0.473271 0.668846 -0.220876
C11   C     C_R   0.135642 0.478584 0.572212 -0.156962
C12   C     C_R   0.864358 0.521439 0.427789 -0.156955
C13   C     C_R   0.028648 0.487452 0.564420 -0.005011
C14   C     C_R   0.971352 0.512573 0.435581 -0.005015
H1    H     H_    0.819659 0.546143 0.332336 0.239526
H2    H     H_    0.180340 0.453881 0.667666 0.239551
H3    H     H_    0.829106 0.457581 0.757900 0.214813
H4    H     H_    0.170894 0.542431 0.242100 0.214810
C15   C     C_R   0.458732 0.064748 0.382684 -0.144334
C16   C     C_R   0.541297 0.935252 0.617307 -0.144322
H5    H     H_    0.425798 0.114562 0.291992 0.174827
H6    H     H_    0.574232 0.885437 0.707999 0.174854
C17   C     C_R   0.459563 0.936420 0.381972 -0.099103
C18   C     C_R   0.540474 0.063580 0.618016 -0.099024
H7    H     H_    0.426685 0.887482 0.291262 0.193511
H8    H     H_    0.573364 0.112519 0.708718 0.193610
C19   C     C_R   0.500880 0.872395 0.499228 -0.042325
C20   C     C_R   0.499142 0.127605 0.500767 -0.042334
C21   C     C_R   0.540081 0.600186 0.074995 0.374029
C22   C     C_R   0.459923 0.399818 0.925000 0.374138
C23   C     C_R   0.539284 0.599475 0.931637 -0.170142
C24   C     C_R   0.460718 0.400522 0.068357 -0.170143
H9    H     H_    0.571675 0.678321 0.880301 0.187243
H10   H     H_    0.428331 0.321668 0.119685 0.187161
N1    N     N_R   0.499970 0.499970 0.857200 -0.161386
N2    N     N_R   0.500030 0.500030 0.142800 -0.161338
N3    N     N_R   0.966892 0.550702 0.185254 0.218257
O9    O     O_R   0.999926 0.635584 0.104467 -0.310560
O10   O     O_R   0.895721 0.470555 0.136181 -0.344956
N4    N     N_R   0.033108 0.449324 0.814748 0.218274
O11   O     O_R   0.000077 0.364442 0.895536 -0.310546
O12   O     O_R   0.104279 0.529473 0.863820 -0.344941
N5    N     N_R   0.584228 0.707138 0.147073 0.220193
O13   O     O_R   0.558396 0.818741 0.102282 -0.394323
O14   O     O_R   0.667470 0.694770 0.233344 -0.362891
N6    N     N_R   0.415790 0.292878 0.852903 0.220230
O15   O     O_R   0.332384 0.305203 0.766887 -0.362949
O16   O     O_R   0.441852 0.181270 0.897472 -0.394371

loop_
_geom_bond_atom_site_label_1
_geom_bond_atom_site_label_2
_geom_bond_distance
_ccdc_geom_bond_type
C15   C20   1.397471 A    
N4    O12   1.301390 A    
C13   C14   1.421421 A    
C6    C11   1.389943 A    
C10   H3    1.083806 S    
N3    O10   1.301390 A    
C21   C23   1.417258 A    
C23   H9    1.081868 S    
C3    C6    1.435386 S    
C8    C10   1.386494 A    
N3    O9    1.301111 A    
C4    C5    1.435383 S    
O6    C4    1.291442 A    
O7    Zn2   2.014836 S    
O3    C1    1.283911 A    
N5    O14   1.298828 A    
N4    O11   1.301110 A    
C2    C19   1.415054 S    
C15   H5    1.083863 S    
C22   N6    1.429063 S    
C21   N5    1.429141 S    
N5    O13   1.301153 A    
N6    O15   1.298964 A    
C16   H6    1.083864 S    
C9    H4    1.083805 S    
O7    C3    1.289746 A    
C8    N4    1.437212 S    
O2    C2    1.287441 A    
O3    Zn2   1.989043 S    
C24   H10   1.081868 S    
C21   N2    1.381432 A    
O1    C1    1.287451 A    
O8    C4    1.289745 A    
C22   C24   1.417260 A    
C17   H7    1.083478 S    
C11   H2    1.079433 S    
N6    O16   1.301236 A    
O5    C3    1.291441 A    
C18   H8    1.083473 S    
C11   C13   1.378763 A    
C6    C9    1.395500 A    
C5    C10   1.395499 A    
O2    Zn2   1.998174 S    
C12   C14   1.378766 A    
C7    C14   1.413993 A    
O1    Zn1   1.998174 S    
C16   C18   1.370883 A    
C8    C13   1.413993 A    
C15   C17   1.370880 A    
O5    Zn1   1.997778 S    
C22   N1    1.381350 A    
Zn1   N1    2.019126 S    
O4    C2    1.283921 A    
C24   N2    1.357992 A    
O4    Zn1   1.989043 S    
C23   N1    1.357951 A    
O6    Zn2   1.997777 S    
C7    C9    1.386496 A    
C1    C20   1.415058 S    
C12   H1    1.079439 S    
C5    C12   1.389945 A    
C17   C19   1.394502 A    
C7    N3    1.437212 S    
C16   C19   1.397470 A    
Zn2   N2    2.019126 S    
O8    Zn1   2.014836 S    
C18   C20   1.394501 A    
