data_mof_unit_20078.cif
_audit_creation_date              2012-12-10T17:01:36-0500
_audit_creation_method            fapswitch 2.2
_symmetry_space_group_name_H-M    P1
_symmetry_Int_Tables_number       1
_space_group_crystal_system       triclinic
_cell_length_a                    9.819478
_cell_length_b                    11.036418
_cell_length_c                    13.024113
_cell_angle_alpha                 89.698695
_cell_angle_beta                  76.512729
_cell_angle_gamma                 110.967096
_cell_volume                      1275.5105019

loop_
_atom_site_label
_atom_site_type_symbol
_atom_type_description
_atom_site_fract_x
_atom_site_fract_y
_atom_site_fract_z
_atom_type_partial_charge
C1    C     C_R   0.439699 0.253994 0.507350 0.853719
C2    C     C_R   0.560313 0.746023 0.492117 0.871025
C3    C     C_2   0.082600 0.509546 0.489837 -0.056345
C4    C     C_2   0.917061 0.484132 0.504336 -0.077011
C5    C     C_R   0.474883 0.495501 0.702341 0.845540
C6    C     C_R   0.525575 0.505303 0.297994 0.824691
C7    C     C_R   0.539121 0.514456 0.184957 -0.139161
C8    C     C_R   0.462561 0.485619 0.815886 -0.134504
C9    C     C_R   0.312636 0.385934 0.991266 -0.185528
C10   C     C_R   0.684779 0.620651 0.011275 -0.196305
C11   C     C_R   0.326439 0.403176 0.883401 -0.290723
C12   C     C_R   0.670359 0.605188 0.119100 -0.279675
C13   C     C_R   0.586853 0.553367 0.856811 0.382633
C14   C     C_R   0.420123 0.437469 0.143091 0.383684
C15   C     C_R   0.569231 0.543244 0.967008 0.009328
C16   C     C_R   0.433276 0.454739 0.034092 0.018072
C17   C     C_2   0.405669 0.114674 0.510794 -0.361374
C18   C     C_2   0.594268 0.885370 0.487475 -0.345926
C19   C     C_2   0.516879 0.069576 0.496661 -0.154595
C20   C     C_2   0.483040 0.930403 0.500717 -0.157413
Cu1   Cu    Cu3+1 0.647370 0.522180 0.481340 0.947865
Cu2   Cu    Cu3+1 0.352630 0.477820 0.518660 0.946359
H1    H     H_    0.760920 0.666418 0.151574 0.173684
H2    H     H_    0.231337 0.349084 0.852193 0.174171
H3    H     H_    0.206773 0.319374 0.040927 0.187646
H4    H     H_    0.786611 0.694087 0.963119 0.184919
H5    H     H_    0.366067 0.864434 0.514984 0.179312
H6    H     H_    0.633852 0.135510 0.482373 0.182042
H7    H     H_    0.711035 0.951647 0.473179 0.149926
H8    H     H_    0.288869 0.048488 0.525037 0.150584
H9    H     H_    0.835183 0.403809 0.560499 0.147617
H10   H     H_    0.164255 0.585291 0.429607 0.164120
H11   H     H_    0.949240 0.632421 0.401707 0.190269
H12   H     H_    0.051113 0.372485 0.602806 0.184756
N1    N     N_2   0.131210 0.444490 0.546730 -0.293074
N2    N     N_2   0.868790 0.555510 0.453270 -0.283096
O1    O     O_R   0.578710 0.332530 0.490040 -0.583937
O2    O     O_R   0.421290 0.667470 0.509960 -0.587454
O3    O     O_R   0.329810 0.295070 0.521560 -0.580232
O4    O     O_R   0.670190 0.704930 0.478440 -0.573563
O5    O     O_R   0.604230 0.515670 0.637800 -0.555745
O6    O     O_R   0.395770 0.484330 0.362200 -0.534837
O7    O     O_R   0.355330 0.478200 0.669330 -0.587982
O8    O     O_R   0.644670 0.521800 0.330670 -0.586653
O9    O     O_3   0.288656 0.350038 0.209222 -0.573144
C21   C     C_3   0.306847 0.230210 0.223234 0.067579
H13   H     H_    0.404838 0.242560 0.256982 0.129115
H14   H     H_    0.322726 0.186703 0.146444 0.132559
C22   C     C_3   0.166160 0.135765 0.300258 -0.765444
H15   H     H_    0.066379 0.118296 0.267865 0.238725
H16   H     H_    0.179608 0.041477 0.312747 0.189404
H17   H     H_    0.147633 0.176631 0.377759 0.263338
O10   O     O_3   0.719798 0.638391 0.790161 -0.574241
C23   C     C_3   0.829490 0.580234 0.772984 0.080175
H18   H     H_    0.796172 0.493676 0.728090 0.148009
H19   H     H_    0.846862 0.547862 0.848329 0.123618
C24   C     C_3   0.979367 0.679419 0.709698 -0.767641
H20   H     H_    0.016084 0.765323 0.754786 0.236874
H21   H     H_    0.066507 0.635064 0.694977 0.209399
H22   H     H_    0.967874 0.712107 0.632437 0.254847

loop_
_geom_bond_atom_site_label_1
_geom_bond_atom_site_label_2
_ccdc_geom_bond_type
C5    C8    S    
C4    N2    D    
C23   H19   S    
C6    C7    S    
C19   H6    S    
C20   H5    S    
C1    O1    A    
C2    C18   S    
Cu1   O8    S    
C2    O2    A    
C13   O10   S    
C19   C20   S    
C21   C22   S    
C3    N1    D    
C22   H17   S    
C10   H4    S    
Cu2   N1    S    
C5    O7    A    
C9    H3    S    
C3    H10   S    
C18   H7    S    
C6    O8    A    
O9    C21   S    
C17   H8    S    
C9    C11   A    
C12   H1    S    
C24   H20   S    
Cu2   O6    S    
Cu1   O4    S    
C10   C12   A    
C8    C11   A    
Cu1   O5    S    
Cu2   O3    S    
Cu1   Cu2   S    
C17   C19   D    
C9    C16   A    
C22   H15   S    
C14   O9    S    
C18   C20   D    
C10   C15   A    
C13   C15   A    
C7    C12   A    
C14   C16   A    
C24   H21   S    
C4    H9    S    
C21   H14   S    
C1    O3    A    
C15   C16   A    
Cu2   O2    S    
C8    C13   A    
C2    O4    A    
C11   H2    S    
H11   N2    S    
Cu1   O1    S    
H12   N1    S    
C6    O6    A    
C23   H18   S    
Cu1   N2    S    
C5    O5    A    
C21   H13   S    
C24   H22   S    
O10   C23   S    
C1    C17   S    
C23   C24   S    
C7    C14   A    
C3    C4    S    
C22   H16   S    
Cu2   O7    S    
