data_mof_unit_21357.cif
_audit_creation_date              2012-12-10T17:42:47-0500
_audit_creation_method            fapswitch 2.2
_symmetry_space_group_name_H-M    P1
_symmetry_Int_Tables_number       1
_space_group_crystal_system       triclinic
_cell_length_a                    15.012904
_cell_length_b                    13.829707
_cell_length_c                    15.859142
_cell_angle_alpha                 90.493425
_cell_angle_beta                  88.727829
_cell_angle_gamma                 91.39939
_cell_volume                      3290.8387948

loop_
_atom_site_label
_atom_site_type_symbol
_atom_type_description
_atom_site_fract_x
_atom_site_fract_y
_atom_site_fract_z
_atom_type_partial_charge
C1    C     C_R   0.329056 0.499106 0.501250 0.791102
C2    C     C_3   0.593289 0.524941 0.947135 -0.546573
C3    C     C_3   0.599548 0.519000 0.045452 0.206026
C4    C     C_1   0.497378 0.500670 0.824890 0.082450
C5    C     C_1   0.504597 0.497889 0.175553 0.029249
C6    C     C_1   0.503937 0.498650 0.251019 -0.225175
C7    C     C_R   0.815892 0.535849 0.424945 0.101899
C8    C     C_R   0.767306 0.502300 0.496064 -0.112720
C9    C     C_R   0.809575 0.464478 0.564894 -0.241890
C10   C     C_R   0.902178 0.460597 0.566379 -0.010496
C11   C     C_R   0.952857 0.494477 0.495774 -0.056534
C12   C     C_R   0.501507 0.499643 0.340434 0.813067
C13   C     C_R   0.910060 0.531666 0.423772 0.146022
C14   C     C_R   0.944980 0.422198 0.636707 0.045547
C15   C     C_R   0.037824 0.417222 0.636956 0.489171
C16   C     C_R   0.089622 0.458965 0.570352 -0.050208
C17   C     C_R   0.046571 0.492623 0.497839 -0.042592
C18   C     C_R   0.097536 0.526073 0.427747 0.130595
C19   C     C_R   0.055881 0.559705 0.356444 -0.283512
C20   C     C_R   0.963200 0.563402 0.353576 0.164253
C21   C     C_R   0.183214 0.468757 0.574312 0.098025
C22   C     C_R   0.232569 0.497042 0.501906 -0.107144
C23   C     C_R   0.670858 0.500935 0.498168 0.800843
C24   C     C_R   0.190066 0.525573 0.429525 -0.246093
C25   C     C_R   0.448186 0.793557 0.557991 0.335417
C26   C     C_R   0.439101 0.204346 0.549339 0.338607
C27   C     C_R   0.552044 0.794546 0.442886 0.008892
C28   C     C_R   0.558935 0.207376 0.449428 0.001451
C29   C     C_R   0.554864 0.897606 0.442561 -0.122814
C30   C     C_R   0.559534 0.104427 0.447130 -0.120446
C31   C     C_R   0.498932 0.948356 0.499206 -0.077382
C32   C     C_R   0.499843 0.051496 0.500124 -0.076280
C33   C     C_R   0.441818 0.895814 0.554844 0.021163
C34   C     C_R   0.441328 0.101890 0.554436 0.023270
C35   C     C_R   0.611595 0.950750 0.386494 0.353220
C36   C     C_R   0.618814 0.053534 0.393552 0.339761
C37   C     C_R   0.384174 0.048636 0.610650 0.110285
C38   C     C_R   0.381917 0.946804 0.608405 0.107466
C39   C     C_R   0.499504 0.500327 0.659697 0.805458
C40   C     C_3   0.436461 0.576566 0.054435 0.290046
C41   C     C_3   0.470060 0.395037 0.050691 0.235597
C42   C     C_3   0.468651 0.394409 0.950658 0.255485
C43   C     C_3   0.432197 0.579764 0.954857 0.203400
C44   C     C_1   0.498370 0.500900 0.749321 -0.190044
C45   C     C_3   0.502715 0.497379 0.083219 0.090961
C46   C     C_3   0.496547 0.499721 0.917467 0.158818
Cu1   Cu    Cu3+1 0.499990 0.597420 0.500010 0.925359
Cu2   Cu    Cu3+1 0.499990 0.402580 0.500010 0.924727
H1    H     H_    0.229496 0.549175 0.375054 0.140318
H2    H     H_    0.095568 0.584573 0.302515 0.143663
H3    H     H_    0.593424 0.754487 0.398909 0.170574
H4    H     H_    0.604266 0.248989 0.409204 0.173474
H5    H     H_    0.520142 0.341547 0.069749 0.088890
H6    H     H_    0.464203 0.646832 0.077807 0.050241
H7    H     H_    0.616091 0.597033 0.924022 0.181790
H8    H     H_    0.642063 0.476779 0.915460 0.196548
H9    H     H_    0.768615 0.438542 0.617441 0.144353
N1    N     N_R   0.499930 0.743810 0.499960 -0.215235
N2    N     N_R   0.499930 0.256190 0.499960 -0.213800
O1    O     O_R   0.370250 0.582280 0.500020 -0.585771
O2    O     O_R   0.370250 0.417720 0.500020 -0.597069
O3    O     O_R   0.499990 0.582310 0.379440 -0.582997
O4    O     O_R   0.499990 0.417690 0.379440 -0.577720
O5    O     O_R   0.629730 0.582260 0.499990 -0.578759
O6    O     O_R   0.629730 0.417740 0.499990 -0.584652
O7    O     O_R   0.499980 0.582240 0.620570 -0.592310
O8    O     O_R   0.499980 0.417760 0.620570 -0.579969
N3    N     N_3   0.340310 0.561000 0.926852 -0.538766
H10   H     H_    0.338161 0.566955 0.861234 0.232645
H11   H     H_    0.298064 0.614040 0.950895 0.224824
N4    N     N_3   0.379978 0.364789 0.918738 -0.532937
H12   H     H_    0.327882 0.395213 0.953431 0.297198
H13   H     H_    0.369586 0.290237 0.925863 0.213883
O9    O     O_3   0.076586 0.372582 0.704498 -0.558468
C47   C     C_3   0.104488 0.278861 0.680232 0.092013
H14   H     H_    0.158524 0.258869 0.723069 0.183601
H15   H     H_    0.133742 0.275956 0.615000 0.118932
C48   C     C_3   0.027891 0.204035 0.689471 -0.355955
H16   H     H_    0.997007 0.209826 0.753593 0.246231
H17   H     H_    0.976424 0.218265 0.642249 0.212556
C49   C     C_3   0.060470 0.101371 0.675641 -0.943057
H18   H     H_    0.092672 0.094197 0.612228 0.256625
H19   H     H_    0.003010 0.049441 0.679936 0.263658
H20   H     H_    0.108789 0.083017 0.724693 0.253598
N5    N     N_3   0.226730 0.458847 0.653373 -0.538843
H21   H     H_    0.272307 0.403612 0.647876 0.206521
H22   H     H_    0.261559 0.523372 0.666748 0.205063
N6    N     N_3   0.924434 0.599861 0.278803 -0.545985
H23   H     H_    0.945097 0.557072 0.227671 0.215167
H24   H     H_    0.949273 0.670263 0.268987 0.217393
N7    N     N_3   0.408238 0.745337 0.629373 -0.557808
H25   H     H_    0.368118 0.686240 0.613129 0.260325
H26   H     H_    0.456614 0.730435 0.673369 0.239109
N8    N     N_3   0.366280 0.251261 0.590369 -0.572273
H27   H     H_    0.387192 0.306307 0.630490 0.258998
H28   H     H_    0.318780 0.269972 0.546794 0.227748
O10   O     O_3   0.664554 0.901409 0.328619 -0.625086
C50   C     C_3   0.634312 0.915973 0.245719 0.086977
H29   H     H_    0.690382 0.899895 0.201317 0.169162
H30   H     H_    0.616324 0.992226 0.233703 0.168444
C51   C     C_3   0.555559 0.847516 0.225234 -0.381660
H31   H     H_    0.575425 0.771250 0.233034 0.234607
H32   H     H_    0.498536 0.861757 0.269064 0.220159
C52   C     C_3   0.525294 0.861940 0.135057 -0.947986
H33   H     H_    0.506290 0.938119 0.125683 0.261720
H34   H     H_    0.466422 0.814436 0.122584 0.250926
H35   H     H_    0.579556 0.843833 0.089339 0.253517
O11   O     O_3   0.680339 0.104647 0.343797 -0.635051
C53   C     C_3   0.766538 0.098634 0.377812 0.084584
H36   H     H_    0.815187 0.097956 0.324010 0.170850
H37   H     H_    0.776948 0.030919 0.413793 0.150387
C54   C     C_3   0.787124 0.187349 0.433436 -0.371469
H38   H     H_    0.775392 0.254400 0.397556 0.232140
H39   H     H_    0.742247 0.186342 0.490072 0.216965
C55   C     C_3   0.883466 0.189085 0.462272 -0.915129
H40   H     H_    0.896455 0.123761 0.499936 0.256986
H41   H     H_    0.895815 0.254208 0.502141 0.258765
H42   H     H_    0.930141 0.191963 0.406976 0.257712
N9    N     N_3   0.330387 0.097561 0.672965 -0.580318
H43   H     H_    0.263249 0.080309 0.663516 0.216591
H44   H     H_    0.348186 0.075765 0.733096 0.216214
N10   N     N_3   0.315424 0.895442 0.658317 -0.572438
H45   H     H_    0.324188 0.911625 0.722110 0.219816
H46   H     H_    0.252145 0.916344 0.640541 0.218152
O12   O     O_3   0.350550 0.557295 0.091673 -0.543825
C56   C     C_3   0.310972 0.641877 0.125042 0.051351
H47   H     H_    0.237561 0.629824 0.124537 0.168626
H48   H     H_    0.325701 0.706882 0.085570 0.102258
C57   C     C_3   0.338965 0.659722 0.216383 -0.345632
H49   H     H_    0.324435 0.593493 0.253850 0.224388
H50   H     H_    0.411644 0.676010 0.218287 0.220008
C58   C     C_3   0.289844 0.744247 0.256594 -0.922253
H51   H     H_    0.304641 0.811629 0.220752 0.257607
H52   H     H_    0.312084 0.755086 0.322410 0.267653
H53   H     H_    0.216822 0.729124 0.257846 0.250082
O13   O     O_3   0.384453 0.370497 0.086355 -0.572543
C59   C     C_3   0.387821 0.298951 0.149613 0.094464
H54   H     H_    0.329356 0.308623 0.192756 0.173958
H55   H     H_    0.447824 0.306923 0.189404 0.133677
C60   C     C_3   0.381732 0.197403 0.110509 -0.395935
H56   H     H_    0.319498 0.189906 0.074114 0.228080
H57   H     H_    0.439254 0.186232 0.066576 0.202721
C61   C     C_3   0.381605 0.119666 0.178267 -0.907350
H58   H     H_    0.445038 0.123355 0.213125 0.259784
H59   H     H_    0.374726 0.047124 0.148253 0.253215
H60   H     H_    0.324797 0.129247 0.223432 0.257336
N11   N     N_3   0.532985 0.323645 0.916663 -0.590817
H61   H     H_    0.510920 0.253407 0.931532 0.200120
H62   H     H_    0.594703 0.331118 0.945203 0.219394
N12   N     N_3   0.460000 0.676726 0.923651 -0.622473
H63   H     H_    0.410819 0.726380 0.939597 0.205898
H64   H     H_    0.517051 0.703340 0.952898 0.191587
N13   N     N_3   0.637749 0.609664 0.080775 -0.588908
H65   H     H_    0.606549 0.669985 0.057579 0.195106
H66   H     H_    0.704483 0.617124 0.060997 0.229127
N14   N     N_3   0.658748 0.439675 0.066839 -0.621065
H67   H     H_    0.668505 0.439762 0.131946 0.239503
H68   H     H_    0.721655 0.451742 0.038610 0.226109
N15   N     N_3   0.769413 0.571828 0.353916 -0.544222
H69   H     H_    0.724895 0.518089 0.332690 0.201015
H70   H     H_    0.733356 0.632156 0.373121 0.236146
N16   N     N_3   0.895643 0.386829 0.709146 -0.560759
H71   H     H_    0.858578 0.443205 0.735129 0.222956
H72   H     H_    0.852352 0.330817 0.690184 0.206783

loop_
_geom_bond_atom_site_label_1
_geom_bond_atom_site_label_2
_ccdc_geom_bond_type
C26   N8    S    
C61   H60   S    
C16   C21   A    
C36   O11   S    
C34   C37   A    
C11   C13   A    
C41   C42   S    
C35   C36   A    
C19   H2    S    
C60   C61   S    
Cu1   O3    S    
C52   H34   S    
C49   H18   S    
C7    C8    A    
C4    C46   S    
N5    H21   S    
C2    C46   S    
C59   H55   S    
C51   H31   S    
C18   C24   A    
N14   H67   S    
N11   H62   S    
C60   H57   S    
N16   H71   S    
C2    H7    S    
C53   H37   S    
N15   H69   S    
C6    C12   S    
C5    C6    T    
C48   H17   S    
C27   C29   A    
C61   H58   S    
C3    N13   S    
C8    C23   S    
O11   C53   S    
C18   C19   A    
C42   C46   S    
C54   H38   S    
Cu1   O1    S    
N3    H10   S    
C26   C34   A    
C40   C43   S    
N11   H61   S    
C42   N4    S    
C43   N3    S    
C55   H41   S    
N15   H70   S    
Cu2   O6    S    
N13   H66   S    
C26   N2    A    
Cu1   O7    S    
C57   C58   S    
N5    H22   S    
C1    C22   S    
C51   H32   S    
C21   C22   A    
C42   N11   S    
C54   H39   S    
C52   H33   S    
C49   H19   S    
C27   H3    S    
O10   C50   S    
N16   H72   S    
N9    H44   S    
C40   C45   S    
C59   C60   S    
C21   N5    S    
C25   N7    S    
O9    C47   S    
C58   H53   S    
C41   O13   S    
C60   H56   S    
C10   C14   A    
C1    O1    A    
N7    H25   S    
N4    H13   S    
C12   O4    A    
C48   H16   S    
C16   C17   A    
Cu2   O4    S    
C4    C44   T    
C56   C57   S    
C47   C48   S    
C5    C45   S    
C3    C45   S    
C15   C16   A    
C32   C34   A    
C14   N16   S    
C47   H14   S    
C37   C38   A    
N12   H64   S    
N7    H26   S    
C12   O3    A    
Cu1   Cu2   S    
C37   N9    S    
C55   H42   S    
C31   C33   A    
C17   C18   A    
C8    C9    A    
N8    H28   S    
C47   H15   S    
C41   H5    S    
C38   N10   S    
C43   N12   S    
N3    H11   S    
C23   O5    A    
N6    H24   S    
C51   C52   S    
C40   H6    S    
O12   C56   S    
C39   O7    A    
C22   C24   A    
C53   C54   S    
C25   N1    A    
N10   H46   S    
Cu1   O5    S    
C49   H20   S    
Cu2   N2    S    
C57   H49   S    
C9    C10   A    
C28   N2    A    
C24   H1    S    
C61   H59   S    
C11   C17   A    
C56   H48   S    
C13   C20   A    
C14   C15   A    
C39   O8    A    
C31   C32   A    
O13   C59   S    
C27   N1    A    
C1    O2    A    
N9    H43   S    
C39   C44   S    
C50   C51   S    
C59   H54   S    
C29   C35   A    
C50   H30   S    
C33   C38   A    
C30   C36   A    
C23   O6    A    
C19   C20   A    
C28   C30   A    
C2    C3    S    
N10   H45   S    
N4    H12   S    
C29   C31   A    
C2    H8    S    
C53   H36   S    
Cu1   N1    S    
C30   C32   A    
C28   H4    S    
C48   C49   S    
Cu2   O2    S    
C56   H47   S    
C40   O12   S    
C20   N6    S    
N14   H68   S    
C3    N14   S    
C58   H51   S    
C9    H9    S    
C52   H35   S    
Cu2   O8    S    
N8    H27   S    
C43   C46   S    
C10   C11   A    
C7    C13   A    
C15   O9    S    
C7    N15   S    
N6    H23   S    
C58   H52   S    
C50   H29   S    
C41   C45   S    
N12   H63   S    
N13   H65   S    
C35   O10   S    
C54   C55   S    
C55   H40   S    
C25   C33   A    
C57   H50   S    
