data_mof_unit_7726.cif
_audit_creation_date              2013-03-05T16:06:55-0500
_audit_creation_method            fapswitch 2.2
_symmetry_space_group_name_H-M    P1
_symmetry_Int_Tables_number       1
_space_group_crystal_system       triclinic
_cell_length_a                    8.252845
_cell_length_b                    15.262736
_cell_length_c                    27.061049
_cell_angle_alpha                 98.341637
_cell_angle_beta                  92.007214
_cell_angle_gamma                 81.034521
_cell_volume                      3331.10178798

loop_
_atom_site_label
_atom_site_type_symbol
_atom_site_description
_atom_site_fract_x
_atom_site_fract_y
_atom_site_fract_z
_atom_type_partial_charge
P1    P     P_3+3 0.071960 0.575810 0.612130 0.542138
O1    O     O_2   0.906490 0.548660 0.619040 -0.312874
O2    O     O_3   0.138490 0.548590 0.558860 -0.409262
O3    O     O_3   0.686290 0.382320 0.585720 -0.393761
O4    O     O_2   0.843612 0.422021 0.671219 -0.330069
O5    O     O_3   0.034076 0.692346 0.627850 -0.564213
O6    O     O_3   0.635617 0.309483 0.672050 -0.620709
H1    H     H_    0.851922 0.255192 0.631431 0.112033
C1    C     C_3   0.841032 0.196953 0.698270 -0.758048
H2    H     H_    0.931111 0.136845 0.684794 0.245418
H3    H     H_    0.906936 0.247200 0.721293 0.210931
P2    P     P_3+3 0.664360 0.290070 0.457280 0.519445
P3    P     P_3+3 0.140244 0.220659 0.559078 0.509914
O7    O     O_2   0.844020 0.276410 0.471510 -0.365453
O8    O     O_3   0.101490 0.335510 0.560360 -0.374267
O9    O     O_2   0.988404 0.184928 0.533650 -0.336057
O10   O     O_3   0.672345 0.258417 0.392586 -0.523514
O11   O     O_3   0.137485 0.198770 0.620771 -0.540724
C2    C     C_3   0.260928 0.237260 0.649425 0.876376
H4    H     H_    0.364827 0.247020 0.626503 0.000316
C3    C     C_3   0.330769 0.174867 0.687205 0.020264
H5    H     H_    0.229990 0.164378 0.711178 0.104918
C4    C     C_3   0.225256 0.267578 0.412200 0.182930
H6    H     H_    0.335890 0.296182 0.426171 0.074941
H7    H     H_    0.134185 0.278249 0.442547 0.053013
C5    C     C_3   0.269743 0.166469 0.394762 0.733389
H8    H     H_    0.267636 0.129982 0.427399 -0.011212
Ba1   Ba    Ba6+2 0.860050 0.456430 0.522540 1.646784
C6    C     C_3   0.967810 0.732678 0.587229 0.307327
H9    H     H_    0.856366 0.704700 0.573943 0.118808
H10   H     H_    0.058056 0.721841 0.556713 0.122362
C7    C     C_3   0.923419 0.832959 0.604540 -0.852388
H11   H     H_    0.818598 0.845554 0.630579 0.266480
H12   H     H_    0.889549 0.869662 0.572403 0.238424
H13   H     H_    0.029459 0.859826 0.624115 0.271888
C8    C     C_3   0.682849 0.330545 0.367164 0.246270
H14   H     H_    0.792504 0.361656 0.380038 0.045970
H15   H     H_    0.570967 0.380960 0.373474 0.125923
C9    C     C_3   0.698138 0.292883 0.311356 -0.015566
H16   H     H_    0.830005 0.270043 0.302332 0.168014
H17   H     H_    0.633235 0.233326 0.302413 0.212217
P4    P     P_3+3 0.117760 0.424110 0.387870 0.548803
O12   O     O_2   0.283210 0.451320 0.380930 -0.343106
O13   O     O_3   0.051220 0.451340 0.441130 -0.355039
O14   O     O_3   0.503420 0.617610 0.414270 -0.303347
O15   O     O_3   0.158309 0.308164 0.371692 -0.554487
P5    P     P_3+3 0.055357 0.782393 0.441100 0.595033
O16   O     O_3   0.617160 0.609950 0.527080 -0.320013
O17   O     O_3   0.088220 0.664410 0.439630 -0.300727
O18   O     O_2   0.185913 0.819994 0.476477 -0.360125
O19   O     O_3   0.112198 0.807284 0.383305 -0.496093
Ba2   Ba    Ba6+2 0.329780 0.543490 0.477450 1.693836
P6    P     P_3+3 0.670934 0.407853 0.650536 0.471175
C10   C     C_3   0.755861 0.236611 0.653928 0.994305
H18   H     H_    0.749232 0.176928 0.721924 0.243962
O20   O     O_3   0.572560 0.389970 0.472910 -0.398244
C11   C     C_3   0.406847 0.727942 0.631716 0.148294
H19   H     H_    0.294731 0.771266 0.620435 0.111402
H20   H     H_    0.395194 0.656111 0.620783 0.067344
C12   C     C_3   0.427086 0.747213 0.688609 0.643711
H21   H     H_    0.545670 0.708838 0.699951 0.084455
P7    P     P_3+3 0.531646 0.722803 0.544310 0.458498
O21   O     O_2   0.345680 0.723560 0.528460 -0.393601
O22   O     O_3   0.545162 0.747751 0.609509 -0.618199
H22   H     H_    0.421336 0.206867 0.712055 0.155886
C13   C     C_3   0.974801 0.828252 0.352207 0.662357
H23   H     H_    0.856417 0.835136 0.371290 -0.184697
C14   C     C_3   0.981849 0.918171 0.333081 0.470777
H24   H     H_    0.875449 0.931796 0.307138 0.064097
P8    P     P_3+3 0.504118 0.602695 0.347708 0.579456
C15   C     C_3   0.539283 0.762648 0.326854 0.949668
O23   O     O_2   0.362298 0.550152 0.330609 -0.296684
O24   O     O_3   0.424811 0.702919 0.324352 -0.513089
H25   H     H_    0.666581 0.727765 0.327095 0.094677
H26   H     H_    0.589034 0.884267 0.374347 0.205618
C16   C     C_3   0.506652 0.833111 0.373223 -0.847366
H27   H     H_    0.525322 0.800713 0.407613 0.235772
H28   H     H_    0.378561 0.868493 0.372475 0.304987
C17   C     C_R   0.010584 0.417333 0.169257 0.607974
O25   O     O_2   0.018484 0.345174 0.184522 -0.558965
N1    N     N_R   0.945624 0.495919 0.199417 -0.166368
C18   C     C_R   0.917332 0.575218 0.178732 0.606895
C19   C     C_2   0.744939 0.532063 0.267201 -0.158135
C20   C     C_3   0.695411 0.526512 0.320621 0.050799
C21   C     C_1   0.984167 0.476166 0.339653 0.046006
C22   C     C_2   0.024006 0.462528 0.290841 0.445266
C23   C     C_2   0.900018 0.496281 0.251705 0.070032
C24   C     C_R   0.040980 0.500872 0.100012 -0.061262
C25   C     C_R   0.062468 0.419249 0.119845 -0.080254
C26   C     C_R   0.134069 0.341037 0.089660 -0.044892
C27   C     C_R   0.968957 0.579222 0.129960 -0.143448
C28   C     C_2   0.843621 0.524377 0.355519 -0.001624
H29   H     H_    0.152197 0.276954 0.103541 0.180495
C29   C     C_2   0.354316 0.488649 0.640775 -0.556368
C30   C     C_R   0.213778 0.428492 0.970415 0.059407
C31   C     C_R   0.083888 0.585973 0.977919 0.040267
C32   C     C_R   0.168458 0.508708 0.948939 0.096535
C33   C     C_R   0.305937 0.354603 0.940919 -0.199479
C34   C     C_R   0.345450 0.358254 0.891625 -0.075500
C35   C     C_R   0.294501 0.435534 0.869226 -0.019049
C36   C     C_R   0.205380 0.511249 0.897827 -0.143173
C37   C     C_R   0.152103 0.589054 0.875259 -0.196386
C38   C     C_R   0.195952 0.590409 0.824967 0.600935
N2    N     N_R   0.279854 0.514846 0.796936 -0.178561
C39   C     C_R   0.329612 0.438054 0.818636 0.524029
C40   C     C_2   0.468648 0.502748 0.727568 -0.165555
C41   C     C_3   0.505201 0.501320 0.672548 0.203053
C42   C     C_1   0.209360 0.525316 0.658396 0.284504
C43   C     C_2   0.172998 0.528941 0.706329 0.498564
C44   C     C_2   0.311891 0.515433 0.744133 -0.033426
O26   O     O_2   0.403191 0.371410 0.793733 -0.599505
C45   C     C_R   0.163573 0.424519 0.020123 0.059555
C46   C     C_R   0.088289 0.503987 0.049936 0.072083
C47   C     C_R   0.060206 0.586649 0.030155 -0.086829
C48   C     C_R   0.184080 0.343524 0.041127 -0.197101
H30   H     H_    0.570366 0.495404 0.753962 0.169668
H31   H     H_    0.415977 0.299396 0.870854 0.168572
H32   H     H_    0.352161 0.293000 0.955200 0.137586
H33   H     H_    0.234831 0.279914 0.020430 0.139381
O27   O     O_2   0.844824 0.642955 0.202626 -0.500281
C49   C     C_R   0.955954 0.661402 0.111618 -0.131983
H34   H     H_    0.651254 0.555879 0.241055 0.184886
H35   H     H_    0.913528 0.723183 0.135897 0.223352
C50   C     C_R   0.015726 0.658339 0.952939 -0.289625
C51   C     C_R   0.051820 0.662050 0.902953 0.615904
O28   O     O_2   0.159484 0.658858 0.805984 -0.453545
C52   C     C_R   0.009288 0.666731 0.063766 0.292267
H36   H     H_    0.928024 0.711890 0.971460 0.167059
H37   H     H_    0.365091 0.449421 0.603820 0.190528
C53   C     C_R   0.336502 0.171420 0.528174 0.157484
H38   H     H_    0.371724 0.303866 0.516513 0.173476
C54   C     C_R   0.573961 0.207559 0.488653 0.305198
C55   C     C_R   0.767709 0.774284 0.488793 -0.390701
C56   C     C_R   0.851822 0.831454 0.467983 0.233674
C57   C     C_R   0.786609 0.922649 0.471484 -0.253856
C58   C     C_R   0.636660 0.957832 0.496448 0.081133
C59   C     C_R   0.556093 0.896735 0.518010 -0.056388
C60   C     C_R   0.564807 0.051045 0.501266 0.036124
C61   C     C_R   0.406684 0.079053 0.524045 -0.125468
C62   C     C_R   0.329668 0.013886 0.543212 0.388406
C63   C     C_R   0.410163 0.927714 0.543098 -0.168869
C64   C     C_R   0.644234 0.116975 0.483635 -0.170958
C65   C     C_R   0.423993 0.233706 0.512229 -0.576460
C66   C     C_R   0.621496 0.804676 0.513467 0.207243
H39   H     H_    0.762052 0.100417 0.466246 0.207238
H40   H     H_    0.823156 0.705971 0.489011 0.193957
H41   H     H_    0.855493 0.964187 0.455113 0.209083
H42   H     H_    0.347492 0.883377 0.560390 0.179353
O29   O     O_3   0.427124 0.148320 0.374407 -0.697276
H43   H     H_    0.459149 0.082217 0.370270 0.350457
O30   O     O_3   0.157602 0.136851 0.358276 -0.626404
H44   H     H_    0.046663 0.156693 0.372540 0.345156
O31   O     O_3   0.633425 0.357247 0.281066 -0.737786
H45   H     H_    0.511722 0.365115 0.283999 0.376769
O32   O     O_3   0.679905 0.170721 0.624625 -0.710070
H46   H     H_    0.650443 0.193360 0.592420 0.297341
O33   O     O_3   0.425845 0.839570 0.703902 -0.710990
H47   H     H_    0.535470 0.853076 0.696147 0.330209
O34   O     O_3   0.300516 0.718251 0.712296 -0.726483
H48   H     H_    0.197672 0.759445 0.706818 0.373879
N3    N     N_R   0.975178 0.757701 0.309551 0.204701
O35   O     O_R   0.875010 0.770665 0.272198 -0.384507
O36   O     O_R   0.073607 0.681974 0.308365 -0.319088
O37   O     O_3   0.128670 0.915455 0.307907 -0.704002
H49   H     H_    0.113072 0.885847 0.273190 0.331595
N4    N     N_R   0.968009 0.991325 0.374351 0.224899
O38   O     O_R   0.085032 0.996612 0.407683 -0.382511
O39   O     O_R   0.840619 0.053766 0.376795 -0.452879
O40   O     O_3   0.523835 0.805083 0.283858 -0.687855
H50   H     H_    0.405310 0.825119 0.278137 0.368077
O41   O     O_3   0.190448 0.320099 0.675065 -0.770733
H51   H     H_    0.281890 0.347155 0.692690 0.293638
O42   O     O_3   0.159398 0.399743 0.275287 -0.687447
H52   H     H_    0.117025 0.340882 0.271733 0.354646
O43   O     O_3   0.985838 0.735610 0.880371 -0.669347
H53   H     H_    0.920273 0.780731 0.904897 0.330287
O44   O     O_3   0.010417 0.544939 0.720060 -0.680008
H54   H     H_    0.002912 0.528668 0.753863 0.313855
N5    N     N_R   0.031923 0.753600 0.053068 0.233205
O45   O     O_R   0.169773 0.764389 0.034471 -0.353711
O46   O     O_R   0.926059 0.824027 0.068614 -0.357094
N6    N     N_R   0.839157 0.589175 0.398631 0.252239
O47   O     O_R   0.810172 0.672673 0.392482 -0.504437
O48   O     O_R   0.801914 0.567318 0.440859 -0.355665
N7    N     N_R   0.162178 0.027770 0.558021 0.257114
O49   O     O_R   0.053186 0.011672 0.523441 -0.375549
O50   O     O_R   0.129043 0.019102 0.603583 -0.405760
O51   O     O_3   0.411500 0.093423 0.662168 -0.679715
H55   H     H_    0.355924 0.044749 0.671662 0.369614

loop_
_geom_bond_atom_site_label_1
_geom_bond_atom_site_label_2
_geom_bond_distance
_ccdc_geom_bond_type
C13   C14   1.545272 S    
O41   H51   0.991102 S    
C36   C37   1.416108 A    
O3    P6    1.745363 S    
O40   H50   0.992063 S    
C19   C23   1.365790 D    
C2    H4    1.116274 S    
C12   O34   1.403720 S    
C18   O27   1.218746 D    
C37   C51   1.414804 A    
N3    O35   1.301073 A    
N7    O49   1.299342 A    
C30   C33   1.414714 A    
C57   C58   1.422080 A    
P5    O17   1.773575 S    
O42   H52   1.004552 S    
C29   C42   1.313608 D    
C35   C39   1.416404 A    
O33   H47   0.994499 S    
P3    O11   1.751050 S    
C9    O31   1.400578 S    
C62   N7    1.427946 S    
O4    P6    1.547875 D    
O37   H49   0.994916 S    
C2    C3    1.534418 S    
C16   H28   1.110532 S    
C49   C52   1.399580 A    
C6    C7    1.524953 S    
C30   C45   1.433616 A    
O34   H48   0.994771 S    
C15   C16   1.531511 S    
O12   Ba2   2.825061 S    
C11   H20   1.111528 S    
C40   C41   1.525894 S    
C42   C43   1.333020 D    
P1    O1    1.512707 D    
P4    O15   1.742476 S    
C4    C5    1.537268 S    
C24   C46   1.432688 A    
C38   O28   1.221796 D    
N6    O47   1.293361 A    
N2    C39   1.385626 Am   
P7    O22   1.753539 S    
C63   H42   1.078100 S    
O3    Ba1   2.738137 S    
Ba1   O16   2.827249 S    
O43   H53   0.991943 S    
C14   H24   1.117771 S    
P2    O10   1.747971 S    
P1    Ba1   3.416224 S    
P3    C53   1.849510 S    
C15   O40   1.404290 S    
C1    H18   1.113569 S    
O10   C8    1.395122 S    
C6    H9    1.100999 S    
P8    C20   1.908723 S    
C1    H2    1.112040 S    
C50   H36   1.079492 S    
O13   Ba2   2.945765 S    
C54   C65   1.387657 A    
C13   H23   1.104464 S    
C39   O26   1.222615 D    
C3    O51   1.406162 S    
C4    O15   1.392305 S    
C3    H5    1.116978 S    
N4    O39   1.300856 A    
C64   H39   1.073167 S    
C31   C47   1.432105 A    
P4    O13   1.536897 S    
C53   C61   1.428199 A    
C45   C46   1.422787 A    
N3    O36   1.302002 A    
C21   C28   1.322256 D    
C33   H32   1.078073 S    
P5    O18   1.538776 D    
C11   H19   1.111157 S    
C16   H27   1.110864 S    
C14   O37   1.402844 S    
C54   C64   1.402642 A    
C61   C62   1.425533 A    
C29   C41   1.509664 S    
O32   H46   0.992162 S    
C29   H37   1.087365 S    
C17   C25   1.423890 A    
C31   C50   1.410557 A    
P1    O5    1.748944 S    
C7    H13   1.109496 S    
C62   C63   1.377597 A    
C58   C60   1.442683 A    
C60   C64   1.427136 A    
H1    C10   1.110640 S    
C9    H16   1.114078 S    
C15   O24   1.405049 S    
C22   C23   1.533675 S    
O11   C2    1.408269 S    
C11   C12   1.533169 S    
P5    O19   1.757779 S    
P1    C42   1.831771 S    
O14   Ba2   2.737619 S    
C21   C22   1.351124 D    
Ba1   O13   2.739375 S    
N1    C18   1.389997 Am   
C18   C27   1.413516 A    
N5    O45   1.302749 A    
C13   N3    1.459635 S    
C40   H30   1.085959 S    
O51   H55   0.999047 S    
P1    O2    1.537105 S    
O19   C13   1.412292 S    
C7    H12   1.106238 S    
H26   C16   1.109009 S    
P7    O21   1.577768 D    
C34   H31   1.084042 S    
P6    C41   1.860927 S    
O16   P7    1.758816 S    
C19   C20   1.533560 S    
C24   C27   1.403963 A    
P2    O7    1.509012 D    
O30   H44   0.991648 S    
O17   Ba2   2.772403 S    
C31   C32   1.416452 A    
P8    O24   1.762759 S    
C5    H8    1.112326 S    
C11   O22   1.401401 S    
P4    C21   1.864486 S    
N1    C23   1.475878 S    
C26   C48   1.397849 A    
C12   O33   1.408879 S    
C53   C65   1.402171 A    
C1    H3    1.113453 S    
P2    O20   1.597815 S    
C59   C66   1.413792 A    
P2    Ba1   3.457066 S    
O44   H54   0.988411 S    
C57   H41   1.064359 S    
P3    O8    1.727622 S    
P5    C56   1.856604 S    
C55   C56   1.385324 A    
P4    O12   1.513105 D    
O6    P6    1.754985 S    
C51   O43   1.384068 S    
C10   O32   1.401211 S    
H38   C65   1.081539 S    
C26   H29   1.084988 S    
C17   N1    1.392256 Am   
C46   C47   1.424130 A    
C40   C44   1.359943 D    
C59   C63   1.386203 A    
O2    Ba1   2.945014 S    
C55   C66   1.381735 A    
P2    C54   1.873694 S    
C3    H22   1.110268 S    
O14   P8    1.782606 S    
C8    C9    1.538156 S    
C5    O30   1.404493 S    
C2    O41   1.401023 S    
C58   C59   1.424946 A    
Ba2   O21   2.911204 S    
C15   H25   1.101543 S    
P8    O23   1.540789 D    
O2    Ba2   2.739939 S    
C30   C32   1.423068 A    
C56   C57   1.402776 A    
C55   H40   1.072108 S    
C5    O29   1.400299 S    
C48   H33   1.078709 S    
C34   C35   1.403724 A    
C22   O42   1.387861 S    
C52   N5    1.438406 S    
C7    H11   1.110575 S    
C8    H15   1.106925 S    
C25   C26   1.404443 A    
C6    H10   1.108621 S    
C28   N6    1.413299 S    
O29   H43   0.993218 S    
N2    C44   1.463786 S    
C47   C52   1.428957 A    
Ba1   Ba2   4.548613 S    
O8    Ba1   2.771810 S    
N4    O38   1.301918 A    
Ba1   O20   2.931481 S    
C35   C36   1.410989 A    
C4    H7    1.110015 S    
C19   H34   1.085930 S    
C37   C38   1.424265 A    
N6    O48   1.295650 A    
C49   H35   1.084845 S    
N7    O50   1.301802 A    
C60   C61   1.439321 A    
C4    H6    1.104250 S    
C17   O25   1.222944 D    
C43   O44   1.380029 S    
O16   Ba2   2.930713 S    
O5    C6    1.391285 S    
C24   C25   1.410670 A    
C9    H17   1.118310 S    
C8    H14   1.108904 S    
C33   C34   1.395204 A    
C27   C49   1.402178 A    
P3    O9    1.544310 D    
P4    Ba2   3.416575 S    
C38   N2    1.385296 Am   
C12   H21   1.116912 S    
O1    Ba1   2.824760 S    
C1    C10   1.522928 S    
C20   C28   1.518095 S    
O6    C10   1.412130 S    
O7    Ba1   2.910903 S    
O31   H45   0.997373 S    
C43   C44   1.519330 S    
C45   C48   1.418399 A    
C32   C36   1.433942 A    
Ba2   O20   2.826721 S    
P7    C66   1.855469 S    
C50   C51   1.406190 A    
N5    O46   1.302904 A    
C14   N4    1.454077 S    
