data_mof_unit_11797.cif
_audit_creation_date              2012-12-11T16:37:17-0500
_audit_creation_method            fapswitch 2.2
_symmetry_space_group_name_H-M    P1
_symmetry_Int_Tables_number       1
_space_group_crystal_system       monoclinic
_cell_length_a                    19.486438
_cell_length_b                    6.942796
_cell_length_c                    17.683583
_cell_angle_alpha                 90.0
_cell_angle_beta                  108.904107
_cell_angle_gamma                 90.0
_cell_volume                      2263.37644455

loop_
_atom_site_label
_atom_site_type_symbol
_atom_type_description
_atom_site_fract_x
_atom_site_fract_y
_atom_site_fract_z
_atom_type_partial_charge
O1    O     O_R   0.561710 0.369960 0.440200 -0.537838
O2    O     O_R   0.061710 0.630040 0.940200 -0.537837
O3    O     O_R   0.412630 0.033330 0.406330 -0.542975
O4    O     O_R   0.912630 0.966670 0.906330 -0.542975
O5    O     O_R   0.438290 0.869790 0.559800 -0.539404
O6    O     O_R   0.938290 0.130210 0.059800 -0.539405
C1    C     C_R   0.384584 0.203106 0.383584 0.700413
C2    C     C_R   0.884584 0.796894 0.883584 0.700413
O7    O     O_R   0.559570 0.039810 0.430640 -0.540665
O8    O     O_R   0.059570 0.960190 0.930640 -0.540665
O9    O     O_R   0.586280 0.876320 0.584290 -0.540037
O10   O     O_R   0.086280 0.123680 0.084290 -0.540037
C3    C     C_R   0.581138 0.208978 0.415691 0.738736
C4    C     C_R   0.081138 0.791022 0.915691 0.738735
O11   O     O_R   0.413720 0.363440 0.415710 -0.539576
O12   O     O_R   0.913720 0.636560 0.915710 -0.539576
O13   O     O_3   0.508590 0.205630 0.550380 -0.370694
O14   O     O_3   0.008590 0.794370 0.050380 -0.370694
V1    V     V_3+5 0.498410 0.928130 0.490650 1.419025
V2    V     V_3+5 0.998410 0.071870 0.990650 1.419025
O15   O     O_R   0.587370 0.546990 0.593670 -0.540661
O16   O     O_R   0.087370 0.453010 0.093670 -0.540661
C5    C     C_R   0.615599 0.716784 0.616427 0.703359
C6    C     C_R   0.115599 0.283216 0.116427 0.703359
O17   O     O_R   0.440430 0.540520 0.569360 -0.540704
O18   O     O_R   0.940430 0.459480 0.069360 -0.540705
C7    C     C_R   0.418977 0.709251 0.584511 0.698755
C8    C     C_R   0.918978 0.290749 0.084511 0.698756
V3    V     V_3+5 0.501590 0.428960 0.509350 1.421103
V4    V     V_3+5 0.001590 0.571040 0.009350 1.421103
O19   O     O_3   0.491410 0.701330 0.449620 -0.369210
O20   O     O_3   0.991410 0.298670 0.949620 -0.369210
C9    C     C_R   0.322674 0.895235 0.725688 -0.042904
C10   C     C_R   0.822675 0.104766 0.225689 -0.042904
H1    H     H_    0.324174 0.022156 0.761804 0.182512
H2    H     H_    0.824175 0.977846 0.261805 0.182513
C11   C     C_R   0.369104 0.884640 0.679658 -0.165592
C12   C     C_R   0.869105 0.115361 0.179659 -0.165592
H3    H     H_    0.405022 0.004517 0.680880 0.133383
H4    H     H_    0.905023 0.995485 0.180882 0.133383
C13   C     C_R   0.370059 0.719839 0.633701 -0.065079
C14   C     C_R   0.870059 0.280161 0.133701 -0.065079
C15   C     C_R   0.322814 0.567036 0.634041 -0.166559
C16   C     C_R   0.822814 0.432963 0.134040 -0.166559
H5    H     H_    0.321747 0.439006 0.598670 0.131637
H6    H     H_    0.821746 0.560991 0.098668 0.131637
C17   C     C_R   0.275007 0.580041 0.678384 -0.036237
C18   C     C_R   0.775007 0.419957 0.178383 -0.036236
H7    H     H_    0.237997 0.462306 0.676031 0.195268
H8    H     H_    0.737996 0.537691 0.176030 0.195268
C19   C     C_R   0.274715 0.743603 0.725187 0.150325
C20   C     C_R   0.774715 0.256397 0.225187 0.150325
C21   C     C_R   0.225643 0.612302 0.830915 0.398906
C22   C     C_R   0.725643 0.387698 0.330914 0.398907
C23   C     C_R   0.178255 0.623989 0.875819 -0.182502
C24   C     C_R   0.678255 0.376011 0.375818 -0.182502
H9    H     H_    0.180141 0.512607 0.919372 0.162986
H10   H     H_    0.680140 0.487394 0.419371 0.162986
C25   C     C_R   0.130335 0.779817 0.866791 -0.187004
C26   C     C_R   0.630335 0.220183 0.366791 -0.187005
C27   C     C_R   0.129858 0.923543 0.810856 -0.167214
C28   C     C_R   0.629858 0.076456 0.310857 -0.167214
H11   H     H_    0.092611 0.043676 0.802188 0.168348
H12   H     H_    0.592611 0.956323 0.302188 0.168348
C29   C     C_R   0.175487 0.911127 0.763811 0.407182
C30   C     C_R   0.675487 0.088873 0.263811 0.407184
C31   C     C_R   0.224710 0.755722 0.773710 -0.097374
C32   C     C_R   0.724710 0.244278 0.273710 -0.097375
C33   C     C_R   0.768132 0.623617 0.811519 0.113899
C34   C     C_R   0.268132 0.376383 0.311519 0.113900
C35   C     C_R   0.814246 0.782773 0.817857 -0.110794
C36   C     C_R   0.314246 0.217227 0.317857 -0.110794
C37   C     C_R   0.790554 0.927820 0.759728 -0.170676
C38   C     C_R   0.290554 0.072180 0.259728 -0.170676
H13   H     H_    0.823920 0.053305 0.761881 0.138407
H14   H     H_    0.323920 0.946695 0.261881 0.138408
C39   C     C_R   0.726005 0.905456 0.694745 -0.158086
C40   C     C_R   0.226005 0.094543 0.194745 -0.158086
H15   H     H_    0.711292 0.016657 0.649466 0.130966
H16   H     H_    0.211292 0.983343 0.149466 0.130966
C41   C     C_R   0.683244 0.736925 0.685617 -0.110642
C42   C     C_R   0.183244 0.263075 0.185617 -0.110642
C43   C     C_R   0.704325 0.601365 0.747277 0.111274
C44   C     C_R   0.204325 0.398635 0.247277 0.111274
C45   C     C_3   0.715452 0.389949 0.743168 -0.418781
C46   C     C_3   0.215452 0.610051 0.243168 -0.418782
C47   C     C_3   0.784713 0.413684 0.813590 -0.390571
C48   C     C_3   0.284713 0.586315 0.313590 -0.390572
H17   H     H_    0.725380 0.347598 0.687002 0.171601
H18   H     H_    0.225380 0.652402 0.187002 0.171601
H19   H     H_    0.673072 0.305282 0.757933 0.185069
H20   H     H_    0.173072 0.694718 0.257933 0.185069
H21   H     H_    0.834777 0.383562 0.798477 0.178119
H22   H     H_    0.334777 0.616438 0.298477 0.178119
H23   H     H_    0.782153 0.343668 0.869152 0.171521
H24   H     H_    0.282153 0.656332 0.369152 0.171521
Cl1   Cl    Cl    0.287730 0.419251 0.851243 -0.635264
Cl2   Cl    Cl    0.787729 0.580750 0.351242 -0.635262
Cl3   Cl    Cl    0.166253 0.088716 0.690029 -0.645755
Cl4   Cl    Cl    0.666254 0.911283 0.190030 -0.645755

loop_
_geom_bond_atom_site_label_1
_geom_bond_atom_site_label_2
_ccdc_geom_bond_type
C30   C32   A    
C48   H24   S    
C45   C47   S    
C23   C25   A    
C37   H13   S    
O4    C2    A    
V1    O19   S    
C45   H19   S    
C17   H7    S    
C3    C26   S    
C4    C25   S    
O9    V1    S    
C38   H14   S    
C44   C46   S    
C12   C14   A    
O3    C1    A    
C40   H16   S    
C22   C32   A    
O12   V4    S    
O7    C3    A    
C26   C28   A    
C30   Cl4   S    
C33   C35   A    
C7    C13   S    
C6    C42   S    
O13   V1    S    
O5    C7    A    
O7    V1    S    
O6    C8    A    
O8    V2    S    
C29   C31   A    
C47   H23   S    
C28   H12   S    
O3    V1    S    
O14   V4    S    
V4    O20   S    
C34   C44   A    
C10   H2    S    
C33   C47   S    
C18   H8    S    
C34   C48   S    
C2    O12   A    
C13   C15   A    
C14   C16   A    
C21   C31   A    
C41   C43   A    
C16   H6    S    
O11   V3    S    
C48   H22   S    
C21   C23   A    
O17   V3    S    
C22   C24   A    
C25   C27   A    
C28   C30   A    
C46   C48   S    
C29   Cl3   S    
C36   C38   A    
C46   H18   S    
C1    C36   S    
C35   C37   A    
C45   H17   S    
C17   C19   A    
C1    O11   A    
C21   Cl1   S    
O15   V3    S    
C9    C11   A    
C9    C19   A    
C24   C26   A    
C33   C43   A    
C40   C42   A    
C39   C41   A    
O10   V2    S    
O1    V3    S    
C39   H15   S    
C19   C31   S    
C15   H5    S    
C43   C45   S    
O18   V4    S    
C42   C44   A    
O15   C5    A    
O8    C4    A    
O16   C6    A    
O1    C3    A    
V2    O20   S    
C2    C35   S    
C5    C41   S    
C10   C12   A    
C10   C20   A    
C27   H11   S    
C20   C32   S    
C34   C36   A    
O5    V1    S    
O17   C7    A    
O6    V2    S    
O10   C6    A    
O18   C8    A    
O2    V4    S    
C23   H9    S    
V3    O19   S    
O16   V4    S    
O13   V3    S    
C12   H4    S    
C47   H21   S    
O9    C5    A    
C9    H1    S    
C24   H10   S    
O14   V2    S    
C11   C13   A    
O2    C4    A    
O4    V2    S    
C27   C29   A    
C18   C20   A    
C11   H3    S    
C38   C40   A    
C37   C39   A    
C22   Cl2   S    
C46   H20   S    
C15   C17   A    
C16   C18   A    
C8    C14   S    
