data_mof_unit_15927.cif
_audit_creation_date              2012-12-10T18:31:53-0500
_audit_creation_method            fapswitch 2.2
_symmetry_space_group_name_H-M    P1
_symmetry_Int_Tables_number       1
_space_group_crystal_system       triclinic
_cell_length_a                    10.656166
_cell_length_b                    14.977751
_cell_length_c                    15.46723
_cell_angle_alpha                 82.560788
_cell_angle_beta                  89.305724
_cell_angle_gamma                 104.375952
_cell_volume                      2368.70603107

loop_
_atom_site_label
_atom_site_type_symbol
_atom_type_description
_atom_site_fract_x
_atom_site_fract_y
_atom_site_fract_z
_atom_type_partial_charge
C1    C     C_R   0.479549 0.441930 0.662242 0.931491
C2    C     C_3   0.120163 0.497578 0.503190 0.035466
C3    C     C_3   0.103538 0.585390 0.442497 -0.392205
C4    C     C_3   0.065061 0.493224 0.600393 -0.078609
C5    C     C_R   0.449161 0.407109 0.754710 -0.032590
C6    C     C_R   0.501871 0.591090 0.246125 -0.059625
C7    C     C_R   0.381690 0.281978 0.874249 -0.199568
C8    C     C_R   0.416005 0.311817 0.786047 -0.197246
C9    C     C_R   0.444592 0.471609 0.811316 -0.184455
C10   C     C_R   0.406941 0.443371 0.899186 0.093802
C11   C     C_R   0.379747 0.347217 0.931386 0.174400
C12   C     C_R   0.742227 0.500959 0.498571 0.833347
C13   C     C_R   0.406420 0.509295 0.956891 0.067744
C14   C     C_R   0.403662 0.479790 0.047409 0.067627
C15   C     C_R   0.368950 0.383224 0.078115 -0.229030
C16   C     C_R   0.354686 0.317938 0.020463 -0.227519
C17   C     C_R   0.411774 0.603831 0.927420 -0.209909
C18   C     C_R   0.430063 0.669278 0.985218 -0.244885
C19   C     C_R   0.448914 0.643016 0.072863 0.176872
C20   C     C_R   0.437962 0.548088 0.103961 0.091210
C21   C     C_R   0.481160 0.710368 0.129679 -0.203969
C22   C     C_R   0.506168 0.684316 0.216443 -0.204827
C23   C     C_R   0.515155 0.557938 0.337833 0.853671
C24   C     C_R   0.470746 0.524708 0.189260 -0.267575
C25   C     C_R   0.692943 0.843319 0.636439 -0.312060
C26   C     C_R   0.661656 0.754030 0.614050 0.018799
C27   C     C_R   0.513448 0.793239 0.511475 -0.050019
C28   C     C_R   0.540732 0.885272 0.531093 -0.005833
C29   C     C_R   0.632990 0.909382 0.595011 0.171055
C30   C     C_R   0.480834 0.953500 0.489600 0.083144
C31   C     C_R   0.515518 0.045544 0.512587 0.075971
C32   C     C_R   0.608102 0.066110 0.576612 -0.235854
C33   C     C_R   0.665190 0.999107 0.616956 -0.201729
C34   C     C_R   0.257660 0.498974 0.500930 0.883664
C35   C     C_R   0.387725 0.932803 0.425920 -0.229128
C36   C     C_R   0.331144 0.999953 0.385245 -0.210534
C37   C     C_R   0.364399 0.089956 0.406507 0.182630
C38   C     C_R   0.456473 0.113998 0.470548 -0.002921
C39   C     C_R   0.305823 0.156406 0.364206 -0.317927
C40   C     C_R   0.338405 0.246027 0.385796 0.013054
C41   C     C_R   0.484932 0.206327 0.489437 -0.065017
C42   C     C_3   0.897918 0.409409 0.468988 -0.373322
C43   C     C_3   0.041291 0.411958 0.462860 -0.426799
C44   C     C_3   0.959814 0.584949 0.437925 -0.390898
C45   C     C_3   0.924612 0.507228 0.593730 -0.472008
C46   C     C_3   0.878551 0.500534 0.499679 0.142590
H1    H     H_    0.158585 0.650950 0.464505 0.228388
H2    H     H_    0.330121 0.244567 0.046079 0.144028
H3    H     H_    0.475707 0.454567 0.211942 0.162383
H4    H     H_    0.528235 0.736628 0.260034 0.156363
H5    H     H_    0.434946 0.741226 0.960530 0.149296
H6    H     H_    0.359040 0.208223 0.898074 0.138155
H7    H     H_    0.417102 0.260709 0.742695 0.159172
H8    H     H_    0.475472 0.544578 0.786399 0.159757
H9    H     H_    0.846538 0.347873 0.515836 0.203498
H10   H     H_    0.350066 0.356436 0.146540 0.142610
H11   H     H_    0.399325 0.628550 0.860140 0.173980
H12   H     H_    0.735730 0.017915 0.665687 0.153086
H13   H     H_    0.552496 0.231685 0.537073 0.127899
H14   H     H_    0.293739 0.298185 0.353899 0.125968
H15   H     H_    0.763474 0.860653 0.685446 0.148487
H16   H     H_    0.707260 0.702133 0.645347 0.133859
H17   H     H_    0.445716 0.767831 0.463943 0.126792
H18   H     H_    0.639402 0.133630 0.597439 0.147324
H19   H     H_    0.355703 0.865082 0.405595 0.136528
H20   H     H_    0.235439 0.139141 0.315094 0.141956
H21   H     H_    0.073119 0.416742 0.393147 0.179069
H22   H     H_    0.928764 0.580928 0.369757 0.158987
H23   H     H_    0.143432 0.586131 0.375415 0.152692
H24   H     H_    0.920637 0.576549 0.610697 0.196816
H25   H     H_    0.853439 0.457301 0.641113 0.183693
N1    N     N_R   0.573860 0.731700 0.552730 -0.101179
N2    N     N_R   0.426060 0.268290 0.447230 -0.098541
O1    O     O_R   0.462770 0.383110 0.605620 -0.603522
O2    O     O_R   0.510160 0.531900 0.639510 -0.617713
O3    O     O_R   0.661510 0.425600 0.483070 -0.631074
O4    O     O_R   0.708900 0.574390 0.516960 -0.628889
O5    O     O_R   0.489840 0.468100 0.360490 -0.625589
O6    O     O_R   0.537230 0.616890 0.394380 -0.622486
O7    O     O_R   0.291100 0.425610 0.483040 -0.606610
O8    O     O_R   0.338490 0.574400 0.516930 -0.613668
Zn1   Zn    Zn3+2 0.468350 0.400660 0.477370 0.948375
Zn2   Zn    Zn3+2 0.531650 0.599340 0.522630 0.954439
H26   H     H_    0.856990 0.400668 0.403782 0.178410
C47   C     C_2   0.146266 0.569965 0.648384 0.893663
O9    O     O_2   0.202962 0.550360 0.713761 -0.619091
O10   O     O_R   0.154823 0.663591 0.618371 -0.827866
H27   H     H_    0.211837 0.707464 0.654982 0.343835
H28   H     H_    0.945923 0.651295 0.456630 0.197702
H29   H     H_    0.487497 0.782955 0.106923 0.136624
H30   H     H_    0.260449 0.981117 0.336614 0.142834
H31   H     H_    0.055950 0.345237 0.496489 0.200826
C48   C     C_2   0.063508 0.397896 0.652723 0.895433
O11   O     O_2   0.962206 0.343519 0.682764 -0.649082
O12   O     O_R   0.180009 0.372160 0.665304 -0.793230
H32   H     H_    0.167190 0.307797 0.699431 0.345135

loop_
_geom_bond_atom_site_label_1
_geom_bond_atom_site_label_2
_ccdc_geom_bond_type
O10   H27   S    
C48   O11   D    
C40   H14   S    
C45   H25   S    
C26   N1    A    
O12   H32   S    
C16   H2    S    
C7    C8    A    
C47   O9    D    
C7    C11   A    
C33   H12   S    
C30   C35   A    
C1    C5    S    
C1    O1    A    
C28   C29   A    
C3    H23   S    
C7    H6    S    
C30   C31   A    
O4    Zn2   S    
C15   C16   A    
C6    C22   A    
C29   C33   A    
C40   N2    A    
C18   C19   A    
C42   C46   S    
C20   C24   A    
C34   O7    A    
C19   C20   A    
C34   O8    A    
C9    C10   A    
C22   H4    S    
C2    C34   S    
C48   O12   S    
C21   C22   A    
O1    Zn1   S    
O8    Zn2   S    
C44   C46   S    
C18   H5    S    
C4    C45   S    
C47   O10   S    
C25   C29   A    
C3    C44   S    
C1    O2    A    
C14   C20   A    
C42   H26   S    
C32   H18   S    
C38   C41   A    
C12   C46   S    
O3    Zn1   S    
C39   C40   A    
C4    C47   S    
C25   C26   A    
C45   C46   S    
C35   C36   A    
C2    C4    S    
C5    C9    A    
C37   C38   A    
C42   H9    S    
C11   C16   A    
O5    Zn1   S    
C31   C32   A    
C2    C43   S    
C6    C24   A    
C12   O4    A    
C17   C18   A    
C25   H15   S    
C41   H13   S    
C27   H17   S    
C36   H30   S    
O7    Zn1   S    
C12   O3    A    
C39   H20   S    
C44   H22   S    
C42   C43   S    
N2    Zn1   S    
C24   H3    S    
C36   C37   A    
C19   C21   A    
C45   H24   S    
C10   C13   A    
C8    H7    S    
C5    C8    A    
C43   H31   S    
C31   C38   A    
C13   C17   A    
C32   C33   A    
C28   C30   A    
C2    C3    S    
C26   H16   S    
C37   C39   A    
C15   H10   S    
O6    Zn2   S    
O2    Zn2   S    
C6    C23   S    
C3    H1    S    
C23   O5    A    
C21   H29   S    
N1    Zn2   S    
C10   C11   A    
C44   H28   S    
C41   N2    A    
C4    C48   S    
C43   H21   S    
C27   C28   A    
C35   H19   S    
C14   C15   A    
C9    H8    S    
C23   O6    A    
C13   C14   A    
C27   N1    A    
C17   H11   S    
