data_mof_unit_48121.cif
_audit_creation_date              2012-10-26T19:20:39-0400
_audit_creation_method            fapswitch 2.2
_symmetry_space_group_name_H-M    P1
_symmetry_Int_Tables_number       1
_space_group_crystal_system       triclinic
_cell_length_a                    10.785624
_cell_length_b                    11.036901
_cell_length_c                    10.005852
_cell_angle_alpha                 110.753233
_cell_angle_beta                  101.55197
_cell_angle_gamma                 91.497941
_cell_volume                      1085.10311832

loop_
_atom_site_label
_atom_site_type_symbol
_atom_type_description
_atom_site_fract_x
_atom_site_fract_y
_atom_site_fract_z
_atom_type_partial_charge
Br1   Br    Br    0.998098 0.218181 0.913934 -0.329424
Br2   Br    Br    0.985612 0.815701 0.076055 -0.355155
Br3   Br    Br    0.866958 0.507999 0.863706 -0.291777
Br4   Br    Br    0.124940 0.520482 0.152003 -0.261935
Br5   Br    Br    0.323158 0.841530 0.338608 -0.430622
Br6   Br    Br    0.690721 0.141501 0.627718 -0.455651
Br7   Br    Br    0.610792 0.732436 0.974564 -0.350264
Br8   Br    Br    0.332680 0.292777 0.025639 -0.283100
C1    C     C_R   0.491129 0.254814 0.440835 0.554099
C2    C     C_R   0.738376 0.492903 0.503385 0.541926
C3    C     C_R   0.165956 0.706853 0.723224 -0.044144
C4    C     C_R   0.834143 0.298305 0.276974 -0.047812
C5    C     C_R   0.131274 0.777221 0.853611 0.099999
C6    C     C_R   0.864586 0.236426 0.141917 0.091221
C7    C     C_R   0.024567 0.729324 0.887469 0.215059
C8    C     C_R   0.968578 0.290112 0.108852 0.213279
C9    C     C_R   0.948640 0.616463 0.784394 0.219718
C10   C     C_R   0.047156 0.398683 0.217429 0.215969
C11   C     C_R   0.967876 0.564096 0.638741 -0.015206
C12   C     C_R   0.507654 0.745380 0.558784 0.558668
C13   C     C_R   0.031606 0.441349 0.364126 -0.022603
C14   C     C_R   0.087257 0.597173 0.617188 -0.044997
C15   C     C_R   0.913399 0.406067 0.385780 -0.047810
C16   C     C_R   0.875511 0.479672 0.514547 0.022085
C17   C     C_R   0.124792 0.523126 0.488257 0.019128
C18   C     C_2   0.467858 0.116794 0.407647 -0.045150
C19   C     C_2   0.525397 0.884021 0.589532 -0.052133
C20   C     C_2   0.527030 0.061260 0.498228 0.120568
C21   C     C_2   0.474049 0.933177 0.488718 0.132657
C22   C     C_2   0.515364 0.509427 0.085154 0.303750
C23   C     C_2   0.504944 0.478661 0.919769 0.269583
C24   C     C_R   0.261741 0.508363 0.497312 0.532834
Cu1   Cu    Cu3+1 0.521920 0.521810 0.644910 1.099167
Cu2   Cu    Cu3+1 0.478080 0.478190 0.355090 1.131912
H1    H     H_    0.252321 0.741662 0.702367 0.177335
H2    H     H_    0.372532 0.358553 0.740511 0.286303
H3    H     H_    0.699282 0.594047 0.152566 0.270483
H4    H     H_    0.586946 0.696299 0.216014 0.279686
H5    H     H_    0.748925 0.260645 0.297408 0.179380
H6    H     H_    0.594350 0.942221 0.688564 0.143786
H7    H     H_    0.389008 0.065708 0.316502 0.143762
H8    H     H_    0.245712 0.880082 0.051506 0.294884
H9    H     H_    0.152930 0.970178 0.974306 0.285868
H10   H     H_    0.742836 0.147924 0.945183 0.285313
H11   H     H_    0.838157 0.048231 0.003212 0.290644
H12   H     H_    0.512530 0.291509 0.788740 0.282416
N1    N     N_2   0.445130 0.445420 0.137360 -0.047131
N2    N     N_2   0.554870 0.554580 0.862640 -0.089300
N3    N     N_3   0.209729 0.893228 0.953203 -0.559634
N4    N     N_3   0.782918 0.125214 0.036351 -0.562112
N5    N     N_3   0.444325 0.352822 0.824273 -0.555951
N6    N     N_3   0.615274 0.602598 0.190696 -0.546371
O1    O     O_R   0.511700 0.332340 0.577400 -0.504936
O2    O     O_R   0.488300 0.667660 0.422600 -0.455846
O3    O     O_R   0.474680 0.295500 0.332650 -0.477468
O4    O     O_R   0.525320 0.704500 0.667350 -0.464944
O5    O     O_R   0.338170 0.518410 0.622370 -0.528977
O6    O     O_R   0.661830 0.481590 0.377630 -0.498570
O7    O     O_R   0.301150 0.481570 0.377630 -0.446959
O8    O     O_R   0.698850 0.518430 0.622370 -0.445499

loop_
_geom_bond_atom_site_label_1
_geom_bond_atom_site_label_2
_ccdc_geom_bond_type
C2    O8    A    
C15   C16   A    
Br3   C9    S    
C1    O3    A    
C12   C19   S    
Cu1   O5    S    
C19   C21   D    
C10   C13   A    
C3    C14   A    
C18   C20   D    
C19   H6    S    
C12   O4    A    
Br4   C10   S    
Br7   N2    S    
Cu1   O4    S    
C3    H1    S    
Cu1   Cu2   S    
Br8   N1    S    
Cu2   O3    S    
Br1   C8    S    
Br2   C7    S    
C3    C5    A    
C4    C15   A    
C6    N4    S    
H2    N5    S    
H11   N4    S    
C17   C24   S    
C5    N3    S    
C24   O5    A    
C8    C10   A    
C20   C21   S    
C2    O6    A    
C4    C6    A    
C1    C18   S    
Cu2   O2    S    
Cu1   O8    S    
Br5   C21   S    
C23   N2    D    
C5    C7    A    
C13   C15   A    
Cu1   O1    S    
Cu2   O7    S    
C6    C8    A    
H4    N6    S    
H3    N6    S    
H8    N3    S    
C22   N1    D    
C11   C14   A    
C1    O1    A    
C12   O2    A    
H10   N4    S    
Cu2   O6    S    
Cu1   N2    S    
C13   C17   A    
C22   C23   S    
H9    N3    S    
C2    C16   S    
C22   N6    S    
Cu2   N1    S    
C24   O7    A    
C9    C11   A    
C7    C9    A    
C11   C16   A    
H12   N5    S    
C4    H5    S    
Br6   C20   S    
C18   H7    S    
C23   N5    S    
C14   C17   A    
