data_mof_unit_28565.cif
_audit_creation_date              2013-03-05T15:45:20-0500
_audit_creation_method            fapswitch 2.2
_symmetry_space_group_name_H-M    P1
_symmetry_Int_Tables_number       1
_space_group_crystal_system       triclinic
_cell_length_a                    10.785122
_cell_length_b                    11.01201
_cell_length_c                    9.952244
_cell_angle_alpha                 111.92246
_cell_angle_beta                  101.287795
_cell_angle_gamma                 91.059859
_cell_volume                      1069.84509356

loop_
_atom_site_label
_atom_site_type_symbol
_atom_site_description
_atom_site_fract_x
_atom_site_fract_y
_atom_site_fract_z
_atom_type_partial_charge
O1    O     O_R   0.511700 0.332340 0.577400 -0.638335
O2    O     O_R   0.488300 0.667660 0.422600 -0.643137
O3    O     O_R   0.474680 0.295500 0.332650 -0.504992
O4    O     O_R   0.525320 0.704500 0.667350 -0.526212
C1    C     C_R   0.489717 0.253442 0.438625 0.717318
C2    C     C_R   0.509999 0.746643 0.561111 0.775555
O5    O     O_R   0.338170 0.518410 0.622370 -0.554121
O6    O     O_R   0.661830 0.481590 0.377630 -0.534259
O7    O     O_R   0.301150 0.481570 0.377630 -0.595264
O8    O     O_R   0.698850 0.518430 0.622370 -0.590788
C3    C     C_R   0.261565 0.509843 0.498785 0.846179
C4    C     C_R   0.737842 0.488078 0.500776 0.804056
Cu1   Cu    Cu3+1 0.521920 0.521810 0.644910 1.002306
Cu2   Cu    Cu3+1 0.478080 0.478190 0.355090 1.023693
C5    C     C_R   0.162262 0.682617 0.757280 0.041111
C6    C     C_R   0.835878 0.305254 0.245485 0.008525
C7    C     C_R   0.136413 0.708040 0.896868 -0.256602
C8    C     C_R   0.864053 0.272866 0.105532 -0.157330
C9    C     C_R   0.030211 0.643646 0.910501 0.054667
C10   C     C_R   0.970474 0.334849 0.089408 0.011572
C11   C     C_R   0.944172 0.560457 0.781938 -0.064324
C12   C     C_R   0.055274 0.422351 0.216231 -0.053849
C13   C     C_R   0.965908 0.537228 0.638977 0.037384
C14   C     C_R   0.032817 0.451628 0.360139 0.043063
C15   C     C_R   0.085248 0.582353 0.628971 0.116071
C16   C     C_R   0.912895 0.408102 0.370911 0.030097
C17   C     C_R   0.873855 0.468171 0.506115 -0.214375
C18   C     C_R   0.124470 0.524425 0.493040 -0.149067
H1    H     H_    0.197447 0.780965 0.995124 0.177256
H2    H     H_    0.804036 0.197616 0.008658 0.214896
H3    H     H_    0.864974 0.508384 0.795810 0.177472
H4    H     H_    0.133577 0.472915 0.199158 0.180067
C19   C     C_2   0.474608 0.111530 0.398169 0.163835
C20   C     C_2   0.524907 0.888529 0.599652 0.172273
C21   C     C_2   0.531494 0.059682 0.494685 -0.094515
C22   C     C_2   0.470637 0.938239 0.499692 -0.106054
N1    N     N_2   0.445130 0.445420 0.137360 -0.301900
N2    N     N_2   0.554870 0.554580 0.862640 -0.313153
C23   C     C_2   0.508678 0.514205 0.083303 0.006570
C24   C     C_2   0.490079 0.486988 0.916870 -0.003079
H5    H     H_    0.621171 0.629998 0.936601 0.240525
H6    H     H_    0.380980 0.368066 0.063108 0.244264
C25   C     C_2   0.993768 0.303276 0.939152 0.406440
H7    H     H_    0.925408 0.237142 0.842520 0.106693
O9    O     O_2   0.089432 0.350332 0.921224 -0.510297
C26   C     C_2   0.007821 0.669035 0.059917 0.410309
H8    H     H_    0.076772 0.732305 0.157863 0.099575
O10   O     O_2   0.912201 0.619930 0.075661 -0.510907
C27   C     C_2   0.258548 0.775221 0.748704 0.409327
H9    H     H_    0.335010 0.827110 0.844101 0.146290
O11   O     O_2   0.249064 0.800035 0.637755 -0.580057
C28   C     C_2   0.737158 0.219377 0.261999 0.494544
H10   H     H_    0.732853 0.222800 0.371126 -0.030520
O12   O     O_2   0.661536 0.142018 0.154149 -0.450374
C29   C     C_2   0.337865 0.883588 0.414543 0.490950
H11   H     H_    0.310870 0.778642 0.359606 0.069590
O13   O     O_2   0.254760 0.957071 0.412326 -0.485698
C30   C     C_2   0.665850 0.112353 0.575088 0.401944
H12   H     H_    0.696530 0.216674 0.619060 0.051637
O14   O     O_2   0.746229 0.037523 0.584421 -0.496890
N3    N     N_R   0.595021 0.972672 0.745861 0.159570
O15   O     O_R   0.557679 0.086663 0.815150 -0.365144
O16   O     O_R   0.687395 0.929987 0.816248 -0.302055
N4    N     N_R   0.403448 0.029242 0.251678 0.160833
O17   O     O_R   0.308431 0.072150 0.185424 -0.316830
O18   O     O_R   0.442648 0.917720 0.177757 -0.407124
C31   C     C_2   0.393974 0.378704 0.815054 0.523117
H13   H     H_    0.421994 0.281332 0.761367 0.105757
O19   O     O_2   0.281699 0.396321 0.796608 -0.498332
C32   C     C_2   0.601831 0.625229 0.185436 0.517444
H14   H     H_    0.571112 0.722182 0.234205 0.090101
O20   O     O_2   0.714581 0.610384 0.209643 -0.477290

loop_
_geom_bond_atom_site_label_1
_geom_bond_atom_site_label_2
_geom_bond_distance
_ccdc_geom_bond_type
O5    C3    1.310318 A    
O7    Cu2   1.963912 S    
C5    C27   1.478536 S    
C5    C7    1.396466 A    
C32   H14   1.083655 S    
C8    H2    1.083731 S    
C13   C17   1.421162 A    
C11   H3    1.079185 S    
C8    C10   1.390647 A    
C21   C22   1.500611 S    
O5    Cu1   1.948350 S    
O6    C4    1.310851 A    
N4    O17   1.301622 A    
C29   H11   1.082909 S    
C13   C15   1.406030 A    
C16   C17   1.411702 A    
C9    C26   1.476599 S    
N1    C23   1.327535 D    
C22   C29   1.497691 S    
Cu1   Cu2   2.682720 S    
Cu2   N1    2.015413 S    
N2    C24   1.327392 D    
C25   O9    1.219093 D    
O7    C3    1.288098 A    
N4    O18   1.301728 A    
Cu1   N2    2.015412 S    
O2    C2    1.297075 A    
O3    Cu2   1.938318 S    
C12   H4    1.077736 S    
C3    C18   1.482502 S    
C25   H7    1.085550 S    
C19   N4    1.444099 S    
O1    C1    1.298748 A    
O8    C4    1.286625 A    
O4    C2    1.288964 A    
C19   C21   1.347894 D    
C23   C32   1.471101 S    
C14   C16   1.408457 A    
C20   C22   1.349990 D    
C29   O13   1.221082 D    
C11   C13   1.416233 A    
C6    C16   1.426347 A    
N3    O15   1.301730 A    
O2    Cu2   1.931985 S    
C14   C18   1.426993 A    
C12   C14   1.416945 A    
C15   C18   1.416193 A    
C5    C15   1.427470 A    
O1    Cu1   1.931986 S    
C10   C12   1.401919 A    
C4    C17   1.480813 S    
C30   O14   1.221150 D    
C31   H13   1.083493 S    
C23   C24   1.539696 S    
C26   O10   1.219170 D    
C2    C20   1.460584 S    
C21   C30   1.498286 S    
N1    H6    1.028776 S    
C10   C25   1.477241 S    
C7    H1    1.084673 S    
C28   H10   1.082738 S    
N2    H5    1.028776 S    
C6    C8    1.399401 A    
C27   H9    1.085785 S    
C31   O19   1.218959 D    
O4    Cu1   1.938318 S    
N3    O16   1.301601 A    
C26   H8    1.085614 S    
C7    C9    1.391339 A    
C32   O20   1.218828 D    
O6    Cu2   1.948350 S    
O3    C1    1.285974 A    
C30   H12   1.083776 S    
C9    C11   1.402109 A    
C24   C31   1.471007 S    
C20   N3    1.443703 S    
C6    C28   1.483994 S    
C28   O12   1.221396 D    
C27   O11   1.219210 D    
O8    Cu1   1.963910 S    
C1    C19   1.458037 S    
