data_mof_unit_51261.cif
_audit_creation_date              2012-12-10T19:50:46-0500
_audit_creation_method            fapswitch 2.2
_symmetry_space_group_name_H-M    P1
_symmetry_Int_Tables_number       1
_space_group_crystal_system       triclinic
_cell_length_a                    14.946541
_cell_length_b                    14.141679
_cell_length_c                    11.548168
_cell_angle_alpha                 89.939405
_cell_angle_beta                  90.064093
_cell_angle_gamma                 90.552594
_cell_volume                      2440.81046943

loop_
_atom_site_label
_atom_site_type_symbol
_atom_type_description
_atom_site_fract_x
_atom_site_fract_y
_atom_site_fract_z
_atom_type_partial_charge
C1    C     C_R   0.327787 0.499404 0.499717 1.043810
C2    C     C_R   0.500092 0.499964 0.718302 0.911778
C3    C     C_R   0.568174 0.105171 0.440680 0.447993
C4    C     C_R   0.570706 0.896192 0.553584 0.418262
C5    C     C_R   0.435265 0.103765 0.561330 0.418619
C6    C     C_R   0.430241 0.895270 0.446975 0.431953
C7    C     C_1   0.500476 0.500096 0.161346 -0.165543
C8    C     C_1   0.500277 0.499914 0.838627 -0.192115
C9    C     C_1   0.500587 0.500059 0.059252 0.001168
C10   C     C_1   0.500472 0.499970 0.940712 -0.010929
C11   C     C_R   0.564573 0.205713 0.440522 -0.155169
C12   C     C_R   0.671747 0.500460 0.500282 1.066042
C13   C     C_R   0.566946 0.795693 0.554807 -0.147368
C14   C     C_R   0.435952 0.203483 0.559261 -0.150727
C15   C     C_R   0.433220 0.794988 0.445580 -0.133625
C16   C     C_R   0.095625 0.554844 0.589409 0.441702
C17   C     C_R   0.907962 0.527139 0.410098 0.436261
C18   C     C_R   0.901859 0.474904 0.612909 0.438038
C19   C     C_R   0.091261 0.431536 0.439392 0.458231
C20   C     C_R   0.188511 0.553536 0.587333 0.309169
C21   C     C_R   0.815096 0.524147 0.404837 0.316390
C22   C     C_R   0.809023 0.479870 0.609715 0.310493
C23   C     C_R   0.231913 0.497011 0.505490 -0.433099
C24   C     C_R   0.184319 0.434534 0.433275 0.339054
C25   C     C_3   0.717324 0.095630 0.386792 -0.301426
C26   C     C_3   0.722276 0.908738 0.595262 -0.297897
C27   C     C_3   0.392796 0.048823 0.737142 -0.319807
C28   C     C_3   0.278056 0.910831 0.419687 -0.253238
C29   C     C_3   0.037937 0.701057 0.620690 -0.275416
C30   C     C_3   0.977760 0.644807 0.309499 -0.246636
C31   C     C_3   0.953187 0.353958 0.723731 -0.261490
C32   C     C_3   0.006289 0.297233 0.416447 -0.351692
C33   C     C_3   0.253114 0.561456 0.764679 -0.202275
C34   C     C_R   0.766822 0.501579 0.504918 -0.423166
C35   C     C_3   0.760720 0.466174 0.235543 -0.235055
C36   C     C_3   0.748886 0.539894 0.773680 -0.235659
C37   C     C_3   0.235307 0.288549 0.380278 -0.165248
C38   C     C_R   0.047398 0.493838 0.515619 -0.170911
C39   C     C_R   0.950947 0.499529 0.513251 -0.178225
C40   C     C_R   0.501025 0.053340 0.499828 0.018727
C41   C     C_R   0.500759 0.946551 0.499842 0.010844
C42   C     C_R   0.500192 0.500038 0.281688 0.923630
H1    H     H_    0.612630 0.247121 0.391829 0.150425
H2    H     H_    0.773051 0.964339 0.614169 0.179864
H3    H     H_    0.340090 0.008212 0.783644 0.197557
H4    H     H_    0.397938 0.119808 0.778312 0.165843
H5    H     H_    0.456719 0.009871 0.747569 0.184809
H6    H     H_    0.272097 0.895006 0.513980 0.181390
H7    H     H_    0.259956 0.847685 0.367273 0.142240
H8    H     H_    0.228597 0.966448 0.399376 0.182533
H9    H     H_    0.981411 0.698113 0.558323 0.126717
H10   H     H_    0.099030 0.731116 0.578733 0.160355
H11   H     H_    0.018651 0.750165 0.690992 0.186496
H12   H     H_    0.617137 0.755398 0.600037 0.149072
H13   H     H_    0.033971 0.659921 0.369792 0.127024
H14   H     H_    0.919183 0.690073 0.329798 0.151586
H15   H     H_    0.000784 0.664081 0.221233 0.195162
H16   H     H_    0.005816 0.328970 0.663745 0.125761
H17   H     H_    0.888856 0.315769 0.707424 0.169978
H18   H     H_    0.974888 0.336008 0.812892 0.194609
H19   H     H_    0.942701 0.316068 0.459681 0.153836
H20   H     H_    0.052908 0.263841 0.479388 0.123157
H21   H     H_    0.989775 0.243174 0.350073 0.190183
H22   H     H_    0.291822 0.495959 0.748212 0.114365
H23   H     H_    0.384939 0.241894 0.605460 0.156107
H24   H     H_    0.189580 0.543903 0.810419 0.193231
H25   H     H_    0.293885 0.606920 0.822983 0.182102
H26   H     H_    0.725015 0.485337 0.154709 0.180010
H27   H     H_    0.826525 0.436258 0.210517 0.203433
H28   H     H_    0.719467 0.411674 0.280887 0.129293
H29   H     H_    0.814606 0.568596 0.803362 0.198774
H30   H     H_    0.711594 0.594925 0.724991 0.135224
H31   H     H_    0.709256 0.521868 0.851936 0.180473
H32   H     H_    0.178490 0.247681 0.343145 0.175205
H33   H     H_    0.297548 0.259653 0.342535 0.185331
H34   H     H_    0.382390 0.754514 0.400478 0.158801
H35   H     H_    0.239009 0.276963 0.475767 0.116836
H36   H     H_    0.766967 0.041051 0.363538 0.182657
H37   H     H_    0.732718 0.118828 0.476910 0.162473
H38   H     H_    0.726029 0.155069 0.324772 0.154204
H39   H     H_    0.733117 0.885449 0.504219 0.169140
H40   H     H_    0.733960 0.849729 0.656806 0.153413
N1    N     N_R   0.500000 0.252470 0.500000 -0.128859
N2    N     N_R   0.500000 0.747530 0.500000 -0.124970
O1    O     O_R   0.369060 0.579480 0.500010 -0.592145
O2    O     O_3   0.636529 0.947389 0.612246 -0.599101
O3    O     O_3   0.368084 0.055934 0.619684 -0.604255
O4    O     O_3   0.363976 0.944974 0.389246 -0.588414
O5    O     O_3   0.052524 0.611133 0.669545 -0.536287
O6    O     O_3   0.956022 0.547651 0.310652 -0.532508
O7    O     O_3   0.944376 0.452857 0.715871 -0.538080
O8    O     O_3   0.044434 0.376530 0.360082 -0.521234
O9    O     O_3   0.236746 0.611662 0.661360 -0.569882
O10   O     O_3   0.771416 0.548336 0.303474 -0.576640
O11   O     O_3   0.759294 0.457236 0.707052 -0.580002
O12   O     O_R   0.630940 0.420520 0.499990 -0.620425
O13   O     O_3   0.228987 0.384682 0.348099 -0.564693
O14   O     O_R   0.630940 0.579480 0.499990 -0.621121
O15   O     O_R   0.369060 0.420520 0.500010 -0.621555
O16   O     O_R   0.500010 0.579480 0.334450 -0.605849
O17   O     O_R   0.499990 0.420520 0.665550 -0.605642
O18   O     O_R   0.499990 0.579480 0.665550 -0.613622
O19   O     O_R   0.500010 0.420520 0.334450 -0.616246
O20   O     O_3   0.630830 0.055419 0.376509 -0.583872
Zn1   Zn    Zn3+2 0.500000 0.606140 0.500000 0.978938
Zn2   Zn    Zn3+2 0.500000 0.393860 0.500000 0.961348

loop_
_geom_bond_atom_site_label_1
_geom_bond_atom_site_label_2
_ccdc_geom_bond_type
C3    O20   S    
C20   O9    S    
C25   H38   S    
C22   O11   S    
C30   O6    S    
C42   O19   A    
C1    O15   A    
C37   H32   S    
C29   O5    S    
C26   H2    S    
C13   N2    A    
O16   Zn1   S    
O14   Zn1   S    
C18   O7    S    
C31   H16   S    
C32   H19   S    
C38   C39   S    
C4    O2    S    
C4    C41   A    
C2    O18   A    
C30   H15   S    
C6    O4    S    
O18   Zn1   S    
C17   C39   A    
C7    C42   S    
C31   H17   S    
C4    C13   A    
C19   O8    S    
C6    C15   A    
C28   H8    S    
C35   H28   S    
C6    C41   A    
C28   O4    S    
C23   C24   A    
C11   H1    S    
C9    C10   S    
C12   O14   A    
C36   H29   S    
C16   C20   A    
C27   H3    S    
C15   H34   S    
C37   H33   S    
C16   O5    S    
C26   H40   S    
C18   C22   A    
C14   N1    A    
O1    Zn1   S    
C37   O13   S    
C33   H24   S    
C1    O1    A    
C22   C34   A    
C24   O13   S    
C21   C34   A    
C2    O17   A    
C11   N1    A    
C30   H14   S    
C17   C21   A    
C25   H36   S    
C31   H18   S    
C18   C39   A    
C19   C38   A    
C42   O16   A    
C28   H7    S    
C20   C23   A    
C26   O2    S    
N2    Zn1   S    
C27   O3    S    
C5    C14   A    
C27   H4    S    
C40   C41   S    
C3    C40   A    
C1    C23   S    
C26   H39   S    
C31   O7    S    
C12   C34   S    
C33   H25   S    
C13   H12   S    
C29   H9    S    
C35   O10   S    
C27   H5    S    
O17   Zn2   S    
C7    C9    T    
O15   Zn2   S    
O12   Zn2   S    
C28   H6    S    
C25   H37   S    
C2    C8    S    
C17   O6    S    
C32   H21   S    
C33   O9    S    
C25   O20   S    
C15   N2    A    
C30   H13   S    
N1    Zn2   S    
C19   C24   A    
C32   H20   S    
C36   O11   S    
C32   O8    S    
C29   H11   S    
C35   H26   S    
C33   H22   S    
C14   H23   S    
O19   Zn2   S    
C3    C11   A    
C36   H31   S    
C5    O3    S    
C37   H35   S    
C35   H27   S    
C8    C10   T    
C21   O10   S    
C5    C40   A    
C12   O12   A    
C36   H30   S    
C16   C38   A    
C29   H10   S    
