data_mof_unit_66774.cif
_audit_creation_date              2013-03-05T15:40:49-0500
_audit_creation_method            fapswitch 2.2
_symmetry_space_group_name_H-M    P1
_symmetry_Int_Tables_number       1
_space_group_crystal_system       triclinic
_cell_length_a                    8.467021
_cell_length_b                    13.167677
_cell_length_c                    14.904895
_cell_angle_alpha                 96.259515
_cell_angle_beta                  99.612327
_cell_angle_gamma                 98.094647
_cell_volume                      1607.08339458

loop_
_atom_site_label
_atom_site_type_symbol
_atom_site_description
_atom_site_fract_x
_atom_site_fract_y
_atom_site_fract_z
_atom_type_partial_charge
P1    P     P_3+3 0.998660 0.747790 0.570900 0.497934
O1    O     O_2   0.168170 0.764170 0.543850 -0.345083
O2    O     O_3   0.898670 0.629780 0.545890 -0.425586
O3    O     O_3   0.365980 0.695510 0.380810 -0.302819
O4    O     O_2   0.296859 0.878150 0.437656 -0.368215
O5    O     O_3   0.058420 0.765062 0.691307 -0.529641
O6    O     O_3   0.361296 0.853676 0.273346 -0.547165
H1    H     H_    0.484979 0.739573 0.225238 0.115900
C1    C     C_3   0.420797 0.836967 0.119458 -0.035527
H2    H     H_    0.297715 0.791774 0.095178 0.172026
P2    P     P_3+3 0.306970 0.411860 0.294270 0.449427
P3    P     P_3+3 0.881981 0.600269 0.214543 0.455388
O7    O     O_2   0.136040 0.444100 0.280280 -0.370970
O8    O     O_3   0.934510 0.640480 0.335500 -0.354862
O9    O     O_2   0.027688 0.570280 0.172601 -0.420062
O10   O     O_3   0.259081 0.278300 0.275994 -0.602102
O11   O     O_3   0.829596 0.707161 0.163849 -0.577426
C2    C     C_3   0.963791 0.780929 0.160057 0.703814
H3    H     H_    0.080549 0.765988 0.198645 0.143049
C3    C     C_3   0.976145 0.781721 0.058621 -1.053261
H4    H     H_    0.061765 0.850755 0.050951 0.238369
H5    H     H_    0.018069 0.710015 0.031784 0.264663
C4    C     C_3   0.775093 0.280062 0.251143 0.623869
H6    H     H_    0.849519 0.353939 0.285355 0.127015
C5    C     C_3   0.854066 0.247305 0.169044 -1.020034
H7    H     H_    0.804482 0.165943 0.138447 0.262641
H8    H     H_    0.833661 0.299427 0.115881 0.241699
H9    H     H_    0.986181 0.253780 0.189613 0.269895
Ba1   Ba    Ba6+2 0.153570 0.551840 0.456200 1.550515
C6    C     C_3   0.077458 0.669339 0.722676 0.458123
H10   H     H_    0.181244 0.640190 0.698099 0.091672
H11   H     H_    0.967019 0.610244 0.699462 0.133634
C7    C     C_3   0.106079 0.682415 0.827306 -0.953676
H12   H     H_    0.203816 0.747788 0.857934 0.264960
H13   H     H_    0.140415 0.610902 0.852181 0.219433
H14   H     H_    0.993413 0.696357 0.851681 0.288253
C8    C     C_3   0.194288 0.242529 0.349125 0.334198
H15   H     H_    0.098936 0.285919 0.366396 0.093392
H16   H     H_    0.291704 0.250500 0.410766 0.112094
C9    C     C_3   0.121519 0.128092 0.319943 -0.520470
H17   H     H_    0.998467 0.119965 0.278678 0.210122
H18   H     H_    0.111292 0.089123 0.381172 0.180404
P4    P     P_3+3 0.811620 0.252200 0.429030 0.444531
O12   O     O_2   0.642110 0.235770 0.456130 -0.364274
O13   O     O_3   0.911620 0.370210 0.454030 -0.369923
O14   O     O_3   0.444310 0.304480 0.619110 -0.362513
O15   O     O_3   0.770851 0.203766 0.310150 -0.631266
P5    P     P_3+3 0.921028 0.366639 0.783448 0.480089
O16   O     O_3   0.400800 0.556680 0.607590 -0.415532
O17   O     O_3   0.875770 0.359510 0.664420 -0.358554
O18   O     O_2   0.835151 0.451822 0.824492 -0.391176
O19   O     O_3   0.829764 0.250733 0.813837 -0.473116
Ba2   Ba    Ba6+2 0.656590 0.448150 0.543720 1.564756
P6    P     P_3+3 0.419604 0.830598 0.386852 0.488002
C10   C     C_3   0.474685 0.822440 0.221091 0.151689
H19   H     H_    0.594866 0.871021 0.247508 0.068917
O20   O     O_3   0.409490 0.443300 0.392340 -0.410484
C11   C     C_3   0.519867 0.763008 0.747222 0.237567
H20   H     H_    0.466651 0.746855 0.672325 0.110772
C12   C     C_3   0.453993 0.857046 0.786740 -0.775687
H21   H     H_    0.487819 0.868841 0.863031 0.227469
H22   H     H_    0.321079 0.848239 0.766906 0.222745
P7    P     P_3+3 0.490141 0.562325 0.724318 0.412954
O21   O     O_2   0.674250 0.555830 0.719690 -0.404551
O22   O     O_3   0.479640 0.678586 0.791526 -0.607932
H23   H     H_    0.856992 0.786021 0.016126 0.296118
C13   C     C_3   0.928355 0.173485 0.802938 0.577762
H24   H     H_    0.861262 0.111236 0.747969 0.115720
H25   H     H_    0.044483 0.199122 0.780674 -0.081913
C14   C     C_3   0.967584 0.129523 0.893578 -0.944982
H26   H     H_    0.854789 0.107226 0.920817 0.299621
H27   H     H_    0.027819 0.060503 0.882741 0.237770
H28   H     H_    0.050680 0.188138 0.945874 0.216364
P8    P     P_3+3 0.396589 0.171716 0.617028 0.486213
C15   C     C_3   0.363156 0.170957 0.784447 0.447093
H29   H     H_    0.267247 0.101637 0.774215 0.024792
O23   O     O_2   0.504954 0.123737 0.556211 -0.373058
O24   O     O_3   0.476900 0.153426 0.728430 -0.445557
H30   H     H_    0.308037 0.240042 0.769585 0.053635
H31   H     H_    0.355932 0.203805 0.928820 0.203440
C16   C     C_3   0.446661 0.191138 0.884699 -0.910562
H32   H     H_    0.542170 0.260588 0.896517 0.278961
H33   H     H_    0.503952 0.124525 0.904615 0.273526
C17   C     C_R   0.075911 0.186228 0.541497 -0.499418
C18   C     C_R   0.727172 0.829335 0.490900 -0.336269
C19   C     C_R   0.698831 0.995691 0.442748 -0.287112
C20   C     C_R   0.632368 0.891261 0.444056 0.232248
C21   C     C_R   0.892366 0.859141 0.525674 0.293533
C22   C     C_R   0.957940 0.969256 0.529387 -0.054655
C23   C     C_R   0.856636 0.039671 0.488842 -0.025747
C24   C     C_R   0.917298 0.150946 0.493938 0.279856
C25   C     C_R   0.178365 0.118363 0.574858 0.159936
C26   C     C_R   0.119272 0.011734 0.570807 -0.221038
H34   H     H_    0.630252 0.043836 0.406109 0.181283
H35   H     H_    0.200251 0.962422 0.599796 0.205421
H36   H     H_    0.125577 0.267332 0.545806 0.156321
H37   H     H_    0.668042 0.757640 0.504907 0.154277
C27   C     C_R   0.236279 0.429296 0.759563 -0.495803
C28   C     C_R   0.141414 0.398775 0.822587 0.217888
C29   C     C_R   0.212230 0.398780 0.914267 -0.297134
C30   C     C_R   0.380711 0.433654 0.946152 0.071564
C31   C     C_R   0.472813 0.466981 0.880395 -0.256437
C32   C     C_R   0.400666 0.465953 0.788256 0.404357
C33   C     C_R   0.624565 0.481344 0.080368 -0.259071
C34   C     C_R   0.686298 0.513621 0.174311 0.232368
C35   C     C_R   0.418559 0.464760 0.208677 0.275023
C36   C     C_R   0.354483 0.438372 0.115003 -0.259064
C37   C     C_R   0.454696 0.448008 0.047809 0.085927
C38   C     C_R   0.581881 0.507966 0.236630 -0.502566
H38   H     H_    0.709375 0.490074 0.034233 0.151823
H39   H     H_    0.131394 0.374023 0.958927 0.139079
H40   H     H_    0.227392 0.406651 0.097543 0.143634
H41   H     H_    0.596736 0.505012 0.900876 0.161607
H42   H     H_    0.179154 0.434961 0.690061 0.154056
N1    N     N_2   0.219754 0.075538 0.265777 -0.075196
H43   H     H_    0.211998 0.092782 0.199450 0.216262
C39   C     C_3   0.382181 0.078678 0.313376 -0.624146
H44   H     H_    0.447959 0.030737 0.273117 0.217566
H45   H     H_    0.377836 0.052477 0.381191 0.258327
H46   H     H_    0.450364 0.157567 0.322352 0.252632
N2    N     N_2   0.530938 0.801475 0.062993 -0.106663
H47   H     H_    0.651178 0.831693 0.086694 0.210747
C40   C     C_3   0.496550 0.693739 0.025808 -0.791477
H48   H     H_    0.594844 0.673461 0.989937 0.269107
H49   H     H_    0.380175 0.677117 0.976147 0.252216
H50   H     H_    0.486976 0.647369 0.082456 0.239630
C41   C     C_2   0.699775 0.788711 0.761588 1.030501
O25   O     O_2   0.783950 0.816986 0.837778 -0.615097
O26   O     O_R   0.766022 0.790261 0.684243 -0.805938
H51   H     H_    0.746859 0.712664 0.653859 0.280687
C42   C     C_2   0.526320 0.948019 0.747910 1.072708
O27   O     O_2   0.627245 0.014442 0.798005 -0.625461
O28   O     O_R   0.502206 0.945211 0.652595 -0.777797
H52   H     H_    0.596133 0.988408 0.633092 0.346731
N3    N     N_2   0.416583 0.945032 0.111700 -0.091775
H53   H     H_    0.528540 0.989011 0.138756 0.170855
C43   C     C_3   0.354012 0.969249 0.021167 -0.912596
H54   H     H_    0.456001 0.985011 0.983714 0.252301
H55   H     H_    0.295245 0.039577 0.028028 0.253348
H56   H     H_    0.263702 0.904582 0.979837 0.263902
C44   C     C_2   0.650853 0.533288 0.333549 1.128480
O29   O     O_2   0.742538 0.480736 0.369761 -0.598367
O30   O     O_R   0.610488 0.615587 0.384702 -0.790452
H57   H     H_    0.623818 0.604615 0.451224 0.338361
N4    N     N_2   0.932044 0.880498 0.197744 -0.132769
H58   H     H_    0.995368 0.944074 0.177689 0.169444
C45   C     C_3   0.923330 0.890901 0.294208 -0.899653
H59   H     H_    0.875034 0.962945 0.312415 0.233306
H60   H     H_    0.045745 0.894565 0.336265 0.298590
H61   H     H_    0.839829 0.824607 0.309703 0.261129
N5    N     N_2   0.610613 0.296091 0.220293 -0.121191
H62   H     H_    0.555234 0.307870 0.275753 0.194549
C46   C     C_3   0.508025 0.224534 0.145680 -0.922338
H63   H     H_    0.382422 0.241472 0.135021 0.263590
H64   H     H_    0.504020 0.145770 0.162750 0.265956
H65   H     H_    0.552700 0.230922 0.080460 0.269087

loop_
_geom_bond_atom_site_label_1
_geom_bond_atom_site_label_2
_geom_bond_distance
_ccdc_geom_bond_type
C33   H38   1.077312 S    
C10   H19   1.107997 S    
P7    O22   1.757458 S    
C30   C31   1.419151 A    
O16   P7    1.766678 S    
P2    O7    1.552365 D    
C36   H40   1.075330 S    
C45   H59   1.109497 S    
O6    C10   1.410170 S    
P3    C34   1.842057 S    
C15   H29   1.111496 S    
C2    N4    1.447704 S    
C16   H32   1.109198 S    
N3    H53   1.031206 S    
Ba1   O16   2.798424 S    
C5    H9    1.097945 S    
C43   H55   1.114328 S    
O1    Ba1   2.931082 S    
O7    Ba1   2.812383 S    
C45   H60   1.109926 S    
C2    H3    1.111922 S    
C8    C9    1.531526 S    
C44   O30   1.372458 S    
C6    H10   1.107045 S    
Ba2   O21   2.812528 S    
C40   H49   1.107729 S    
C9    N1    1.444655 S    
C35   C36   1.397358 A    
C11   C12   1.528566 S    
N1    H43   1.031824 S    
C7    H14   1.107358 S    
H1    C10   1.114341 S    
C12   H22   1.100912 S    
P1    O1    1.547267 D    
C17   H36   1.082139 S    
P8    C25   1.858214 S    
O2    Ba1   2.964206 S    
C29   C30   1.418886 A    
C34   C38   1.385907 A    
C19   H34   1.053840 S    
N4    C45   1.444555 S    
O12   Ba2   2.931546 S    
P4    Ba2   3.470452 S    
P5    O18   1.545863 D    
N1    C39   1.431138 S    
P8    O23   1.542332 D    
P3    O11   1.744866 S    
C1    N2    1.447571 S    
N5    H62   1.024298 S    
C14   H26   1.113396 S    
C1    C10   1.548035 S    
C17   C24   1.398739 A    
C46   H64   1.091818 S    
P4    O15   1.775614 S    
C1    H2    1.106155 S    
O3    Ba1   2.873393 S    
O10   C8    1.396371 S    
C30   C37   1.520250 S    
P5    O17   1.740569 S    
O13   Ba2   2.965143 S    
C11   C41   1.486901 S    
C26   H35   1.079845 S    
P2    C35   1.848366 S    
C12   C42   1.485910 S    
C33   C34   1.406306 A    
C16   H33   1.105126 S    
N4    H58   1.029244 S    
C18   C20   1.384939 A    
C43   H56   1.110944 S    
O17   Ba2   2.827668 S    
C4    O15   1.406127 S    
C13   H24   1.110326 S    
O4    P6    1.545397 D    
C40   H48   1.108983 S    
C45   H61   1.113507 S    
P7    C32   1.823883 S    
C19   C23   1.407622 A    
C39   H46   1.097845 S    
Ba2   O20   2.797628 S    
C19   C20   1.414044 A    
C15   C16   1.520175 S    
C40   H50   1.101652 S    
C11   H20   1.117015 S    
P4    C24   1.960195 S    
P1    O5    1.761777 S    
Ba1   O13   2.915301 S    
C12   H21   1.113260 S    
P1    O2    1.633456 S    
P4    O12   1.547612 D    
C41   O26   1.364509 S    
C8    H15   1.100797 S    
P2    O10   1.728976 S    
C11   O22   1.384333 S    
C28   C29   1.397556 A    
P3    O9    1.552318 D    
C36   C37   1.421363 A    
C14   H28   1.109522 S    
P1    Ba1   3.469950 S    
O11   C2    1.400123 S    
C21   C22   1.469432 A    
C46   H65   1.107613 S    
P4    O13   1.633479 S    
O14   P8    1.733622 S    
N2    H47   1.027015 S    
O19   C13   1.416420 S    
C1    N3    1.445093 S    
C9    H17   1.102500 S    
O5    C6    1.412043 S    
Ba1   O20   2.984680 S    
O28   H52   1.013105 S    
C3    H5    1.112193 S    
O8    Ba1   2.827049 S    
C41   O25   1.224315 D    
C33   C37   1.428111 A    
O26   H51   1.050384 S    
C18   C21   1.392115 A    
C3    H23   1.110267 S    
N3    C43   1.451156 S    
P5    C28   1.833480 S    
C4    N5    1.444149 S    
C6    C7    1.524446 S    
O3    P6    1.761345 S    
P3    O8    1.784980 S    
H31   C16   1.109645 S    
C42   O28   1.396726 S    
C42   O27   1.219322 D    
C38   C44   1.448234 S    
C5    H8    1.111331 S    
C27   H42   1.082737 S    
C43   H54   1.111849 S    
C39   H44   1.093974 S    
C13   C14   1.531476 S    
C39   H45   1.107676 S    
O30   H57   1.007536 S    
C5    H7    1.111239 S    
C8    H16   1.112189 S    
C31   H41   1.075467 S    
C44   O29   1.210617 D    
C6    H11   1.108124 S    
O2    Ba2   2.915944 S    
C23   C24   1.472164 A    
P6    C20   1.882447 S    
Ba1   Ba2   4.677198 S    
P1    C21   1.949045 S    
O16   Ba2   2.983734 S    
O14   Ba2   2.872736 S    
C9    H18   1.104385 S    
C25   C26   1.413843 A    
C7    H13   1.107207 S    
C7    H12   1.105325 S    
C2    C3    1.533886 S    
N5    C46   1.448267 S    
C22   C26   1.409905 A    
C31   C32   1.404562 A    
C15   O24   1.402504 S    
N2    C40   1.436256 S    
C18   H37   1.063145 S    
C4    H6    1.102419 S    
P7    O21   1.585647 D    
P5    O19   1.751320 S    
C4    C5    1.539450 S    
C3    H4    1.108912 S    
P2    Ba1   3.414771 S    
C29   H39   1.074449 S    
C27   C28   1.390132 A    
P8    O24   1.741760 S    
C14   H27   1.112746 S    
C17   C25   1.403382 A    
O6    P6    1.753200 S    
C13   H25   1.109410 S    
C22   C23   1.460708 A    
P2    O20   1.550682 S    
C15   H30   1.106067 S    
C27   C32   1.385703 A    
C46   H63   1.106384 S    
C35   C38   1.394228 A    
