data_mof_unit_27528.cif
_audit_creation_date              2012-12-10T17:07:12-0500
_audit_creation_method            fapswitch 2.2
_symmetry_space_group_name_H-M    P1
_symmetry_Int_Tables_number       1
_space_group_crystal_system       triclinic
_cell_length_a                    18.287248
_cell_length_b                    18.26271
_cell_length_c                    18.278562
_cell_angle_alpha                 119.800144
_cell_angle_beta                  119.975431
_cell_angle_gamma                 60.127173
_cell_volume                      4328.0292361

loop_
_atom_site_label
_atom_site_type_symbol
_atom_type_description
_atom_site_fract_x
_atom_site_fract_y
_atom_site_fract_z
_atom_type_partial_charge
C1    C     C_R   0.139877 0.861848 0.641851 0.485339
C2    C     C_R   0.720212 0.475329 0.765879 -0.114525
C3    C     C_R   0.804425 0.426002 0.757340 -0.112895
C4    C     C_R   0.859940 0.139972 0.360001 0.488497
C5    C     C_R   0.839646 0.334741 0.744413 -0.075114
C6    C     C_R   0.940440 0.218326 0.326230 -0.098926
C7    C     C_R   0.978566 0.254719 0.308190 -0.124491
C8    C     C_R   0.924887 0.307353 0.253018 -0.131016
C9    C     C_R   0.832558 0.324907 0.216353 -0.102662
C10   C     C_R   0.792536 0.288641 0.233602 0.032011
C11   C     C_R   0.847263 0.234224 0.288860 0.030031
C12   C     C_R   0.648052 0.167064 0.740961 0.307877
C13   C     C_R   0.807285 0.196004 0.303903 0.035352
C14   C     C_R   0.715450 0.210336 0.264079 -0.141120
C15   C     C_R   0.661833 0.264013 0.210474 -0.145926
C16   C     C_R   0.140090 0.139947 0.641798 0.484268
C17   C     C_R   0.699433 0.303809 0.195812 0.037058
C18   C     C_R   0.931986 0.673264 0.367104 0.045321
C19   C     C_R   0.951924 0.596746 0.382842 -0.136590
C20   C     C_R   0.891431 0.551164 0.337054 -0.140074
C21   C     C_R   0.810548 0.580221 0.273705 -0.100783
C22   C     C_R   0.784326 0.661098 0.260410 0.003690
C23   C     C_R   0.701150 0.210857 0.752600 0.025399
C24   C     C_R   0.844116 0.710951 0.310874 0.038038
C25   C     C_R   0.812816 0.795899 0.302748 0.010820
C26   C     C_R   0.730773 0.825132 0.240017 -0.122655
C27   C     C_R   0.674123 0.774555 0.186415 -0.009489
C28   C     C_R   0.861276 0.858830 0.359949 0.546378
C29   C     C_R   0.700509 0.692439 0.196898 -0.006250
C30   C     C_R   0.108962 0.915277 0.807188 -0.105283
C31   C     C_R   0.092628 0.937800 0.883762 -0.133999
C32   C     C_R   0.145491 0.883431 0.936952 -0.119342
C33   C     C_R   0.215416 0.806506 0.914253 -0.097309
C34   C     C_R   0.780230 0.158071 0.730717 -0.033154
C35   C     C_R   0.232219 0.780968 0.835715 0.023410
C36   C     C_R   0.177711 0.835964 0.781026 0.030304
C37   C     C_R   0.195747 0.811469 0.703470 0.020796
C38   C     C_R   0.269061 0.737420 0.683787 -0.153793
C39   C     C_R   0.322679 0.684231 0.737478 -0.148836
C40   C     C_R   0.140041 0.859670 0.360012 0.506059
C41   C     C_R   0.303728 0.703792 0.811603 0.025926
C42   C     C_R   0.246198 0.674815 0.354379 -0.067831
C43   C     C_R   0.297011 0.586314 0.351248 -0.111875
C44   C     C_R   0.350145 0.532485 0.296975 -0.113936
C45   C     C_R   0.676702 0.305183 0.783139 -0.004937
C46   C     C_R   0.352949 0.566820 0.245555 -0.094651
C47   C     C_R   0.302617 0.656570 0.248175 -0.017841
C48   C     C_R   0.248334 0.711249 0.303245 0.016915
C49   C     C_R   0.196204 0.800282 0.304149 -0.014326
C50   C     C_R   0.198050 0.834381 0.251829 -0.132108
C51   C     C_R   0.253558 0.782091 0.199983 0.238254
C52   C     C_R   0.866397 0.140054 0.646963 0.493752
C53   C     C_R   0.304230 0.692833 0.196432 0.034135
C54   C     C_R   0.280691 0.111089 0.809211 -0.101920
C55   C     C_R   0.348966 0.096752 0.887664 -0.117315
C56   C     C_R   0.713440 0.344312 0.764783 -0.002069
C57   C     C_R   0.402748 0.150442 0.941383 -0.119339
C58   C     C_R   0.388592 0.218879 0.917057 -0.101088
C59   C     C_R   0.320936 0.233669 0.836776 0.027236
C60   C     C_R   0.266153 0.178852 0.781931 0.024732
C61   C     C_R   0.196175 0.195923 0.703320 0.021705
C62   C     C_R   0.178064 0.268653 0.682760 -0.156519
C63   C     C_R   0.231288 0.322251 0.736382 -0.157403
C64   C     C_R   0.820064 0.068538 0.729610 -0.101594
C65   C     C_R   0.303889 0.303971 0.811423 0.020486
C66   C     C_R   0.641150 0.639045 0.140156 0.469887
C67   C     C_R   0.790643 0.291100 0.739634 0.008320
C68   C     C_R   0.359971 0.360004 0.861989 0.481508
C69   C     C_R   0.639980 0.360014 0.139921 0.483235
C70   C     C_R   0.359938 0.642185 0.862096 0.485915
C71   C     C_R   0.360012 0.639518 0.139998 0.524941
C72   C     C_R   0.632179 0.360381 0.852050 0.532438
C73   C     C_R   0.774912 0.029154 0.734485 -0.163745
C74   C     C_R   0.688097 0.076615 0.736533 -0.111773
C75   C     C_2   0.009007 0.703145 0.403416 0.229198
C76   C     C_2   0.585246 0.811474 0.123745 0.229725
C77   C     C_3   0.321455 0.863756 0.210092 -0.002046
C78   C     C_R   0.817420 0.196648 0.712175 -0.022791
C79   C     C_3   0.338220 0.892661 0.155981 -0.259182
C80   C     C_3   0.405939 0.942245 0.215609 -0.474861
C81   C     C_3   0.502288 0.161666 0.669936 0.008381
C82   C     C_3   0.407859 0.222718 0.633972 -0.250878
C83   C     C_3   0.342080 0.170915 0.573117 -0.483647
C84   C     C_R   0.674805 0.435143 0.769420 -0.077438
H1    H     H_    0.841792 0.458012 0.758878 0.121544
H2    H     H_    0.769364 0.538190 0.236168 0.140704
H3    H     H_    0.887708 0.029255 0.728951 0.148493
H4    H     H_    0.283594 0.719409 0.625129 0.127841
H5    H     H_    0.068293 0.961818 0.770403 0.122756
H6    H     H_    0.039467 0.998413 0.902560 0.113485
H7    H     H_    0.133224 0.901729 0.996961 0.147369
H8    H     H_    0.256570 0.768879 0.959989 0.160381
H9    H     H_    0.377972 0.625871 0.719620 0.124755
H10   H     H_    0.158200 0.902907 0.253290 0.122856
H11   H     H_    0.204966 0.713935 0.396574 0.150567
H12   H     H_    0.984483 0.177121 0.368777 0.106869
H13   H     H_    0.294755 0.559245 0.390742 0.110564
H14   H     H_    0.806327 0.960595 0.733721 0.128612
H15   H     H_    0.389106 0.463676 0.294409 0.110653
H16   H     H_    0.394417 0.522340 0.203622 0.115407
H17   H     H_    0.123738 0.282597 0.623377 0.128561
H18   H     H_    0.238596 0.069866 0.771908 0.134026
H19   H     H_    0.359241 0.044635 0.907598 0.131473
H20   H     H_    0.454765 0.139996 0.003007 0.124075
H21   H     H_    0.429835 0.260924 0.963060 0.130308
H22   H     H_    0.217397 0.376804 0.717626 0.129156
H23   H     H_    0.050124 0.241629 0.336744 0.106028
H24   H     H_    0.652590 0.042872 0.735212 0.102681
H25   H     H_    0.608122 0.475333 0.772706 0.145531
H26   H     H_    0.690635 0.545252 0.771394 0.121963
H27   H     H_    0.906508 0.299664 0.740818 0.143540
H28   H     H_    0.685140 0.180305 0.275174 0.118602
H29   H     H_    0.055804 0.704772 0.470550 0.093843
H30   H     H_    0.533355 0.782035 0.092143 0.119472
H31   H     H_    0.386672 0.819560 0.243306 0.140097
H32   H     H_    0.295321 0.924400 0.262240 0.127266
H33   H     H_    0.364263 0.832638 0.103670 0.156703
H34   H     H_    0.954930 0.334793 0.238629 0.112434
H35   H     H_    0.274276 0.937335 0.122741 0.170091
H36   H     H_    0.381299 0.002885 0.268341 0.142456
H37   H     H_    0.415778 0.963205 0.174510 0.182468
H38   H     H_    0.471368 0.897961 0.247622 0.149604
H39   H     H_    0.499943 0.126572 0.703619 0.148610
H40   H     H_    0.525674 0.111870 0.611772 0.118235
H41   H     H_    0.384933 0.276916 0.690652 0.183415
H42   H     H_    0.408801 0.254059 0.595742 0.157581
H43   H     H_    0.362875 0.117333 0.514874 0.142225
H44   H     H_    0.274294 0.217146 0.548138 0.142344
H45   H     H_    0.793128 0.366096 0.173801 0.105237
H46   H     H_    0.338832 0.140520 0.610653 0.165668
H47   H     H_    0.590526 0.275050 0.180621 0.105330
H48   H     H_    0.709590 0.890120 0.235210 0.166309
H49   H     H_    0.017005 0.569080 0.427341 0.098232
H50   H     H_    0.908904 0.490811 0.348352 0.124881
O1    O     O_3   0.000000 0.000000 0.500000 -0.438587
O2    O     O_R   0.323460 0.615830 0.884170 -0.546537
O3    O     O_R   0.444880 0.615840 0.176480 -0.557562
O4    O     O_R   0.055060 0.884200 0.615800 -0.559619
O5    O     O_R   0.615800 0.444940 0.884180 -0.562334
O6    O     O_R   0.323440 0.615840 0.055040 -0.516136
O7    O     O_R   0.615780 0.323500 0.884180 -0.484370
O8    O     O_R   0.615760 0.323500 0.055050 -0.543389
O9    O     O_R   0.444910 0.615830 0.884180 -0.548487
O10   O     O_R   0.615780 0.615830 0.176490 -0.551536
O11   O     O_R   0.323430 0.444950 0.884170 -0.540100
O12   O     O_R   0.055100 0.176520 0.615800 -0.550062
O13   O     O_R   0.884210 0.176520 0.444920 -0.540661
O14   O     O_R   0.176540 0.055080 0.615800 -0.551419
O15   O     O_R   0.884190 0.884200 0.323480 -0.502179
O16   O     O_R   0.176540 0.884190 0.444930 -0.546803
O17   O     O_R   0.884180 0.055090 0.615790 -0.554020
O18   O     O_R   0.055100 0.884190 0.323490 -0.511593
O19   O     O_R   0.884190 0.176530 0.615790 -0.546650
O20   O     O_2   0.024842 0.719272 0.356495 -0.517057
O21   O     O_2   0.568374 0.876347 0.107086 -0.524112
O22   O     O_3   0.258361 0.818360 0.152292 -0.573313
O23   O     O_R   0.884180 0.884200 0.444920 -0.543037
O24   O     O_3   0.558056 0.214552 0.732980 -0.551305
O25   O     O_R   0.176510 0.884190 0.615800 -0.543400
O26   O     O_R   0.884210 0.055080 0.323480 -0.541643
O27   O     O_3   0.499970 0.500030 0.999970 -0.443509
O28   O     O_R   0.615800 0.615830 0.055050 -0.540610
O29   O     O_R   0.444880 0.323510 0.884180 -0.534670
O30   O     O_R   0.615760 0.444950 0.176490 -0.547407
Zn1   Zn    Zn3+2 0.956630 0.130130 0.543370 0.918748
Zn2   Zn    Zn3+2 0.130140 0.956620 0.543380 0.929436
Zn3   Zn    Zn3+2 0.956630 0.956620 0.369870 0.985562
Zn4   Zn    Zn3+2 0.956610 0.956630 0.543370 0.930450
Zn5   Zn    Zn3+2 0.543340 0.369890 0.956600 0.954859
Zn6   Zn    Zn3+2 0.543340 0.543410 0.130100 0.913606
Zn7   Zn    Zn3+2 0.369830 0.543410 0.956590 0.940447
Zn8   Zn    Zn3+2 0.543370 0.543400 0.956600 0.925705

loop_
_geom_bond_atom_site_label_1
_geom_bond_atom_site_label_2
_ccdc_geom_bond_type
C80   H36   S    
C17   C69   S    
C18   C75   S    
C23   C45   A    
C22   C29   A    
C12   C74   A    
C3    H1    S    
O14   Zn2   S    
C73   C74   A    
O30   Zn6   S    
C35   C36   A    
O15   Zn3   S    
C69   O30   A    
C83   H44   S    
C5    C67   A    
C63   C65   A    
C81   C82   S    
C8    H34   S    
C7    C8    A    
C39   C41   A    
C54   C60   A    
C25   C28   S    
C14   H28   S    
C12   C23   A    
C66   O28   A    
C26   C27   A    
C37   C38   A    
C81   H39   S    
C18   C24   A    
C16   O12   A    
C36   C37   A    
O9    Zn8   S    
C77   O22   S    
C30   C31   A    
C44   H15   S    
C32   H7    S    
C66   O10   A    
C10   C17   A    
C40   C49   S    
O16   Zn2   S    
O10   Zn6   S    
C63   H22   S    
C27   C29   A    
C40   O18   A    
O4    Zn4   S    
C18   C19   A    
O26   Zn3   S    
C4    C13   S    
C82   H42   S    
O13   Zn1   S    
C21   C22   A    
C54   C55   A    
O27   Zn8   S    
C2    C84   A    
C72   O5    A    
C39   H9    S    
C47   C48   A    
C45   C56   A    
C8    C9    A    
C79   H35   S    
C76   H30   S    
O1    Zn4   S    
C75   H29   S    
C77   H32   S    
C9    C10   A    
C64   H3    S    
C1    C37   S    
C47   C53   A    
C62   H17   S    
O27   Zn5   S    
C65   C68   S    
C28   O15   A    
C13   C14   A    
C45   C72   S    
C70   O2    A    
C72   O7    A    
C67   C78   A    
C30   H5    S    
C52   C78   S    
O23   Zn4   S    
C34   C64   A    
C25   C26   A    
C44   C46   A    
C56   C84   A    
C80   H37   S    
C77   C79   S    
O1    Zn1   S    
C73   H14   S    
C51   O22   S    
C81   H40   S    
C42   H11   S    
C1    O25   A    
C24   C25   A    
C83   H46   S    
C71   O3    A    
C33   H8    S    
C6    C11   A    
C50   H10   S    
C80   H38   S    
C5    H27   S    
C69   O8    A    
C4    O13   A    
C29   C66   S    
C38   H4    S    
C60   C61   A    
C51   C53   A    
C43   C44   A    
C82   H41   S    
C62   C63   A    
C31   C32   A    
O2    Zn7   S    
C64   C73   A    
C31   H6    S    
O7    Zn5   S    
C50   C51   A    
C70   O9    A    
C40   O16   A    
O5    Zn8   S    
C42   C48   A    
C55   H19   S    
O3    Zn6   S    
C6    C7    A    
C35   C41   A    
O8    Zn5   S    
O27   Zn6   S    
C48   C49   A    
C52   O19   A    
O12   Zn1   S    
C82   C83   S    
O6    Zn7   S    
C6    H12   S    
C55   C57   A    
C7    H23   S    
O28   Zn8   S    
C16   C61   S    
C27   C76   S    
C53   C71   S    
O18   Zn3   S    
C26   H48   S    
C68   O29   A    
C15   C17   A    
C57   H20   S    
C46   H16   S    
C46   C47   A    
C2    H26   S    
C23   C34   A    
C81   O24   S    
O19   Zn1   S    
C54   H18   S    
C43   H13   S    
C83   H43   S    
C3    C5    A    
C21   H2    S    
C71   O6    A    
C9    H45   S    
C19   H49   S    
C56   C67   A    
C76   O21   D    
C84   H25   S    
O25   Zn2   S    
C30   C36   A    
C16   O14   A    
C58   H21   S    
C20   H50   S    
C32   C33   A    
C19   C20   A    
C2    C3    A    
C58   C59   A    
C34   C78   A    
C4    O26   A    
C11   C13   A    
C75   O20   D    
C57   C58   A    
C38   C39   A    
C52   O17   A    
C79   H33   S    
C28   O23   A    
C33   C35   A    
O1    Zn2   S    
C22   C24   A    
C61   C62   A    
O29   Zn5   S    
O11   Zn7   S    
C10   C11   A    
C68   O11   A    
C74   H24   S    
C79   C80   S    
O27   Zn7   S    
C59   C60   A    
C15   H47   S    
C20   C21   A    
C49   C50   A    
C42   C43   A    
O1    Zn3   S    
C14   C15   A    
C12   O24   S    
C77   H31   S    
C59   C65   A    
C1    O4    A    
O17   Zn4   S    
C41   C70   S    
