data_mof_unit_63597.cif
_audit_creation_date              2012-12-10T16:51:45-0500
_audit_creation_method            fapswitch 2.2
_symmetry_space_group_name_H-M    P1
_symmetry_Int_Tables_number       1
_space_group_crystal_system       triclinic
_cell_length_a                    18.38217
_cell_length_b                    18.40578
_cell_length_c                    18.373199
_cell_angle_alpha                 90.866415
_cell_angle_beta                  119.566218
_cell_angle_gamma                 119.520958
_cell_volume                      4422.58374373

loop_
_atom_site_label
_atom_site_type_symbol
_atom_type_description
_atom_site_fract_x
_atom_site_fract_y
_atom_site_fract_z
_atom_type_partial_charge
C1    C     C_R   0.777020 0.636158 0.638575 0.518929
C2    C     C_2   0.112295 0.307717 0.309234 -0.082484
C3    C     C_2   0.487583 0.170543 0.727148 0.219306
C4    C     C_R   0.223029 0.361593 0.361886 0.514491
C5    C     C_2   0.498876 0.192271 0.804375 -0.088229
C6    C     C_2   0.464897 0.218016 0.664461 -0.041649
C7    C     C_2   0.513345 0.306941 0.695187 -0.135452
C8    C     C_2   0.055451 0.775603 0.720009 -0.118229
C9    C     C_2   0.113039 0.816275 0.807812 -0.029079
C10   C     C_2   0.944362 0.728750 0.668203 -0.157501
C11   C     C_2   0.885835 0.673983 0.693283 0.237932
C12   C     C_3   0.593918 0.827468 0.801535 -0.132496
C13   C     C_2   0.443744 0.161236 0.226856 -0.144171
C14   C     C_2   0.492078 0.195191 0.188029 -0.080891
C15   C     C_2   0.439064 0.216661 0.278080 -0.143090
C16   C     C_R   0.498502 0.637017 0.360136 0.518690
C17   C     C_2   0.509015 0.304380 0.313633 -0.075623
C18   C     C_2   0.421080 0.748328 0.192878 0.185403
C19   C     C_2   0.506411 0.814861 0.201343 -0.024963
C20   C     C_2   0.429307 0.710928 0.264198 -0.033827
C21   C     C_2   0.487047 0.679281 0.292870 -0.106844
C22   C     C_R   0.501338 0.138277 0.861299 0.555260
C23   C     C_3   0.524329 0.791307 0.698907 -0.008285
C24   C     C_R   0.499544 0.861327 0.138032 0.557644
C25   C     C_R   0.777050 0.138579 0.138146 0.519969
C26   C     C_R   0.223155 0.863049 0.861628 0.529348
C27   C     C_R   0.498898 0.140839 0.139878 0.511759
C28   C     C_R   0.501482 0.361257 0.638658 0.519475
C29   C     C_R   0.500061 0.858475 0.858253 0.534130
C30   C     C_R   0.501367 0.359060 0.360500 0.527081
C31   C     C_R   0.500139 0.641732 0.641775 0.511384
C32   C     C_3   0.569653 0.733791 0.801985 -0.127075
C33   C     C_3   0.475875 0.709125 0.800978 -0.019498
C34   C     C_3   0.430581 0.766658 0.697942 -0.108629
C35   C     C_3   0.499821 0.801335 0.800658 0.037673
C36   C     C_1   0.449004 0.664223 0.857843 0.224129
C37   C     C_1   0.389478 0.165268 0.570545 0.337313
C38   C     C_1   0.608746 0.852879 0.280096 0.152521
C39   C     C_1   0.374423 0.710409 0.300104 0.329099
C40   C     C_1   0.550861 0.836315 0.641932 0.239063
C41   C     C_3   0.406305 0.672982 0.698361 -0.140680
C42   C     C_3   0.500421 0.699081 0.699256 0.032395
C43   C     C_2   0.943893 0.162622 0.222613 -0.146266
C44   C     C_2   0.887780 0.195395 0.190795 -0.081179
C45   C     C_2   0.056275 0.218822 0.276173 -0.146605
H1    H     H_    0.078283 0.343822 0.299803 0.117938
H2    H     H_    0.377416 0.184358 0.286795 0.175616
H3    H     H_    0.574967 0.337561 0.310956 0.115316
H4    H     H_    0.525214 0.681221 0.262015 0.122116
H5    H     H_    0.670428 0.891593 0.843762 0.139195
H6    H     H_    0.374283 0.781255 0.655736 0.166053
H7    H     H_    0.329769 0.608883 0.656126 0.134598
H8    H     H_    0.906596 0.091490 0.208242 0.167318
H9    H     H_    0.921722 0.265412 0.201312 0.118909
H10   H     H_    0.093658 0.184989 0.289493 0.167841
H11   H     H_    0.531034 0.053142 0.607972 0.379574
H12   H     H_    0.498260 0.247943 0.823554 0.056794
H13   H     H_    0.801248 0.531416 0.782583 0.367275
H14   H     H_    0.147183 0.576527 0.037414 0.392169
H15   H     H_    0.570873 0.343397 0.766093 0.112480
H16   H     H_    0.090050 0.781221 0.684721 0.165892
H17   H     H_    0.078390 0.815948 0.841538 0.169057
H18   H     H_    0.909468 0.741953 0.607125 0.129523
H19   H     H_    0.405569 0.091411 0.220253 0.179211
H20   H     H_    0.626022 0.719292 0.844255 0.148365
H21   H     H_    0.525380 0.263169 0.188933 0.111973
N1    N     N_1   0.427825 0.628897 0.902747 -0.240777
N2    N     N_1   0.329242 0.122889 0.495678 -0.232452
N3    N     N_1   0.690394 0.883341 0.342840 -0.264701
N4    N     N_1   0.330533 0.710165 0.328636 -0.216790
N5    N     N_1   0.571703 0.871748 0.596922 -0.256680
O1    O     O_3   0.500000 0.500000 0.500000 -0.462101
O2    O     O_R   0.270900 0.886160 0.946260 -0.496307
O3    O     O_R   0.560160 0.177420 0.117340 -0.542365
O4    O     O_R   0.729180 0.615300 0.675360 -0.519221
O5    O     O_R   0.440020 0.882760 0.822680 -0.509368
O6    O     O_R   0.439990 0.057240 0.117340 -0.544944
O7    O     O_R   0.560190 0.882760 0.942820 -0.535423
O8    O     O_R   0.729270 0.053840 0.113900 -0.540319
O9    O     O_R   0.270910 0.884750 0.824690 -0.549052
O10   O     O_R   0.560170 0.175430 0.946260 -0.539848
O11   O     O_R   0.440000 0.886160 0.115330 -0.482050
O12   O     O_R   0.439910 0.615300 0.386140 -0.522870
O13   O     O_R   0.270820 0.446200 0.386140 -0.531065
O14   O     O_R   0.560090 0.613880 0.384720 -0.532879
O15   O     O_R   0.439920 0.324620 0.553780 -0.526292
O16   O     O_R   0.560100 0.442800 0.382710 -0.533960
O17   O     O_R   0.560070 0.617290 0.677370 -0.544234
O18   O     O_R   0.439930 0.322630 0.382710 -0.535641
O19   O     O_R   0.439900 0.617290 0.557220 -0.531148
O20   O     O_2   0.579212 0.084787 0.777774 -0.277102
O21   O     O_2   0.397461 0.997217 0.653583 -0.259145
O22   O     O_3   0.530613 0.104390 0.624358 -0.498456
O23   O     O_R   0.560080 0.446200 0.675360 -0.535748
O24   O     O_2   0.015023 0.629034 0.793843 -0.209437
O25   O     O_2   0.962815 0.687412 0.865128 -0.283969
O26   O     O_3   0.831116 0.526361 0.751927 -0.483335
O27   O     O_2   0.259589 0.756581 0.100532 -0.222879
O28   O     O_2   0.294306 0.692681 0.013645 -0.247442
O29   O     O_3   0.215606 0.597813 0.090678 -0.503809
O30   O     O_R   0.729180 0.613880 0.553780 -0.553303
O31   O     O_R   0.270820 0.324620 0.384720 -0.540474
O32   O     O_3   0.500090 0.000040 0.000040 -0.477719
O33   O     O_R   0.440010 0.053840 0.824690 -0.478265
O34   O     O_R   0.560180 0.884750 0.113900 -0.533960
O35   O     O_R   0.729260 0.175430 0.115330 -0.531183
S1    S     S_3+6 0.498541 0.085772 0.696861 0.048870
S2    S     S_3+6 0.928265 0.630930 0.779757 0.053163
S3    S     S_3+6 0.295340 0.699845 0.095829 0.069476
Zn1   Zn    Zn3+2 0.414150 0.543930 0.458110 0.977702
Zn2   Zn    Zn3+2 0.585850 0.541910 0.456060 0.972379
Zn3   Zn    Zn3+2 0.414160 0.370220 0.456060 0.970851
Zn4   Zn    Zn3+2 0.585840 0.543930 0.629770 0.971041
Zn5   Zn    Zn3+2 0.585940 0.956110 0.041940 0.983914
Zn6   Zn    Zn3+2 0.585930 0.129820 0.043980 0.963140
Zn7   Zn    Zn3+2 0.414240 0.958130 0.043980 1.018709
Zn8   Zn    Zn3+2 0.414250 0.956110 0.870280 1.020003

loop_
_geom_bond_atom_site_label_1
_geom_bond_atom_site_label_2
_ccdc_geom_bond_type
O1    Zn3   S    
C16   C21   S    
C17   C30   S    
C31   C42   S    
C41   C42   S    
O31   Zn3   S    
C10   H18   S    
C1    C11   S    
C17   H3    S    
C15   H2    S    
C3    C6    S    
C26   O2    A    
C21   H4    S    
C36   N1    T    
C29   O5    A    
O7    Zn5   S    
C2    H1    S    
H13   O26   S    
O18   Zn3   S    
C34   H6    S    
O2    Zn7   S    
C2    C4    S    
C40   N5    T    
C34   C35   S    
O16   Zn2   S    
C23   C40   S    
O28   S3    D    
C37   N2    T    
C33   C36   S    
C22   O33   A    
C28   O23   A    
C18   C19   D    
O17   Zn4   S    
C24   O11   A    
O26   S2    S    
C43   H8    S    
C29   O7    A    
C8    C9    D    
C4    O31   A    
C25   O35   A    
C18   S3    S    
O4    Zn4   S    
C14   C27   S    
O6    Zn7   S    
C41   H7    S    
C8    H16   S    
C3    C5    D    
C31   O19   A    
O25   S2    D    
C38   N3    T    
O29   S3    S    
O27   S3    D    
C13   C14   D    
C12   C32   S    
H14   O29   S    
O32   Zn8   S    
C34   C41   S    
C30   O18   A    
C25   C44   S    
O23   Zn4   S    
C9    C26   S    
C2    C45   D    
H11   O22   S    
O1    Zn1   S    
O12   Zn1   S    
C5    C22   S    
C9    H17   S    
C1    O4    A    
C22   O10   A    
O20   S1    D    
O34   Zn5   S    
O32   Zn5   S    
O24   S2    D    
C20   C39   S    
C12   C23   S    
C3    S1    S    
O1    Zn4   S    
C16   O12   A    
C26   O9    A    
C7    C28   S    
O32   Zn6   S    
C43   C44   D    
C19   C38   S    
O21   S1    D    
C23   C42   S    
C4    O13   A    
C23   C34   S    
O10   Zn6   S    
C14   H21   S    
C6    C37   S    
C12   C35   S    
C43   C45   S    
C13   C15   S    
C28   O15   A    
C16   O14   A    
O19   Zn1   S    
C27   O3    A    
C1    O30   A    
C7    H15   S    
O33   Zn8   S    
C15   C17   D    
O9    Zn8   S    
C31   O17   A    
C25   O8    A    
C27   O6    A    
C12   H5    S    
C6    C7    D    
O30   Zn2   S    
C29   C35   S    
O5    Zn8   S    
C5    H12   S    
O35   Zn6   S    
C33   C41   S    
C32   C33   S    
O32   Zn7   S    
O11   Zn7   S    
O22   S1    S    
C13   H19   S    
O3    Zn6   S    
C33   C35   S    
C39   N4    T    
C19   C24   S    
C18   C20   S    
O13   Zn1   S    
O1    Zn2   S    
C10   C11   D    
C44   H9    S    
O15   Zn3   S    
C20   C21   D    
C45   H10   S    
C8    C10   S    
O8    Zn5   S    
C11   S2    S    
C32   C42   S    
C24   O34   A    
C30   O16   A    
O14   Zn2   S    
C32   H20   S    
