data_mof_unit_18589.cif
_audit_creation_date              2012-12-10T19:11:32-0500
_audit_creation_method            fapswitch 2.2
_symmetry_space_group_name_H-M    P1
_symmetry_Int_Tables_number       1
_space_group_crystal_system       triclinic
_cell_length_a                    11.002547
_cell_length_b                    9.975807
_cell_length_c                    10.496848
_cell_angle_alpha                 90.339464
_cell_angle_beta                  87.485576
_cell_angle_gamma                 89.023463
_cell_volume                      1150.82442648

loop_
_atom_site_label
_atom_site_type_symbol
_atom_type_description
_atom_site_fract_x
_atom_site_fract_y
_atom_site_fract_z
_atom_type_partial_charge
C1    C     C_R   0.258277 0.501276 0.513319 0.899295
C2    C     C_3   0.502246 0.497442 0.123127 -0.023862
C3    C     C_3   0.062814 0.598466 0.637455 0.096867
C4    C     C_3   0.072524 0.351257 0.540176 0.132748
C5    C     C_3   0.916608 0.608865 0.622997 0.125328
C6    C     C_3   0.928455 0.353652 0.558234 0.107248
C7    C     C_3   0.075905 0.561816 0.389290 0.671417
C8    C     C_3   0.119959 0.503511 0.522091 -0.125232
C9    C     C_3   0.878180 0.499483 0.516667 -0.149126
C10   C     C_3   0.934982 0.540442 0.379760 0.636848
C11   C     C_3   0.379828 0.082606 0.463252 0.086283
C12   C     C_3   0.385008 0.923644 0.448000 0.049417
C13   C     C_3   0.585290 0.078979 0.393167 0.639253
C14   C     C_3   0.600857 0.916958 0.408260 0.636083
C15   C     C_3   0.529094 0.079101 0.627268 0.390472
C16   C     C_3   0.519652 0.915696 0.629174 0.479883
C17   C     C_R   0.501675 0.499352 0.258196 0.867921
C18   C     C_R   0.741438 0.499196 0.506736 0.913712
C19   C     C_R   0.500415 0.500399 0.741629 0.848639
C20   C     C_3   0.403696 0.568403 0.047747 -0.286984
C21   C     C_3   0.499595 0.370107 0.039487 -0.206962
C22   C     C_3   0.403345 0.442649 0.962852 0.457162
C23   C     C_3   0.503029 0.501088 0.876490 -0.011430
C24   C     C_3   0.506128 0.627958 0.960205 -0.210391
C25   C     C_3   0.601843 0.429877 0.951345 -0.287510
C26   C     C_3   0.602088 0.555270 0.036755 0.149835
H1    H     H_    0.352912 0.125328 0.371036 0.191014
H2    H     H_    0.379176 0.902456 0.345140 0.069247
H3    H     H_    0.322438 0.623578 0.088351 0.151551
H4    H     H_    0.493666 0.265175 0.073051 0.197997
H5    H     H_    0.515423 0.732802 0.928850 0.159329
H6    H     H_    0.683145 0.376305 0.908564 0.183955
N1    N     N_3   0.499750 0.138610 0.497240 -0.119076
N2    N     N_3   0.499750 0.861390 0.497240 -0.114612
O1    O     O_R   0.314910 0.616040 0.499970 -0.525924
O2    O     O_R   0.314910 0.383960 0.499970 -0.546267
O3    O     O_R   0.500080 0.616020 0.313900 -0.597128
O4    O     O_R   0.500080 0.383980 0.313900 -0.575714
O5    O     O_R   0.685320 0.616040 0.499930 -0.486934
O6    O     O_R   0.685320 0.383960 0.499930 -0.525428
O7    O     O_R   0.500150 0.616060 0.686000 -0.590471
O8    O     O_R   0.500150 0.383940 0.686000 -0.605800
Zn1   Zn    Zn3+2 0.500150 0.654960 0.499940 1.084428
Zn2   Zn    Zn3+2 0.500150 0.345040 0.499940 1.066232
O9    O     O_3   0.299506 0.382112 0.918726 -0.820452
H7    H     H_    0.250393 0.358104 0.996404 0.346353
O10   O     O_3   0.877940 0.658549 0.336307 -0.760652
H8    H     H_    0.904247 0.671445 0.245547 0.353416
O11   O     O_3   0.915244 0.440652 0.287851 -0.809344
H9    H     H_    0.826420 0.436594 0.275681 0.337585
O12   O     O_3   0.286190 0.129401 0.545104 -0.747473
H10   H     H_    0.259309 0.062112 0.607496 0.346964
O13   O     O_3   0.281451 0.864820 0.499869 -0.699004
H11   H     H_    0.212759 0.902685 0.452199 0.351277
O14   O     O_3   0.546246 0.117074 0.270859 -0.781849
H12   H     H_    0.491436 0.050991 0.235014 0.267354
O15   O     O_3   0.608619 0.850503 0.287999 -0.729903
H13   H     H_    0.530429 0.844252 0.247046 0.310623
O16   O     O_3   0.645561 0.123157 0.659450 -0.725473
H14   H     H_    0.709936 0.066833 0.617035 0.385095
O17   O     O_3   0.627794 0.857750 0.673596 -0.696338
H15   H     H_    0.640376 0.892759 0.760720 0.312744
N3    N     N_3   0.444176 0.128576 0.731119 -0.474068
H16   H     H_    0.489529 0.151880 0.813814 0.226665
H17   H     H_    0.386393 0.207519 0.709804 0.298845
N4    N     N_3   0.422050 0.868075 0.718861 -0.368074
H18   H     H_    0.441317 0.894594 0.812123 0.132070
H19   H     H_    0.336949 0.909494 0.705902 0.196620
O18   O     O_3   0.697682 0.136989 0.401387 -0.709048
H20   H     H_    0.745869 0.113775 0.321620 0.335325
O19   O     O_3   0.714279 0.890492 0.459878 -0.679645
H21   H     H_    0.779211 0.903378 0.392497 0.362336
N5    N     N_3   0.710533 0.618331 0.082274 -0.397518
H22   H     H_    0.740481 0.686214 0.012824 0.175835
H23   H     H_    0.778237 0.544019 0.085567 0.192543
N6    N     N_3   0.120737 0.731265 0.639556 -0.363689
H24   H     H_    0.108126 0.776815 0.729304 0.147903
H25   H     H_    0.085706 0.801538 0.579245 0.228933
N7    N     N_3   0.114877 0.271236 0.425965 -0.364832
H26   H     H_    0.100211 0.168911 0.439073 0.188201
H27   H     H_    0.074869 0.294485 0.341447 0.253294
N8    N     N_3   0.091354 0.538744 0.760465 -0.469784
H28   H     H_    0.186013 0.536286 0.767093 0.227066
H29   H     H_    0.059315 0.597873 0.837682 0.191503
N9    N     N_3   0.126595 0.280099 0.648206 -0.370177
H30   H     H_    0.125834 0.321296 0.738376 0.221020
H31   H     H_    0.085946 0.186601 0.659572 0.164099
N10   N     N_3   0.851717 0.582375 0.746460 -0.450389
H32   H     H_    0.757735 0.588092 0.736562 0.211361
H33   H     H_    0.869722 0.657378 0.812660 0.165791
N11   N     N_3   0.884084 0.327379 0.691508 -0.408482
H34   H     H_    0.879302 0.224930 0.711302 0.194886
H35   H     H_    0.937829 0.366105 0.761027 0.212728
N12   N     N_3   0.876023 0.744945 0.587662 -0.331931
H36   H     H_    0.920101 0.782588 0.506786 0.255924
H37   H     H_    0.888587 0.813447 0.661615 0.168930
N13   N     N_3   0.879565 0.243521 0.483852 -0.352569
H38   H     H_    0.896682 0.245279 0.386377 0.224908
H39   H     H_    0.910310 0.150291 0.515950 0.164876
O20   O     O_3   0.100820 0.699740 0.382159 -0.819777
H40   H     H_    0.099414 0.728201 0.291707 0.338237
O21   O     O_3   0.138492 0.498289 0.283891 -0.787272
H41   H     H_    0.222279 0.533304 0.275936 0.323119

loop_
_geom_bond_atom_site_label_1
_geom_bond_atom_site_label_2
_ccdc_geom_bond_type
C7    C10   S    
N4    H19   S    
O14   H12   S    
N3    H17   S    
C1    C8    S    
N5    H23   S    
N5    H22   S    
C4    C8    S    
C6    C9    S    
C5    N12   S    
C7    C8    S    
O21   H41   S    
O9    H7    S    
C5    C9    S    
C12   H2    S    
N6    H25   S    
C6    N11   S    
C26   N5    S    
C14   O19   S    
C18   O6    A    
C16   N2    S    
C5    N10   S    
C20   C24   S    
C7    O21   S    
C23   C24   S    
O1    Zn1   S    
C9    C10   S    
C12   O13   S    
C19   O8    A    
O17   H15   S    
C25   H6    S    
N4    H18   S    
O16   H14   S    
C21   C22   S    
C2    C17   S    
O7    Zn1   S    
N12   H36   S    
O8    Zn2   S    
C2    C21   S    
N13   H39   S    
O4    Zn2   S    
N13   H38   S    
C20   H3    S    
N9    H31   S    
C7    O20   S    
C2    C20   S    
O12   H10   S    
C6    N13   S    
C11   N1    S    
N6    H24   S    
C4    N7    S    
C4    C6    S    
C3    C8    S    
N11   H34   S    
N7    H27   S    
O5    Zn1   S    
C4    N9    S    
C25   C26   S    
N9    H30   S    
N3    H16   S    
O3    Zn1   S    
C19   C23   S    
C18   O5    A    
C13   N1    S    
N11   H35   S    
O10   H8    S    
C11   H1    S    
C3    N8    S    
C2    C26   S    
C17   O3    A    
N12   H37   S    
C3    N6    S    
C20   C22   S    
N8    H28   S    
N8    H29   S    
O2    Zn2   S    
C16   N4    S    
C16   O17   S    
C12   N2    S    
C1    O1    A    
C14   O15   S    
C21   C25   S    
N1    Zn2   S    
C15   O16   S    
N2    Zn1   S    
C24   C26   S    
N10   H33   S    
C3    C5    S    
C14   N2    S    
C11   C12   S    
O13   H11   S    
C21   H4    S    
C24   H5    S    
O19   H21   S    
O15   H13   S    
C13   O18   S    
C15   C16   S    
O20   H40   S    
C17   O4    A    
C23   C25   S    
O18   H20   S    
C11   O12   S    
N7    H26   S    
C9    C18   S    
O6    Zn2   S    
C22   O9    S    
N10   H32   S    
O11   H9    S    
C10   O10   S    
C15   N3    S    
C22   C23   S    
C13   C14   S    
C10   O11   S    
C15   N1    S    
C19   O7    A    
C1    O2    A    
C13   O14   S    
