data_mof_unit_37641.cif
_audit_creation_date              2012-12-10T17:00:46-0500
_audit_creation_method            fapswitch 2.2
_symmetry_space_group_name_H-M    P1
_symmetry_Int_Tables_number       1
_space_group_crystal_system       triclinic
_cell_length_a                    10.580029
_cell_length_b                    10.624606
_cell_length_c                    10.088342
_cell_angle_alpha                 91.189663
_cell_angle_beta                  102.744661
_cell_angle_gamma                 89.666302
_cell_volume                      1105.8385741

loop_
_atom_site_label
_atom_site_type_symbol
_atom_type_description
_atom_site_fract_x
_atom_site_fract_y
_atom_site_fract_z
_atom_type_partial_charge
C1    C     C_R   0.499912 0.262448 0.498120 0.902886
C2    C     C_2   0.117429 0.520840 0.416663 -0.165583
C3    C     C_2   0.064740 0.599157 0.499096 0.058800
C4    C     C_2   0.882226 0.515135 0.585104 -0.166132
C5    C     C_2   0.928856 0.591036 0.501911 -0.213827
C6    C     C_2   0.396261 0.933147 0.392950 0.025620
C7    C     C_2   0.485718 0.374443 0.889861 0.577174
C8    C     C_2   0.686759 0.639879 0.175848 0.475797
C9    C     C_2   0.136919 0.698117 0.590989 0.500394
C10   C     C_2   0.962556 0.442718 0.698143 0.404635
C11   C     C_2   0.040726 0.437484 0.307439 0.402330
C12   C     C_2   0.460553 0.868764 0.500838 -0.302911
C13   C     C_2   0.335126 0.875016 0.258834 0.590328
C14   C     C_2   0.267030 0.139297 0.347970 0.444466
C15   C     C_2   0.388287 0.070323 0.410508 -0.079562
C16   C     C_2   0.492155 0.129234 0.488165 -0.382850
C17   C     C_2   0.560022 0.582105 0.942182 -0.169030
C18   C     C_2   0.577737 0.568823 0.092974 0.085758
C19   C     C_R   0.257899 0.505800 0.444417 0.867053
C20   C     C_R   0.491174 0.737466 0.499549 1.010073
C21   C     C_R   0.742240 0.501313 0.556055 0.833000
H1    H     H_    0.416413 0.470745 0.085493 0.160095
H2    H     H_    0.332258 0.927245 0.166897 0.052149
H3    H     H_    0.262094 0.240806 0.356093 0.035256
H4    H     H_    0.599937 0.665308 0.906016 0.152813
H5    H     H_    0.486648 0.914634 0.600529 0.150598
H6    H     H_    0.580340 0.079640 0.534628 0.151757
H7    H     H_    0.863816 0.645801 0.426439 0.199074
H8    H     H_    0.398604 0.323497 0.841655 0.063401
H9    H     H_    0.784394 0.619400 0.164692 0.091685
H10   H     H_    0.102481 0.729233 0.679995 0.075368
H11   H     H_    0.915279 0.379784 0.755385 0.091174
H12   H     H_    0.090899 0.379923 0.245234 0.086522
N1    N     N_2   0.501330 0.501330 0.852460 -0.157530
N2    N     N_2   0.501370 0.501360 0.148130 -0.169435
O1    O     O_R   0.499980 0.319060 0.613030 -0.621427
O2    O     O_2   0.668191 0.729787 0.246048 -0.583523
O3    O     O_2   0.229593 0.751188 0.564317 -0.575115
O4    O     O_2   0.080382 0.452099 0.729255 -0.585761
O5    O     O_2   0.922769 0.431238 0.284890 -0.551000
O6    O     O_2   0.280120 0.773519 0.250299 -0.546157
O7    O     O_2   0.169786 0.082840 0.289540 -0.555646
O8    O     O_R   0.500020 0.319100 0.386910 -0.599394
O9    O     O_R   0.317800 0.500000 0.570840 -0.577122
O10   O     O_R   0.317840 0.500040 0.344720 -0.611794
O11   O     O_R   0.499980 0.680900 0.613090 -0.607167
O12   O     O_R   0.500020 0.680940 0.386970 -0.540834
O13   O     O_R   0.682160 0.499960 0.655280 -0.625277
O14   O     O_R   0.682200 0.500000 0.429160 -0.558063
O15   O     O_2   0.572680 0.319057 0.967005 -0.576924
Zn1   Zn    Zn3+2 0.499970 0.499970 0.650990 0.993052
Zn2   Zn    Zn3+2 0.500030 0.500030 0.349010 1.040810

loop_
_geom_bond_atom_site_label_1
_geom_bond_atom_site_label_2
_ccdc_geom_bond_type
C19   O10   A    
O12   Zn2   S    
C3    C9    S    
C5    H7    S    
C18   N2    D    
C14   O7    D    
O14   Zn2   S    
C8    H9    S    
C12   C20   S    
C16   H6    S    
C13   O6    D    
C2    C3    D    
C2    C19   S    
C17   H4    S    
C1    C16   S    
C6    C13   S    
C4    C21   S    
C7    O15   D    
N1    Zn1   S    
O1    Zn1   S    
C7    H8    S    
C2    C11   S    
O9    Zn1   S    
C21   O14   A    
C9    O3    D    
C17   C18   S    
C6    C12   D    
C11   O5    D    
C7    N1    S    
C20   O11   A    
O8    Zn2   S    
C20   O12   A    
H1    N2    S    
C17   N1    D    
C9    H10   S    
C4    C10   S    
C15   C16   D    
C21   O13   A    
C10   H11   S    
C11   H12   S    
C19   O9    A    
C13   H2    S    
C8    O2    D    
C14   H3    S    
N2    Zn2   S    
C14   C15   S    
C10   O4    D    
O10   Zn2   S    
C6    C15   S    
O11   Zn1   S    
C1    O8    A    
O13   Zn1   S    
C8    C18   S    
C1    O1    A    
C12   H5    S    
C4    C5    D    
C3    C5    S    
