data_mof_unit_60816.cif
_audit_creation_date              2012-12-10T16:56:26-0500
_audit_creation_method            fapswitch 2.2
_symmetry_space_group_name_H-M    P1
_symmetry_Int_Tables_number       1
_space_group_crystal_system       triclinic
_cell_length_a                    18.856022
_cell_length_b                    18.709838
_cell_length_c                    18.903181
_cell_angle_alpha                 109.264897
_cell_angle_beta                  110.41813
_cell_angle_gamma                 109.205931
_cell_volume                      5102.8501473

loop_
_atom_site_label
_atom_site_type_symbol
_atom_type_description
_atom_site_fract_x
_atom_site_fract_y
_atom_site_fract_z
_atom_type_partial_charge
C1    C     C_R   0.615965 0.620066 0.497656 0.842498
C2    C     C_2   0.816698 0.481355 0.805770 -0.235042
C3    C     C_2   0.755712 0.494356 0.678889 -0.245953
C4    C     C_R   0.379867 0.499505 0.379604 0.849193
C5    C     C_2   0.699958 0.518387 0.692999 0.227064
C6    C     C_2   0.266158 0.181570 0.513769 -0.060035
C7    C     C_2   0.183971 0.168445 0.483648 -0.433628
C8    C     C_2   0.326297 0.241476 0.500515 0.393114
C9    C     C_2   0.325498 0.315711 0.510925 -0.457336
C10   C     C_R   0.007112 0.619183 0.126052 0.932063
C11   C     C_R   0.127082 0.499451 0.126385 0.863853
C12   C     C_3   0.178852 0.420819 0.206950 -0.196189
C13   C     C_R   0.004048 0.380035 0.885626 0.928428
C14   C     C_R   0.886010 0.495229 0.882243 0.936436
C15   C     C_R   0.003956 0.123969 0.617594 1.012810
C16   C     C_R   0.383456 0.380644 0.502308 0.987432
C17   C     C_R   0.881402 0.876854 0.495953 0.943349
C18   C     C_R   0.003533 0.883442 0.382063 0.901150
C19   C     C_R   0.119160 0.115035 0.496216 0.937795
C20   C     C_2   0.080501 0.817952 0.330798 -0.163563
C21   C     C_2   0.009394 0.825886 0.314451 -0.314186
C22   C     C_2   0.082457 0.758077 0.259518 -0.154478
C23   C     C_3   0.226167 0.485431 0.305350 0.044242
C24   C     C_2   0.008943 0.683303 0.195363 -0.314536
C25   C     C_2   0.984367 0.251853 0.670352 0.432950
C26   C     C_2   0.019490 0.202595 0.684724 -0.414132
C27   C     C_2   0.999723 0.324052 0.746233 0.244261
C28   C     C_R   0.623739 0.503787 0.621715 0.879072
C29   C     C_2   0.988363 0.310523 0.808529 0.051161
C30   C     C_3   0.327378 0.576389 0.297411 -0.157486
C31   C     C_3   0.239208 0.563591 0.290048 -0.198725
C32   C     C_3   0.193581 0.499061 0.192384 0.014647
C33   C     C_3   0.280411 0.512059 0.198416 -0.146567
C34   C     C_3   0.313009 0.498367 0.312308 -0.018714
C35   C     C_3   0.267104 0.434061 0.214429 -0.185143
C36   C     C_R   0.299555 0.139209 0.560114 0.217804
C37   C     C_R   0.271589 0.049854 0.514413 -0.066708
C38   C     C_R   0.305359 0.010940 0.558250 -0.138421
C39   C     C_R   0.367173 0.061016 0.647628 -0.101291
C40   C     C_R   0.395769 0.150216 0.693258 -0.130102
C41   C     C_R   0.362443 0.189424 0.649615 -0.116039
C42   C     C_R   0.197040 0.467050 0.365132 0.121093
C43   C     C_R   0.182999 0.526299 0.419026 -0.132240
C44   C     C_R   0.155603 0.507953 0.473962 -0.124069
C45   C     C_2   0.738433 0.745768 0.418442 -0.112900
C46   C     C_R   0.141711 0.430367 0.475185 -0.076463
C47   C     C_R   0.155403 0.371109 0.421614 -0.128766
C48   C     C_R   0.183430 0.389479 0.367098 -0.160461
C49   C     C_2   0.818920 0.800739 0.488017 -0.237870
C50   C     C_2   0.678656 0.674561 0.420990 -0.275228
C51   C     C_2   0.670895 0.690414 0.491798 0.236532
C52   C     C_2   0.830331 0.506101 0.750929 -0.069352
Cl1   Cl    Cl    0.712598 0.798641 0.574766 -0.537474
Cl2   Cl    Cl    0.723960 0.584399 0.800111 -0.573830
Cl3   Cl    Cl    0.402362 0.216602 0.479783 -0.568209
Cl4   Cl    Cl    0.922456 0.235854 0.565823 -0.502927
Cl5   Cl    Cl    0.028914 0.425501 0.749055 -0.562328
Cl6   Cl    Cl    0.934851 0.203381 0.792130 -0.560014
H1    H     H_    0.225920 0.616627 0.317579 0.125673
H2    H     H_    0.144474 0.772605 0.262427 0.168099
H3    H     H_    0.949499 0.663946 0.198376 0.160274
H4    H     H_    0.063982 0.222166 0.751488 0.159861
H5    H     H_    0.300629 0.523004 0.152622 0.152862
H6    H     H_    0.280059 0.381309 0.185168 0.166797
H7    H     H_    0.116505 0.357514 0.168560 0.165868
H8    H     H_    0.717466 0.751925 0.360523 0.169185
H9    H     H_    0.841181 0.787382 0.541068 0.186690
H10   H     H_    0.641512 0.608916 0.364891 0.154915
H11   H     H_    0.224344 0.010981 0.445035 0.122887
H12   H     H_    0.894409 0.532651 0.757622 0.194297
H13   H     H_    0.284113 0.942129 0.523030 0.126018
H14   H     H_    0.393225 0.030794 0.681427 0.141665
H15   H     H_    0.443965 0.189027 0.762368 0.144460
H16   H     H_    0.385343 0.258693 0.685429 0.135610
H17   H     H_    0.193302 0.586664 0.418985 0.122795
H18   H     H_    0.144957 0.553828 0.515467 0.145943
H19   H     H_    0.120200 0.416094 0.517497 0.160753
H20   H     H_    0.144044 0.310833 0.422150 0.131341
H21   H     H_    0.194140 0.343138 0.326143 0.127533
H22   H     H_    0.750345 0.446078 0.791980 0.188383
H23   H     H_    0.746685 0.465980 0.614018 0.169829
H24   H     H_    0.161685 0.196022 0.444098 0.154391
H25   H     H_    0.285326 0.333300 0.534434 0.136550
H26   H     H_    0.137649 0.856174 0.395891 0.158141
H27   H     H_    0.389909 0.639534 0.336075 0.154187
H28   H     H_    0.955649 0.793745 0.247893 0.169798
O1    O     O_R   0.591160 0.539400 0.449620 -0.648999
O2    O     O_R   0.050520 0.090460 0.641000 -0.622355
O3    O     O_R   0.857760 0.909540 0.448230 -0.606070
O4    O     O_R   0.589730 0.641530 0.550350 -0.562467
O5    O     O_R   0.961340 0.909540 0.551790 -0.617826
O6    O     O_R   0.949480 0.909540 0.359000 -0.626447
O7    O     O_R   0.053060 0.909550 0.462560 -0.626843
O8    O     O_R   0.038660 0.090460 0.448210 -0.611670
O9    O     O_R   0.142240 0.090460 0.551770 -0.624528
O10   O     O_R   0.408980 0.448930 0.357910 -0.635071
O11   O     O_R   0.407550 0.551060 0.458650 -0.619158
O12   O     O_R   0.056790 0.641480 0.096140 -0.609608
O13   O     O_R   0.410270 0.358470 0.449650 -0.559519
O14   O     O_R   0.408840 0.460600 0.550380 -0.623256
O15   O     O_R   0.592450 0.448940 0.541350 -0.619792
O16   O     O_R   0.591020 0.551070 0.642090 -0.565017
O17   O     O_R   0.954670 0.539370 0.096190 -0.623498
O18   O     O_R   0.047640 0.448900 0.098680 -0.624455
O19   O     O_R   0.149770 0.551010 0.098640 -0.630260
O20   O     O_R   0.957150 0.358410 0.917750 -0.573872
O21   O     O_R   0.059270 0.460520 0.917700 -0.593920
O22   O     O_R   0.864170 0.448890 0.915250 -0.622706
O23   O     O_R   0.966300 0.551000 0.915200 -0.595657
O24   O     O_R   0.946940 0.090450 0.537440 -0.549885
Zn1   Zn    Zn3+2 0.500950 0.431810 0.432740 1.021878
Zn2   Zn    Zn3+2 0.499050 0.568190 0.567260 1.060330
Zn3   Zn    Zn3+2 0.938780 0.431770 0.006970 1.023445
Zn4   Zn    Zn3+2 0.075160 0.568130 0.006910 1.032199
Zn5   Zn    Zn3+2 0.930840 0.000000 0.430850 1.047094
Zn6   Zn    Zn3+2 0.069160 0.000000 0.569150 0.986584

loop_
_geom_bond_atom_site_label_1
_geom_bond_atom_site_label_2
_ccdc_geom_bond_type
C1    O1    A    
C14   O23   A    
O3    Zn5   S    
C52   H12   S    
C24   H3    S    
C37   H11   S    
C27   C29   D    
C18   C21   S    
O16   Zn2   S    
C17   O5    A    
C25   Cl4   S    
O4    Zn2   S    
C13   O21   A    
O5    Zn6   S    
C12   C23   S    
C1    O4    A    
C23   C42   S    
C48   H21   S    
C13   C29   S    
C36   C37   A    
O17   Zn3   S    
C9    C16   S    
C22   H2    S    
C30   C31   S    
C3    C52   S    
O12   Zn4   S    
O1    Zn1   S    
C40   H15   S    
C44   H18   S    
C34   C35   S    
C46   C47   A    
C31   H1    S    
C10   O12   A    
C41   H16   S    
C4    O10   A    
C28   O15   A    
C47   C48   A    
C8    C9    D    
C3    H23   S    
C39   H14   S    
C35   H6    S    
C14   O22   A    
C4    O11   A    
C12   C32   S    
C15   O24   A    
C36   C41   A    
C8    Cl3   S    
C44   C46   A    
C43   H17   S    
O10   Zn1   S    
C4    C34   S    
C30   C34   S    
O20   Zn3   S    
C5    Cl2   S    
C17   O3    A    
C27   Cl5   S    
C17   C49   S    
C39   C40   A    
O11   Zn2   S    
C16   O14   A    
C15   C26   S    
C6    C8    S    
C10   C24   S    
C25   C26   D    
C51   Cl1   S    
O7    Zn6   S    
C23   C31   S    
O22   Zn3   S    
O2    Zn6   S    
C43   C44   A    
O21   Zn4   S    
C11   O19   A    
C37   C38   A    
C5    C28   S    
O19   Zn4   S    
C31   C32   S    
C45   C49   D    
O9    Zn6   S    
C33   H5    S    
C23   C34   S    
O13   Zn1   S    
C50   C51   D    
C42   C48   A    
C29   Cl6   S    
C30   H27   S    
C1    C51   S    
C11   O18   A    
C19   O8    A    
C2    C52   D    
O23   Zn4   S    
C9    H25   S    
C40   C41   A    
C20   C22   S    
C11   C32   S    
O14   Zn2   S    
C7    C19   S    
C20   H26   S    
C22   C24   D    
O15   Zn1   S    
C42   C43   A    
C19   O9    A    
C38   H13   S    
C10   O17   A    
C49   H9    S    
C30   C33   S    
C13   O20   A    
C3    C5    D    
C21   H28   S    
C46   H19   S    
O8    Zn5   S    
C16   O13   A    
C6    C7    D    
C25   C27   S    
C12   H7    S    
C18   O6    A    
C32   C33   S    
C26   H4    S    
C38   C39   A    
C45   C50   S    
C33   C35   S    
C6    C36   S    
C2    C14   S    
O6    Zn5   S    
C2    H22   S    
O18   Zn3   S    
C28   O16   A    
C7    H24   S    
C20   C21   D    
C45   H8    S    
C18   O7    A    
C47   H20   S    
C50   H10   S    
O24   Zn5   S    
C12   C35   S    
C15   O2    A    
