data_mof_unit_39754.cif
_audit_creation_date              2012-12-11T16:53:46-0500
_audit_creation_method            fapswitch 2.2
_symmetry_space_group_name_H-M    P1
_symmetry_Int_Tables_number       1
_space_group_crystal_system       triclinic
_cell_length_a                    14.8994
_cell_length_b                    14.752251
_cell_length_c                    17.108759
_cell_angle_alpha                 108.8606
_cell_angle_beta                  106.203527
_cell_angle_gamma                 108.308893
_cell_volume                      3060.29408212

loop_
_atom_site_label
_atom_site_type_symbol
_atom_type_description
_atom_site_fract_x
_atom_site_fract_y
_atom_site_fract_z
_atom_type_partial_charge
C1    C     C_R   0.086536 0.285979 0.077219 -0.141827
C2    C     C_R   0.065142 0.478823 0.251080 -0.119174
C3    C     C_R   0.280753 0.785231 0.177371 -0.033839
C4    C     C_R   0.936316 0.489209 0.737282 -0.136554
C5    C     C_R   0.699275 0.408012 0.998960 -0.118648
C6    C     C_R   0.336260 0.781084 0.256143 -0.018301
C7    C     C_R   0.639861 0.439170 0.945381 0.075328
C8    C     C_R   0.974338 0.415000 0.251090 0.062914
C9    C     C_R   0.993694 0.822138 0.984539 0.051730
C10   C     C_R   0.391770 0.456836 0.872502 0.160167
C11   C     C_R   0.348581 0.414865 0.923515 0.037507
C12   C     C_R   0.028583 0.521803 0.727613 0.050127
C13   C     C_R   0.378256 0.341654 0.945674 -0.191343
C14   C     C_R   0.468329 0.335878 0.940181 -0.202271
C15   C     C_R   0.527548 0.403153 0.912249 0.030594
C16   C     C_R   0.772813 0.200373 0.815193 -0.135208
C17   C     C_R   0.479883 0.450173 0.866289 0.167292
C18   C     C_3   0.522876 0.557980 0.868878 -0.525841
C19   C     C_3   0.427299 0.566010 0.876429 -0.520088
C20   C     C_R   0.968197 0.375827 0.318511 0.124299
C21   C     C_R   0.038636 0.487214 0.641892 0.139974
C22   C     C_R   0.145404 0.488752 0.558373 -0.223962
C23   C     C_R   0.750848 0.191399 0.728521 0.062357
C24   C     C_R   0.137217 0.521827 0.640570 -0.178048
C25   C     C_R   0.949399 0.412201 0.561058 -0.279986
C26   C     C_R   0.956350 0.383208 0.478424 0.185959
C27   C     C_R   0.054812 0.424406 0.477077 0.191623
C28   C     C_R   0.258401 0.532637 0.949403 -0.080587
C29   C     C_R   0.060038 0.413110 0.395337 -0.278975
C30   C     C_R   0.871057 0.321572 0.316928 -0.164731
C31   C     C_R   0.865463 0.323192 0.396979 -0.224584
C32   C     C_R   0.703634 0.091558 0.645469 0.130998
C33   C     C_R   0.444825 0.849271 0.326524 0.126173
C34   C     C_R   0.288303 0.458192 0.964398 0.041317
C35   C     C_R   0.609380 0.009031 0.398160 -0.227633
C36   C     C_R   0.519139 0.930415 0.320435 -0.131484
C37   C     C_R   0.472313 0.836348 0.406201 -0.270464
C38   C     C_R   0.561903 0.912939 0.483106 0.185836
C39   C     C_R   0.626848 0.004464 0.481195 0.183922
C40   C     C_R   0.774073 0.293328 0.735073 -0.125396
C41   C     C_R   0.699926 0.093440 0.563221 -0.275864
C42   C     C_R   0.649840 0.994781 0.645914 -0.170393
C43   C     C_R   0.579537 0.905281 0.564652 -0.225207
C44   C     C_R   0.081103 0.140105 0.168142 0.142777
C45   C     C_R   0.271657 0.687386 0.252289 -0.129473
C46   C     C_R   0.994594 0.118332 0.092783 0.040472
C47   C     C_R   0.900184 0.028523 0.064510 -0.204031
C48   C     C_R   0.897337 0.958028 0.104181 -0.179746
C49   C     C_R   0.988430 0.975193 0.171957 0.032720
C50   C     C_R   0.077530 0.070605 0.207168 0.137422
C51   C     C_3   0.186850 0.088773 0.225099 -0.420970
C52   C     C_R   0.253321 0.436793 0.026771 -0.129313
C53   C     C_3   0.191081 0.163952 0.181408 -0.523385
C54   C     C_R   0.109278 0.575130 0.813900 -0.122867
C55   C     C_R   0.914607 0.201500 0.000497 -0.134558
C56   C     C_R   0.704517 0.500470 0.919115 -0.151518
C57   C     C_R   0.999629 0.192406 0.050592 0.066438
C58   C     C_2   0.321594 0.856301 0.139434 0.898805
C59   C     C_R   0.891975 0.393894 0.174617 -0.127951
C60   C     C_R   0.081244 0.807110 0.019388 -0.123635
C61   C     C_R   0.909298 0.722022 0.944273 -0.123113
H1    H     H_    0.162995 0.315258 0.130110 0.096185
H2    H     H_    0.595368 0.618305 0.931316 0.201668
H3    H     H_    0.858605 0.459760 0.686661 0.088441
H4    H     H_    0.525901 0.553051 0.803501 0.191206
H5    H     H_    0.447275 0.630678 0.943464 0.208431
H6    H     H_    0.375663 0.566737 0.815732 0.189826
H7    H     H_    0.135941 0.448694 0.396211 0.114304
H8    H     H_    0.798952 0.286850 0.256963 0.117400
H9    H     H_    0.221521 0.519956 0.558042 0.125044
H10   H     H_    0.789586 0.288479 0.396904 0.127521
H11   H     H_    0.207962 0.576057 0.702228 0.110910
H12   H     H_    0.681303 0.522180 0.864912 0.102498
H13   H     H_    0.873300 0.380346 0.560951 0.114451
H14   H     H_    0.745535 0.166556 0.562685 0.120679
H15   H     H_    0.764038 0.137688 0.835973 0.093866
H16   H     H_    0.653780 0.989702 0.708288 0.114536
H17   H     H_    0.661625 0.076230 0.394502 0.131983
H18   H     H_    0.531887 0.833852 0.566313 0.124977
H19   H     H_    0.507940 0.936261 0.257732 0.151006
H20   H     H_    0.419518 0.773391 0.413399 0.118205
H21   H     H_    0.829554 0.009482 0.009177 0.124045
H22   H     H_    0.825927 0.886548 0.078331 0.131250
H23   H     H_    0.811392 0.336701 0.147314 0.086047
H24   H     H_    0.238801 0.130586 0.299252 0.193230
H25   H     H_    0.192080 0.015900 0.185490 0.212703
H26   H     H_    0.246699 0.248623 0.230538 0.188732
H27   H     H_    0.272936 0.567387 0.905969 0.106389
H28   H     H_    0.197974 0.134269 0.115798 0.202894
H29   H     H_    0.759437 0.313449 0.679256 0.090383
H30   H     H_    0.262827 0.382500 0.054446 0.098083
H31   H     H_    0.189630 0.625604 0.832844 0.101013
H32   H     H_    0.834040 0.153919 0.984107 0.084995
H33   H     H_    0.292421 0.646858 0.291568 0.094760
H34   H     H_    0.160330 0.866986 0.047759 0.129084
H35   H     H_    0.345228 0.868802 0.032162 0.314763
H36   H     H_    0.829011 0.701562 0.904797 0.095170
H37   H     H_    0.144597 0.500512 0.293644 0.082676
H38   H     H_    0.671696 0.348017 0.020968 0.086000
H39   H     H_    0.341348 0.299948 0.978188 0.128641
H40   H     H_    0.497620 0.290200 0.969065 0.127345
N1    N     N_R   0.055640 0.348550 0.045600 -0.039173
N2    N     N_R   0.811290 0.303400 0.871650 -0.040649
N3    N     N_R   0.205180 0.552990 0.997660 -0.029265
N4    N     N_R   0.814810 0.361830 0.823710 -0.040819
N5    N     N_R   0.201660 0.494570 0.045600 -0.045707
N6    N     N_R   0.068420 0.560530 0.871650 -0.031402
N7    N     N_R   0.948050 0.295860 0.997660 -0.038507
N8    N     N_R   0.185190 0.638170 0.176290 -0.049937
N9    N     N_R   0.798340 0.505430 0.954400 -0.040743
N10   N     N_R   0.931580 0.439470 0.128350 -0.039848
N11   N     N_R   0.051950 0.704140 0.002340 -0.039102
N12   N     N_R   0.944360 0.651450 0.954400 -0.044156
N13   N     N_R   0.039170 0.492150 0.176290 -0.039911
N14   N     N_R   0.188710 0.696600 0.128350 -0.064512
N15   N     N_R   0.794820 0.447010 0.002340 -0.041401
N16   N     N_R   0.960830 0.507850 0.823710 -0.040618
Ni1   Ni    Ni4+2 0.119330 0.493420 0.109950 0.203788
Ni2   Ni    Ni4+2 0.880670 0.506580 0.890050 0.208947
Ni3   Ni    Ni4+2 0.872590 0.372590 0.000000 0.205212
Ni4   Ni    Ni4+2 0.127410 0.627410 0.000000 0.261543
O1    O     O_2   0.355259 0.952995 0.182700 -0.669731
O2    O     O_R   0.316680 0.812292 0.051831 -0.821136

loop_
_geom_bond_atom_site_label_1
_geom_bond_atom_site_label_2
_ccdc_geom_bond_type
N14   Ni4   S    
C6    C45   A    
C27   C29   A    
C11   C13   A    
N7    Ni3   S    
N2    Ni3   S    
C55   H32   S    
C3    C6    A    
C1    H1    S    
C51   H24   S    
N3    N5    A    
C39   C41   A    
C20   C30   A    
C18   H4    S    
C58   O2    S    
C8    C20   S    
C54   N6    A    
C9    C61   A    
C18   C19   S    
N16   Ni2   S    
C8    C59   A    
C30   C31   A    
C45   N8    A    
C18   H2    S    
C10   C17   A    
C43   H18   S    
C23   C40   A    
C33   C36   A    
C19   H5    S    
C25   H13   S    
C47   H21   S    
N12   Ni2   S    
C44   C53   S    
C5    H38   S    
C28   H27   S    
C59   N10   A    
C32   C41   A    
N1    N7    A    
C4    C12   A    
N1    Ni1   S    
C31   H10   S    
C28   C34   A    
C26   C31   A    
C13   C14   A    
N5    Ni1   S    
C37   H20   S    
C7    C56   A    
C45   H33   S    
C51   H25   S    
C56   N9    A    
N11   N12   A    
C44   C46   A    
N8    Ni1   S    
C50   C51   S    
C20   C29   A    
C61   H36   S    
C58   O1    D    
C59   H23   S    
N2    N4    A    
C36   H19   S    
C5    C7    A    
C14   H40   S    
N3    Ni4   S    
C25   C26   A    
C12   C21   S    
C33   C37   A    
N15   Ni3   S    
N10   Ni3   S    
C51   C53   S    
C35   C36   A    
C35   C39   A    
C3    C58   S    
C54   H31   S    
C37   C38   A    
C60   N11   A    
C1    C57   A    
C41   H14   S    
C29   H7    S    
C28   N3    A    
C16   N2    A    
C47   C48   A    
C10   C19   S    
C17   C18   S    
C26   C27   A    
C53   H26   S    
C19   H6    S    
N13   Ni1   S    
C48   C49   A    
C16   C23   A    
C22   C27   A    
C55   C57   A    
C46   C57   S    
C53   H28   S    
C22   C24   A    
C4    N16   A    
C42   C43   A    
N6    Ni4   S    
N9    N15   A    
C30   H8    S    
C24   H11   S    
C44   C50   A    
C15   C17   A    
C21   C25   A    
C46   C47   A    
C56   H12   S    
H35   O2    S    
C16   H15   S    
C11   C34   S    
C2    C8    A    
N9    Ni2   S    
C48   H22   S    
C4    H3    S    
C35   H17   S    
C34   C52   A    
C6    C33   S    
C55   N7    A    
C9    C60   A    
C23   C32   S    
C13   H39   S    
C38   C43   A    
C5    N15   A    
C3    N14   A    
C61   N12   A    
C2    N13   A    
C38   C39   A    
C7    C15   S    
N6    N16   A    
N10   N13   A    
C10   C11   A    
N8    N14   A    
C52   N5    A    
C60   H34   S    
N11   Ni4   S    
C2    H37   S    
C42   H16   S    
C49   C50   A    
C21   C24   A    
C32   C42   A    
C14   C15   A    
N4    Ni2   S    
C52   H30   S    
C40   H29   S    
C1    N1    A    
C22   H9    S    
C12   C54   A    
C40   N4    A    
