data_mof_unit_5935.cif
_audit_creation_date              2012-12-10T21:07:38-0500
_audit_creation_method            fapswitch 2.2
_symmetry_space_group_name_H-M    P1
_symmetry_Int_Tables_number       1
_space_group_crystal_system       triclinic
_cell_length_a                    8.797178
_cell_length_b                    17.494059
_cell_length_c                    16.841789
_cell_angle_alpha                 93.058985
_cell_angle_beta                  98.27402
_cell_angle_gamma                 89.592446
_cell_volume                      2561.28945267

loop_
_atom_site_label
_atom_site_type_symbol
_atom_type_description
_atom_site_fract_x
_atom_site_fract_y
_atom_site_fract_z
_atom_type_partial_charge
C1    C     C_R   0.506718 0.353432 0.498561 0.954053
C2    C     C_R   0.444628 0.439462 0.239793 0.552987
C3    C     C_R   0.544687 0.558098 0.843005 -0.339181
C4    C     C_R   0.456993 0.440586 0.157664 -0.325535
C5    C     C_R   0.494321 0.493474 0.875548 0.016658
C6    C     C_R   0.506539 0.505075 0.124412 0.028851
C7    C     C_1   0.497473 0.496177 0.963390 -0.018770
C8    C     C_1   0.501897 0.501644 0.036466 -0.016366
C9    C     C_R   0.201712 0.501095 0.479734 0.996228
C10   C     C_R   0.798070 0.502810 0.520701 0.981505
C11   C     C_2   0.038999 0.508046 0.468931 -0.192835
C12   C     C_R   0.499290 0.646715 0.501744 0.965529
C13   C     C_2   0.961096 0.505862 0.533111 -0.208425
C14   C     C_R   0.424648 0.856970 0.533198 -0.214101
C15   C     C_R   0.659682 0.154192 0.469102 -0.243045
C16   C     C_R   0.398835 0.778593 0.528426 0.485186
C17   C     C_R   0.646312 0.233253 0.464784 0.445016
C18   C     C_R   0.515419 0.729113 0.506722 -0.156496
C19   C     C_R   0.522420 0.270889 0.495868 -0.119013
C20   C     C_R   0.653088 0.759066 0.488467 -0.264507
C21   C     C_R   0.416573 0.229159 0.530826 -0.249859
C22   C     C_R   0.675636 0.837720 0.491871 -0.117208
C23   C     C_1   0.573642 0.966099 0.512050 -0.021884
C24   C     C_R   0.432378 0.150585 0.535087 -0.145586
C25   C     C_R   0.561049 0.886000 0.514409 0.063101
C26   C     C_R   0.554379 0.113792 0.504682 0.082228
C27   C     C_R   0.970243 0.518218 0.383864 0.109529
C28   C     C_R   0.951816 0.592025 0.354986 -0.130107
C29   C     C_R   0.926989 0.601712 0.272254 -0.158929
C30   C     C_R   0.918191 0.537817 0.218233 -0.142289
C31   C     C_R   0.928289 0.464258 0.246620 -0.088441
C32   C     C_R   0.955391 0.454530 0.329125 0.047606
C33   C     C_R   0.030964 0.506037 0.619631 0.147652
C34   C     C_1   0.569833 0.033782 0.509078 -0.020729
C35   C     C_R   0.072646 0.575724 0.661929 0.001303
C36   C     C_R   0.114097 0.578755 0.745265 -0.074764
C37   C     C_R   0.110224 0.512377 0.787342 -0.117866
C38   C     C_R   0.069110 0.442560 0.745837 -0.171885
C39   C     C_R   0.031084 0.439137 0.662274 -0.111515
C40   C     C_R   0.400471 0.356188 0.852315 0.131005
C41   C     C_R   0.458709 0.286426 0.823873 -0.165641
C42   C     C_R   0.414716 0.217074 0.851379 -0.125085
C43   C     C_R   0.312133 0.216521 0.907395 -0.096934
C44   C     C_R   0.252843 0.285307 0.935773 -0.142897
C45   C     C_R   0.448140 0.429566 0.822471 -0.046810
C46   C     C_R   0.296156 0.354776 0.908300 -0.158824
C47   C     C_R   0.586670 0.645208 0.146120 0.127401
C48   C     C_R   0.680092 0.650355 0.085271 -0.165196
C49   C     C_R   0.713467 0.721468 0.057809 -0.122832
C50   C     C_R   0.654698 0.788354 0.090698 -0.092361
C51   C     C_R   0.562216 0.784256 0.151088 -0.123436
C52   C     C_R   0.528186 0.713271 0.178648 -0.164010
C53   C     C_R   0.549436 0.570074 0.176756 -0.045788
C54   C     C_R   0.449302 0.435569 0.738323 -0.122645
C55   C     C_R   0.550847 0.564077 0.261196 -0.116340
C56   C     C_R   0.552932 0.560742 0.760452 0.564947
H1    H     H_    0.336042 0.895877 0.549184 0.155613
H2    H     H_    0.419923 0.391409 0.117861 0.184830
H3    H     H_    0.963715 0.641938 0.396132 0.192657
H4    H     H_    0.917306 0.658714 0.250017 0.160282
H5    H     H_    0.904136 0.545027 0.154369 0.138671
H6    H     H_    0.920885 0.414874 0.204716 0.186780
H7    H     H_    0.974546 0.397653 0.350440 0.227771
H8    H     H_    0.064372 0.628126 0.630881 0.209663
H9    H     H_    0.144605 0.632944 0.777439 0.170539
H10   H     H_    0.138767 0.515165 0.852079 0.135763
H11   H     H_    0.065056 0.391141 0.778384 0.148887
H12   H     H_    0.753644 0.123891 0.446411 0.178649
H13   H     H_    0.996275 0.384982 0.631477 0.172774
H14   H     H_    0.065236 0.846347 0.540063 0.355945
H15   H     H_    0.996113 0.209950 0.449589 0.353161
H16   H     H_    0.539489 0.285661 0.780993 0.132127
H17   H     H_    0.460507 0.163725 0.829359 0.139341
H18   H     H_    0.278309 0.162780 0.928668 0.138031
H19   H     H_    0.172688 0.284817 0.978854 0.150243
H20   H     H_    0.246113 0.407103 0.929946 0.131261
H21   H     H_    0.729277 0.599861 0.059316 0.131020
H22   H     H_    0.785426 0.724684 0.011083 0.163929
H23   H     H_    0.742598 0.721415 0.471257 0.176699
H24   H     H_    0.680810 0.843360 0.069380 0.142316
H25   H     H_    0.516385 0.836130 0.176452 0.145205
H26   H     H_    0.454576 0.711551 0.224829 0.137782
H27   H     H_    0.784115 0.682356 0.651510 0.371711
H28   H     H_    0.262960 0.285826 0.158473 0.364343
H29   H     H_    0.322432 0.257646 0.555360 0.160726
H30   H     H_    0.780351 0.860835 0.475922 0.175134
H31   H     H_    0.350262 0.118606 0.562382 0.145408
H32   H     H_    0.407708 0.387946 0.697723 0.163594
H33   H     H_    0.591620 0.611988 0.301576 0.163924
H34   H     H_    0.580820 0.606963 0.883414 0.203965
N1    N     N_R   0.500040 0.500030 0.707230 -0.149052
N2    N     N_R   0.499960 0.499970 0.292770 -0.149021
O1    O     O_R   0.500000 0.389130 0.566570 -0.669470
O2    O     O_2   0.209378 0.752508 0.633986 -0.302013
O3    O     O_3   0.080413 0.805087 0.499351 -0.588467
O4    O     O_2   0.731225 0.327660 0.358397 -0.243734
O5    O     O_2   0.871696 0.336412 0.494348 -0.428502
O6    O     O_3   0.927501 0.221188 0.399591 -0.521689
O7    O     O_2   0.505499 0.698507 0.700466 -0.264858
O8    O     O_2   0.723554 0.686747 0.805641 -0.336551
O9    O     O_3   0.753617 0.630765 0.665043 -0.564405
O10   O     O_2   0.451515 0.293873 0.284934 -0.266873
O11   O     O_2   0.254043 0.375038 0.333092 -0.280738
O12   O     O_R   0.500000 0.610870 0.433430 -0.665566
O13   O     O_3   0.214685 0.329924 0.184563 -0.586842
O14   O     O_R   0.499990 0.389100 0.433480 -0.507830
O15   O     O_R   0.500010 0.610900 0.566520 -0.517350
O16   O     O_R   0.271750 0.500010 0.550980 -0.626928
O17   O     O_R   0.728250 0.499990 0.449020 -0.617357
O18   O     O_R   0.271740 0.499980 0.417890 -0.587025
O19   O     O_R   0.728260 0.500020 0.582110 -0.580540
O20   O     O_2   0.184753 0.667246 0.512618 -0.382398
S1    S     S_3+6 0.216246 0.747743 0.545212 -0.018285
S2    S     S_3+6 0.795355 0.282493 0.428737 0.003346
S3    S     S_3+6 0.633494 0.646535 0.732830 0.036141
S4    S     S_3+6 0.342474 0.358705 0.264767 0.049349
Zn1   Zn    Zn3+2 0.500010 0.500020 0.588860 1.038834
Zn2   Zn    Zn3+2 0.499990 0.499980 0.411140 1.056428

loop_
_geom_bond_atom_site_label_1
_geom_bond_atom_site_label_2
_ccdc_geom_bond_type
C41   C42   A    
O13   S4    S    
C2    C4    A    
C35   C36   A    
C16   S1    S    
O18   Zn2   S    
C46   H20   S    
C7    C8    T    
C9    O16   A    
C40   C46   A    
C29   C30   A    
C3    H34   S    
C36   C37   A    
C19   C21   A    
C24   C26   A    
C12   O12   A    
O7    S3    D    
C30   C31   A    
O6    S2    S    
C49   H22   S    
C10   O17   A    
N2    Zn2   S    
C17   C19   A    
C2    S4    S    
C26   C34   S    
C56   N1    A    
C47   C48   A    
C22   C25   A    
C17   S2    S    
N1    Zn1   S    
C35   H8    S    
C51   H25   S    
C1    O14   A    
C47   C53   S    
C43   H18   S    
C23   C25   S    
O14   Zn2   S    
C31   H6    S    
O4    S2    D    
O8    S3    D    
O1    Zn1   S    
O20   S1    D    
O2    S1    D    
C44   C46   A    
O17   Zn2   S    
H28   O13   S    
O12   Zn2   S    
C53   C55   A    
C40   C45   S    
H15   O6    S    
C21   H29   S    
C1    C19   S    
C51   C52   A    
C4    C6    A    
C5    C7    S    
C36   H9    S    
C15   C26   A    
C6    C8    S    
C5    C45   A    
C48   H21   S    
C44   H19   S    
C52   H26   S    
C43   C44   A    
C13   C33   S    
C37   C38   A    
C3    C56   A    
C31   C32   A    
C29   H4    S    
C11   C27   S    
C23   C34   T    
C37   H10   S    
C50   C51   A    
C39   H13   S    
C10   O19   A    
C33   C39   A    
C2    N2    A    
C9    C11   S    
C41   H16   S    
C1    O1    A    
C40   C41   A    
C55   N2    A    
C20   C22   A    
C45   C54   A    
O9    S3    S    
C14   C16   A    
C21   C24   A    
C42   C43   A    
C6    C53   A    
C12   C18   S    
C28   H3    S    
C9    O18   A    
C15   C17   A    
C14   H1    S    
C28   C29   A    
C42   H17   S    
H27   O9    S    
C20   H23   S    
C27   C32   A    
O16   Zn1   S    
C32   H7    S    
C3    C5    A    
C10   C13   S    
C50   H24   S    
C12   O15   A    
C47   C52   A    
O19   Zn1   S    
H14   O3    S    
C54   N1    A    
C55   H33   S    
C54   H32   S    
C11   C13   D    
C38   C39   A    
O3    S1    S    
C48   C49   A    
C15   H12   S    
C33   C35   A    
C56   S3    S    
O11   S4    D    
C18   C20   A    
C22   H30   S    
C14   C25   A    
C24   H31   S    
O10   S4    D    
C38   H11   S    
C16   C18   A    
C49   C50   A    
C30   H5    S    
C4    H2    S    
C27   C28   A    
O5    S2    D    
O15   Zn1   S    
