data_mof_unit_60352.cif
_audit_creation_date              2012-12-10T20:10:41-0500
_audit_creation_method            fapswitch 2.2
_symmetry_space_group_name_H-M    P1
_symmetry_Int_Tables_number       1
_space_group_crystal_system       triclinic
_cell_length_a                    15.8892
_cell_length_b                    15.889196
_cell_length_c                    43.143718
_cell_angle_alpha                 90.000213
_cell_angle_beta                  90.000179
_cell_angle_gamma                 90.002242
_cell_volume                      10892.3483508

loop_
_atom_site_label
_atom_site_type_symbol
_atom_type_description
_atom_site_fract_x
_atom_site_fract_y
_atom_site_fract_z
_atom_type_partial_charge
Br1   Br    Br    0.361849 0.880253 0.137130 -0.479946
Br2   Br    Br    0.146278 0.388778 0.363771 -0.485122
Br3   Br    Br    0.610928 0.853481 0.636211 -0.485038
Br4   Br    Br    0.619696 0.138197 0.362877 -0.479903
Br5   Br    Br    0.138299 0.619583 0.637112 -0.479868
Br6   Br    Br    0.853725 0.611224 0.363771 -0.485123
Br7   Br    Br    0.389065 0.146512 0.636211 -0.485043
Br8   Br    Br    0.380303 0.861806 0.362876 -0.479902
Br9   Br    Br    0.646656 0.889240 0.863800 -0.484992
Br10  Br    Br    0.111155 0.353668 0.136224 -0.485096
Br11  Br    Br    0.119609 0.638275 0.862887 -0.479906
Br12  Br    Br    0.638148 0.119748 0.137130 -0.479944
Br13  Br    Br    0.353340 0.110755 0.863800 -0.484986
Br14  Br    Br    0.888842 0.646329 0.136225 -0.485097
Br15  Br    Br    0.880388 0.361727 0.862885 -0.479907
Br16  Br    Br    0.861699 0.380418 0.637111 -0.479869
C1    C     C_R   0.500000 0.999999 0.131163 0.036318
C2    C     C_R   0.500000 1.000000 0.665556 0.566874
C3    C     C_3   0.719364 0.996236 0.930959 -0.410434
C4    C     C_3   0.067291 0.352931 0.065077 -0.243875
C5    C     C_3   0.004718 0.280709 0.068960 -0.410461
C6    C     C_3   0.076549 0.642049 0.935318 -0.243455
C7    C     C_3   0.006145 0.699303 0.947055 -0.422503
C8    C     C_3   0.641753 0.077069 0.064676 -0.243440
C9    C     C_3   0.699376 0.006891 0.053004 -0.422437
C10   C     C_3   0.352615 0.066604 0.934922 -0.243912
C11   C     C_3   0.280653 0.003762 0.930968 -0.410439
C12   C     C_3   0.932702 0.647065 0.065077 -0.243875
C13   C     C_R   0.000000 0.500000 0.334443 0.566977
C14   C     C_3   0.995276 0.719287 0.068960 -0.410461
C15   C     C_3   0.923449 0.357951 0.935316 -0.243456
C16   C     C_3   0.993853 0.300697 0.947053 -0.422504
C17   C     C_3   0.857901 0.423538 0.564683 -0.243443
C18   C     C_3   0.800706 0.493981 0.552938 -0.422525
C19   C     C_3   0.147014 0.432590 0.434923 -0.243879
C20   C     C_3   0.219279 0.495120 0.431053 -0.410461
C21   C     C_3   0.566905 0.852752 0.565077 -0.243906
C22   C     C_3   0.504178 0.780678 0.568999 -0.410444
C23   C     C_3   0.576852 0.141880 0.435321 -0.243428
C24   C     C_R   1.000000 0.500000 0.665580 0.570423
C25   C     C_3   0.506579 0.199345 0.447022 -0.422478
C26   C     C_3   0.142098 0.576462 0.564684 -0.243443
C27   C     C_3   0.199293 0.506020 0.552939 -0.422525
C28   C     C_3   0.852987 0.567409 0.434923 -0.243879
C29   C     C_3   0.780722 0.504880 0.431051 -0.410460
C30   C     C_3   0.433093 0.147246 0.565078 -0.243905
C31   C     C_3   0.495810 0.219327 0.569004 -0.410441
C32   C     C_3   0.423151 0.858121 0.435320 -0.243429
C33   C     C_3   0.493426 0.800657 0.447022 -0.422479
C34   C     C_R   1.000000 0.500000 0.834420 0.570433
C35   C     C_R   1.000000 0.500000 0.165557 0.566951
C36   C     C_R   0.500000 0.000000 0.834445 0.566804
C37   C     C_R   0.500000 1.000000 0.165581 0.570485
C38   C     C_R   0.339913 0.160086 0.250000 0.514362
C39   C     C_R   0.660085 0.839915 0.750000 0.526565
C40   C     C_R   0.839914 0.339914 0.250000 0.513914
C41   C     C_R   0.500001 0.000001 0.868890 0.034196
C42   C     C_R   0.160084 0.660084 0.750000 0.527833
C43   C     C_R   0.660087 0.839913 0.250000 0.514360
C44   C     C_R   0.339915 0.160084 0.750000 0.526564
C45   C     C_R   0.160086 0.660086 0.250000 0.513914
C46   C     C_R   0.839916 0.339916 0.750000 0.527833
C47   C     C_R   0.339914 0.839914 0.750000 0.513889
C48   C     C_R   0.660084 0.160084 0.250000 0.527863
C49   C     C_R   0.839913 0.660086 0.750000 0.514345
C50   C     C_R   0.160084 0.339915 0.250000 0.526629
C51   C     C_R   0.660086 0.160086 0.750000 0.513888
C52   C     C_R   0.999999 0.499999 0.131114 0.034294
C53   C     C_R   0.339916 0.839916 0.250000 0.527863
C54   C     C_R   0.160086 0.339913 0.750000 0.514343
C55   C     C_R   0.839916 0.660084 0.250000 0.526628
C56   C     C_1   0.276656 0.776656 0.250000 0.019463
C57   C     C_1   0.723350 0.223349 0.750000 0.012643
C58   C     C_1   0.223345 0.276655 0.250000 0.019151
C59   C     C_1   0.776650 0.723350 0.750000 0.012921
C60   C     C_1   0.723344 0.223344 0.250000 0.019463
C61   C     C_1   0.276651 0.776650 0.750000 0.012644
C62   C     C_1   0.776655 0.723345 0.250000 0.019151
C63   C     C_R   0.999999 0.500001 0.868839 0.036287
C64   C     C_1   0.223350 0.276650 0.750000 0.012921
C65   C     C_1   0.276655 0.223345 0.750000 0.019126
C66   C     C_1   0.723350 0.776650 0.250000 0.012932
C67   C     C_1   0.223344 0.723344 0.750000 0.019451
C68   C     C_1   0.776650 0.276650 0.250000 0.012652
C69   C     C_1   0.723345 0.776655 0.750000 0.019126
C70   C     C_1   0.276650 0.223350 0.250000 0.012932
C71   C     C_1   0.776656 0.276656 0.750000 0.019451
C72   C     C_1   0.223350 0.723349 0.250000 0.012652
C73   C     C_R   0.438172 0.953927 0.114735 0.130093
C74   C     C_R   0.999999 0.500000 0.631160 0.036277
C75   C     C_R   0.564901 0.958594 0.885417 0.131414
C76   C     C_R   0.041626 0.435239 0.114590 0.131376
C77   C     C_R   0.045942 0.561921 0.885270 0.130087
C78   C     C_R   0.561827 0.046071 0.114735 0.130092
C79   C     C_R   0.435102 0.041410 0.885417 0.131413
C80   C     C_R   0.958370 0.564758 0.114590 0.131375
C81   C     C_R   0.954056 0.438081 0.885269 0.130087
C82   C     C_R   0.938063 0.454080 0.614730 0.130085
C83   C     C_R   0.064737 0.458336 0.385409 0.131371
C84   C     C_R   0.541504 0.935161 0.614586 0.131399
C85   C     C_R   0.000001 0.500000 0.368885 0.034312
C86   C     C_R   0.546019 0.061866 0.385267 0.130086
C87   C     C_R   0.061936 0.545921 0.614730 0.130085
C88   C     C_R   0.935264 0.541665 0.385409 0.131370
C89   C     C_R   0.458495 0.064837 0.614586 0.131399
C90   C     C_R   0.453981 0.938135 0.385267 0.130086
C91   C     C_R   0.434257 0.958630 0.082027 0.013977
C92   C     C_R   0.568414 0.963642 0.918081 0.013226
C93   C     C_R   0.036653 0.431742 0.081924 0.013200
C94   C     C_R   0.041151 0.565879 0.917975 0.014007
C95   C     C_R   0.565744 0.041366 0.082028 0.013978
C96   C     C_R   0.500000 0.999999 0.631112 0.034240
C97   C     C_R   0.431594 0.036367 0.918081 0.013227
C98   C     C_R   0.963341 0.568254 0.081924 0.013200
C99   C     C_R   0.958846 0.434122 0.917975 0.014008
C100  C     C_R   0.934098 0.458885 0.582024 0.014006
C101  C     C_R   0.068231 0.463295 0.418075 0.013201
C102  C     C_R   0.536493 0.931658 0.581921 0.013220
C103  C     C_R   0.541277 0.065802 0.417973 0.013985
C104  C     C_R   0.065900 0.541116 0.582025 0.014006
C105  C     C_R   0.931770 0.536704 0.418075 0.013201
C106  C     C_R   0.463508 0.068341 0.581921 0.013219
C107  C     C_R   0.500000 0.000001 0.368838 0.036304
C108  C     C_R   0.458724 0.934200 0.417973 0.013985
C109  C     C_R   0.500000 0.999998 0.065661 0.010897
C110  C     C_R   0.500004 0.000005 0.934449 0.007136
C111  C     C_R   0.999997 0.499998 0.065558 0.007152
C112  C     C_R   0.999998 0.500000 0.934343 0.010979
C113  C     C_R   0.999999 0.500000 0.565656 0.010987
C114  C     C_R   0.000000 0.499999 0.434441 0.007158
C115  C     C_R   0.500001 1.000000 0.565554 0.007147
C116  C     C_R   0.500001 0.000001 0.434341 0.010930
C117  C     C_R   0.000000 0.500000 0.468595 0.321277
C118  C     C_R   0.500000 0.000000 0.334419 0.570466
C119  C     C_R   1.000000 0.500000 0.531354 0.325360
C120  C     C_R   0.500001 0.000001 0.468641 0.325342
C121  C     C_R   0.500001 0.000000 0.531400 0.321288
C122  C     C_R   0.500003 0.000003 0.968603 0.321293
C123  C     C_R   0.500000 0.999999 0.031362 0.325331
C124  C     C_R   0.999998 0.500000 0.968645 0.325357
C125  C     C_R   0.999998 0.499999 0.031404 0.321276
C126  C     C_3   0.358250 0.922923 0.064675 -0.243441
C127  C     C_3   0.300623 0.993099 0.053004 -0.422434
C128  C     C_3   0.647393 0.933407 0.934921 -0.243909
H1    H     H_    0.278981 0.032414 0.072748 0.182588
H2    H     H_    0.666731 0.870375 0.926466 0.197905
H3    H     H_    0.995968 0.264630 0.093778 0.209046
H4    H     H_    0.942878 0.298487 0.058878 0.162944
H5    H     H_    0.028436 0.224081 0.056662 0.140865
H6    H     H_    0.075842 0.362264 0.039906 0.164304
H7    H     H_    0.130347 0.333808 0.073573 0.197947
H8    H     H_    0.966551 0.720700 0.927350 0.182470
H9    H     H_    0.965843 0.666455 0.964194 0.172726
H10   H     H_    0.033904 0.755444 0.958481 0.140041
H11   H     H_    0.117392 0.622530 0.954787 0.177711
H12   H     H_    0.333286 0.033718 0.035918 0.172682
H13   H     H_    0.118287 0.681417 0.920898 0.200898
H14   H     H_    0.721013 0.967570 0.072748 0.182586
H15   H     H_    0.666711 0.966277 0.035916 0.172683
H16   H     H_    0.755349 0.034866 0.041538 0.140068
H17   H     H_    0.622058 0.117689 0.045168 0.177628
H18   H     H_    0.680857 0.119123 0.079070 0.200927
H19   H     H_    0.264670 0.995076 0.906139 0.209099
H20   H     H_    0.298654 0.941942 0.941013 0.162958
H21   H     H_    0.223900 0.027190 0.943264 0.140862
H22   H     H_    0.361835 0.075049 0.960103 0.164301
H23   H     H_    0.244654 0.965121 0.041536 0.140068
H24   H     H_    0.333266 0.129628 0.926462 0.197906
H25   H     H_    0.004029 0.735365 0.093778 0.209045
H26   H     H_    0.057114 0.701508 0.058876 0.162944
H27   H     H_    0.971556 0.775915 0.056662 0.140865
H28   H     H_    0.924148 0.637731 0.039906 0.164305
H29   H     H_    0.869647 0.666189 0.073574 0.197947
H30   H     H_    0.033446 0.279300 0.927347 0.182470
H31   H     H_    0.034156 0.333545 0.964192 0.172727
H32   H     H_    0.966094 0.244556 0.958480 0.140041
H33   H     H_    0.882605 0.377469 0.954786 0.177711
H34   H     H_    0.377947 0.882306 0.045166 0.177626
H35   H     H_    0.881710 0.318583 0.920896 0.200898
H36   H     H_    0.779348 0.533614 0.572638 0.182437
H37   H     H_    0.833584 0.534237 0.535792 0.172725
H38   H     H_    0.744538 0.466259 0.541517 0.140050
H39   H     H_    0.877390 0.382662 0.545219 0.177733
H40   H     H_    0.818492 0.381849 0.579107 0.200909
H41   H     H_    0.235371 0.503885 0.406237 0.209040
H42   H     H_    0.201537 0.556960 0.441143 0.162956
H43   H     H_    0.275886 0.471351 0.443350 0.140856
H44   H     H_    0.137662 0.424018 0.460093 0.164302
H45   H     H_    0.319149 0.880865 0.079068 0.200927
H46   H     H_    0.166101 0.369530 0.426420 0.197941
H47   H     H_    0.495461 0.764653 0.593823 0.209077
H48   H     H_    0.442351 0.798583 0.558937 0.162968
H49   H     H_    0.527733 0.723979 0.556702 0.140853
H50   H     H_    0.575399 0.862023 0.539901 0.164294
H51   H     H_    0.629941 0.833500 0.573553 0.197911
H52   H     H_    0.467137 0.220880 0.427296 0.182514
H53   H     H_    0.466101 0.166602 0.464133 0.172692
H54   H     H_    0.534463 0.255390 0.458471 0.140070
H55   H     H_    0.617572 0.122261 0.454811 0.177677
H56   H     H_    0.735342 0.004905 0.906129 0.209109
H57   H     H_    0.618768 0.181099 0.420915 0.200931
H58   H     H_    0.220652 0.466388 0.572640 0.182437
H59   H     H_    0.166416 0.465762 0.535794 0.172725
H60   H     H_    0.255460 0.533742 0.541518 0.140050
H61   H     H_    0.122609 0.617338 0.545219 0.177733
H62   H     H_    0.181506 0.618153 0.579108 0.200909
H63   H     H_    0.764630 0.496117 0.406235 0.209041
H64   H     H_    0.798462 0.443040 0.441141 0.162956
H65   H     H_    0.724114 0.528650 0.443349 0.140856
H66   H     H_    0.862338 0.575980 0.460092 0.164301
H67   H     H_    0.701375 0.058065 0.941000 0.162953
H68   H     H_    0.833901 0.630470 0.426421 0.197941
H69   H     H_    0.504519 0.235350 0.593828 0.209083
H70   H     H_    0.557642 0.201430 0.558943 0.162966
H71   H     H_    0.472251 0.276025 0.556707 0.140854
H72   H     H_    0.424607 0.137978 0.539901 0.164294
H73   H     H_    0.370051 0.166489 0.573552 0.197910
H74   H     H_    0.532867 0.779123 0.427295 0.182514
H75   H     H_    0.533904 0.833401 0.464132 0.172692
H76   H     H_    0.465542 0.744611 0.458470 0.140070
H77   H     H_    0.382431 0.877740 0.454811 0.177678
H78   H     H_    0.776117 0.972807 0.943255 0.140863
H79   H     H_    0.381236 0.818901 0.420915 0.200931
H80   H     H_    0.638180 0.924981 0.960103 0.164293
N1    N     N_R   0.500299 0.073529 0.015371 -0.238820
N2    N     N_R   0.998173 0.426439 0.484531 -0.232084
N3    N     N_R   0.573570 0.001501 0.515464 -0.232065
N4    N     N_R   0.426474 0.999495 0.484633 -0.238821
N5    N     N_R   0.999166 0.426476 0.515362 -0.238820
N6    N     N_R   0.001827 0.573561 0.484531 -0.232084
N7    N     N_R   0.426432 0.998500 0.515464 -0.232067
N8    N     N_R   0.573529 0.000507 0.484633 -0.238822
N9    N     N_R   0.498710 0.926429 0.984538 -0.232058
N10   N     N_R   0.073560 0.501753 0.015468 -0.232083
N11   N     N_R   0.926473 0.499238 0.984637 -0.238818
N12   N     N_R   0.499703 0.926471 0.015370 -0.238822
N13   N     N_R   0.501296 0.073575 0.984540 -0.232062
N14   N     N_R   0.926435 0.498244 0.015468 -0.232084
N15   N     N_R   0.073523 0.500761 0.984637 -0.238819
N16   N     N_R   0.000834 0.573523 0.515362 -0.238820
O1    O     O_3   0.500000 0.000000 0.250000 -0.478169
O2    O     O_R   0.500000 0.930740 0.680620 -0.494986
O3    O     O_R   0.930740 0.500000 0.319380 -0.495010
O4    O     O_R   0.069260 0.500000 0.680620 -0.494809
O5    O     O_R   0.000000 0.430740 0.819380 -0.494809
O6    O     O_R   0.000000 0.569260 0.180620 -0.495008
O7    O     O_R   0.569260 0.000000 0.819380 -0.494983
O8    O     O_R   0.430740 0.000000 0.180620 -0.494817
O9    O     O_R   0.000000 0.569260 0.819380 -0.494810
O10   O     O_R   0.000000 0.430740 0.180620 -0.495010
O11   O     O_R   0.430740 0.000000 0.819380 -0.494978
O12   O     O_3   0.500000 0.000000 0.750000 -0.477808
O13   O     O_R   0.569260 0.000000 0.180620 -0.494817
O14   O     O_R   0.402540 0.166630 0.268230 -0.527100
O15   O     O_R   0.597460 0.833370 0.731770 -0.513638
O16   O     O_R   0.833370 0.402540 0.268230 -0.527079
O17   O     O_R   0.166630 0.597460 0.731770 -0.513710
O18   O     O_R   0.597460 0.833370 0.268230 -0.527100
O19   O     O_R   0.402540 0.166630 0.731770 -0.513638
O20   O     O_R   0.166630 0.597460 0.268230 -0.527080
O21   O     O_R   0.833370 0.402540 0.731770 -0.513711
O22   O     O_R   0.402540 0.833370 0.731770 -0.527068
O23   O     O_3   1.000000 0.500000 0.250000 -0.477797
O24   O     O_R   0.597460 0.166630 0.268230 -0.513711
O25   O     O_R   0.833370 0.597460 0.731770 -0.527094
O26   O     O_R   0.166630 0.402540 0.268230 -0.513640
O27   O     O_R   0.597460 0.166630 0.731770 -0.527068
O28   O     O_R   0.402540 0.833370 0.268230 -0.513710
O29   O     O_R   0.166630 0.402540 0.731770 -0.527094
O30   O     O_R   0.833370 0.597460 0.268230 -0.513640
O31   O     O_R   0.902540 0.666630 0.768230 -0.527091
O32   O     O_R   0.097460 0.333370 0.231770 -0.513638
O33   O     O_R   0.333370 0.902540 0.768230 -0.527052
O34   O     O_3   0.000000 0.500000 0.750000 -0.478175
O35   O     O_R   0.666630 0.097460 0.231770 -0.513709
O36   O     O_R   0.097460 0.333370 0.768230 -0.527091
O37   O     O_R   0.902540 0.666630 0.231770 -0.513638
O38   O     O_R   0.666630 0.097460 0.768230 -0.527055
O39   O     O_R   0.333370 0.902540 0.231770 -0.513710
O40   O     O_R   0.902540 0.333370 0.231770 -0.527076
O41   O     O_R   0.097460 0.666630 0.768230 -0.513708
O42   O     O_R   0.333370 0.097460 0.231770 -0.527101
O43   O     O_R   0.666630 0.902540 0.768230 -0.513630
O44   O     O_R   0.097460 0.666630 0.231770 -0.527075
O45   O     O_R   0.500000 0.930740 0.319380 -0.494817
O46   O     O_R   0.902540 0.333370 0.768230 -0.513706
O47   O     O_R   0.666630 0.902540 0.231770 -0.527102
O48   O     O_R   0.333370 0.097460 0.768230 -0.513629
O49   O     O_R   0.500000 0.069260 0.680620 -0.494987
O50   O     O_R   0.069260 0.500000 0.319380 -0.495011
O51   O     O_R   0.930740 0.500000 0.680620 -0.494810
O52   O     O_R   0.500000 0.069260 0.319380 -0.494818
Zn1   Zn    Zn3+2 0.401050 0.000000 0.224090 1.010374
Zn2   Zn    Zn3+2 0.098950 0.500000 0.275910 1.008685
Zn3   Zn    Zn3+2 0.500000 0.901050 0.724090 1.008655
Zn4   Zn    Zn3+2 0.500000 0.098950 0.275910 1.010371
Zn5   Zn    Zn3+2 0.098950 0.500000 0.724090 1.010355
Zn6   Zn    Zn3+2 0.901050 0.500000 0.275910 1.008685
Zn7   Zn    Zn3+2 0.500000 0.098950 0.724090 1.008652
Zn8   Zn    Zn3+2 0.500000 0.901050 0.275910 1.010371
Zn9   Zn    Zn3+2 0.598950 0.000000 0.775910 1.008653
Zn10  Zn    Zn3+2 1.000000 0.401050 0.224090 1.008684
Zn11  Zn    Zn3+2 1.000000 0.598950 0.775910 1.010359
Zn12  Zn    Zn3+2 0.598950 0.000000 0.224090 1.010373
Zn13  Zn    Zn3+2 0.401050 0.000000 0.775910 1.008656
Zn14  Zn    Zn3+2 1.000000 0.598950 0.224090 1.008684
Zn15  Zn    Zn3+2 1.000000 0.401050 0.775910 1.010359
Zn16  Zn    Zn3+2 0.901050 0.500000 0.724090 1.010356

loop_
_geom_bond_atom_site_label_1
_geom_bond_atom_site_label_2
_ccdc_geom_bond_type
C38   O42   A    
C40   O40   A    
N1    N13   A    
O31   Zn11  S    
C34   C63   S    
O34   Zn16  S    
C23   C25   S    
C3    H56   S    
C3    C128  S    
C12   H29   S    
C53   O39   A    
C28   C105  S    
C102  C115  A    
Br3   C84   S    
C93   C111  A    
C19   C20   S    
Br4   C86   S    
C95   C109  A    
O21   Zn16  S    
Br6   C88   S    
C81   C99   A    
O41   Zn11  S    
C77   C94   A    
O30   Zn6   S    
Br11  C77   S    
C120  N4    A    
C30   H73   S    
C39   O43   A    
C80   C98   A    
Br15  C81   S    
O37   Zn14  S    
C107  C118  S    
C1    C73   A    
O32   Zn10  S    
C42   O17   A    
C126  H45   S    
C43   O47   A    
C44   O48   A    
C14   H25   S    
C21   C22   S    
C62   C66   T    
C13   O3    A    
C52   C80   A    
C51   O38   A    
C24   O4    A    
C11   H21   S    
C83   C85   A    
C89   C96   A    
C19   H46   S    
C7    H9    S    
C86   C107  A    
C92   C128  S    
C17   C100  S    
C63   C81   A    
C2    C96   S    
C22   H49   S    
O42   Zn1   S    
C6    H13   S    
C4    H7    S    
C123  N1    A    
O10   Zn10  S    
C18   H37   S    
Br16  C82   S    
O9    Zn11  S    
O3    Zn6   S    
C52   C76   A    
O23   Zn2   S    
C39   O15   A    
O8    Zn1   S    
C76   C93   A    
C37   O8    A    
C4    C5    S    
C90   C108  A    
O51   Zn16  S    
C6    C7    S    
C30   C106  S    
C122  N9    A    
C45   O20   A    
C92   C110  A    
C13   O50   A    
N4    N7    A    
C86   C103  A    
C94   C112  A    
O46   Zn15  S    
Br5   C87   S    
C78   C95   A    
C43   C66   S    
C105  C114  A    
O1    Zn4   S    
O2    Zn3   S    
O19   Zn7   S    
O12   Zn13  S    
C33   H75   S    
C21   H51   S    
C50   C58   S    
C31   H70   S    
C108  C116  A    
C26   H61   S    
C111  C125  S    
O23   Zn6   S    
C117  N6    A    
C11   H19   S    
C113  C119  S    
O44   Zn14  S    
C47   O33   A    
C57   C71   T    
C19   H44   S    
C124  N11   A    
C43   O18   A    
O27   Zn7   S    
C5    H5    S    
C116  C120  S    
O7    Zn9   S    
C38   O14   A    
C3    H78   S    
C46   O21   A    
C15   C99   S    
C103  C116  A    
O1    Zn8   S    
C6    H11   S    
C48   O35   A    
O48   Zn13  S    
C16   H31   S    
C54   O36   A    
C104  C113  A    
O49   Zn7   S    
C5    H4    S    
O52   Zn4   S    
C91   C109  A    
C25   H53   S    
O34   Zn5   S    
C38   C70   S    
O35   Zn12  S    
C97   C110  A    
O39   Zn1   S    
C29   H65   S    
C99   C112  A    
C53   C56   S    
C46   O46   A    
O16   Zn6   S    
C83   C101  A    
C44   C65   S    
C15   C16   S    
O11   Zn13  S    
C17   H40   S    
C127  H23   S    
O20   Zn2   S    
Br2   C83   S    
C29   H64   S    
O47   Zn12  S    
C40   O16   A    
O45   Zn8   S    
N11   N14   A    
C47   O22   A    
C106  C115  A    
C23   H55   S    
O50   Zn2   S    
C112  C124  S    
C121  N3    A    
C42   C67   S    
C26   C104  S    
C126  H34   S    
C23   C103  S    
C4    H6    S    
C89   C106  A    
N9    N12   A    
O38   Zn9   S    
C22   H47   S    
C27   H60   S    
O5    Zn15  S    
C7    H8    S    
C125  N14   A    
O12   Zn3   S    
C18   H36   S    
C8    H17   S    
C49   O25   A    
O34   Zn11  S    
C60   C68   T    
O25   Zn16  S    
C10   C11   S    
C55   O37   A    
C3    H67   S    
C118  O52   A    
O1    Zn1   S    
C119  N16   A    
C122  N13   A    
C20   H41   S    
C35   O10   A    
C14   H26   S    
C59   C69   T    
C110  C122  S    
C6    C94   S    
C31   H71   S    
Br7   C89   S    
C51   C57   S    
C2    O2    A    
Br10  C76   S    
Br12  C78   S    
O12   Zn7   S    
C37   O13   A    
Br14  C80   S    
O34   Zn15  S    
C40   C68   S    
C54   C64   S    
O23   Zn10  S    
C117  N2    A    
C128  H2    S    
C9    H15   S    
C64   C65   T    
C54   O29   A    
C16   H30   S    
C124  N15   A    
C15   H35   S    
C39   C69   S    
C115  C121  S    
C120  N8    A    
C73   C91   A    
C27   H58   S    
C13   C85   S    
O1    Zn12  S    
O6    Zn14  S    
O15   Zn3   S    
C32   C33   S    
Br13  C79   S    
C84   C96   A    
C85   C88   A    
C30   H72   S    
C23   H57   S    
C114  C117  S    
C84   C102  A    
C26   C27   S    
C36   O7    A    
C1    C37   S    
C28   C29   S    
C30   C31   S    
C41   C75   A    
C75   C92   A    
O23   Zn14  S    
Br8   C90   S    
C48   O24   A    
C42   O41   A    
C25   H52   S    
C46   C71   S    
C33   H74   S    
O26   Zn2   S    
C20   H43   S    
O40   Zn10  S    
C21   H50   S    
C10   C97   S    
C98   C111  A    
C55   O30   A    
C31   H69   S    
C87   C104  A    
C26   H62   S    
C28   H66   S    
C74   C87   A    
C36   C41   S    
O28   Zn8   S    
C119  N5    A    
C7    H10   S    
C123  N12   A    
C126  C127  S    
O12   Zn9   S    
O24   Zn4   S    
C24   C74   S    
O43   Zn9   S    
O13   Zn12  S    
N6    N16   A    
C121  N7    A    
Br9   C75   S    
C53   O28   A    
O29   Zn5   S    
C109  C123  S    
C16   H32   S    
C10   H24   S    
C15   H33   S    
C5    H3    S    
C44   O19   A    
C63   C77   A    
O36   Zn15  S    
O14   Zn4   S    
C32   H77   S    
C61   C67   T    
C118  O45   A    
C24   O51   A    
C100  C113  A    
O18   Zn8   S    
C125  N10   A    
C90   C107  A    
C17   H39   S    
C34   O5    A    
C50   O26   A    
N10   N15   A    
N3    N8    A    
C29   H63   S    
C8    C95   S    
C9    H16   S    
C56   C72   T    
C12   H28   S    
O4    Zn5   S    
C2    O49   A    
C21   C102  S    
C33   H76   S    
C45   O44   A    
C35   O6    A    
C8    C9    S    
O33   Zn13  S    
C88   C105  A    
C28   H68   S    
C45   C72   S    
C11   H20   S    
C51   O27   A    
C82   C100  A    
C17   C18   S    
C48   C60   S    
C58   C70   T    
C91   C126  S    
C101  C114  A    
C34   O9    A    
C12   C98   S    
C22   H48   S    
C27   H59   S    
C19   C101  S    
C9    H14   S    
C47   C61   S    
O17   Zn5   S    
C127  H1    S    
C10   H22   S    
Br1   C73   S    
C8    H18   S    
C25   H54   S    
C32   C108  S    
C32   H79   S    
N2    N5    A    
C49   C59   S    
C12   C14   S    
C127  H12   S    
C79   C97   A    
C18   H38   S    
C20   H42   S    
C35   C52   S    
C49   O31   A    
C36   O11   A    
C14   H27   S    
C128  H80   S    
C50   O32   A    
C4    C93   S    
C41   C79   A    
O22   Zn3   S    
C1    C78   A    
C74   C82   A    
C55   C62   S    
