data_mof_unit_20828.cif
_audit_creation_date              2012-10-26T21:04:52-0400
_audit_creation_method            fapswitch 2.2
_symmetry_space_group_name_H-M    P1
_symmetry_Int_Tables_number       1
_space_group_crystal_system       triclinic
_cell_length_a                    11.693457
_cell_length_b                    12.348129
_cell_length_c                    13.182642
_cell_angle_alpha                 116.502206
_cell_angle_beta                  77.825986
_cell_angle_gamma                 101.209634
_cell_volume                      1654.16164576

loop_
_atom_site_label
_atom_site_type_symbol
_atom_type_description
_atom_site_fract_x
_atom_site_fract_y
_atom_site_fract_z
_atom_type_partial_charge
C1    C     C_R   0.509696 0.854943 0.286617 0.524322
C2    C     C_R   0.343979 0.483637 0.162299 -0.139645
C3    C     C_R   0.379456 0.606947 0.195454 -0.123095
C4    C     C_R   0.715736 0.999680 0.499823 0.542871
C5    C     C_R   0.501782 0.352158 0.867464 -0.136298
C6    C     C_R   0.391459 0.189702 0.914862 -0.133900
C7    C     C_R   0.515170 0.773226 0.163610 -0.002274
C8    C     C_R   0.685362 0.344986 0.326537 -0.149350
C9    C     C_R   0.341989 0.757618 0.646054 0.292943
C10   C     C_R   0.313860 0.663155 0.681137 -0.149244
C11   C     C_R   0.374347 0.561678 0.626590 -0.165451
C12   C     C_R   0.462110 0.228555 0.834869 -0.003098
C13   C     C_R   0.465833 0.552607 0.535949 -0.014801
C14   C     C_R   0.496211 0.653449 0.505392 0.150445
C15   C     C_R   0.528830 0.447641 0.475593 -0.005812
C16   C     C_R   0.483797 0.145149 0.713469 0.547590
C17   C     C_R   0.622122 0.446086 0.387070 0.037061
C18   C     C_R   0.652099 0.545487 0.359695 -0.168027
C19   C     C_R   0.590968 0.646857 0.417720 -0.095134
C20   C     C_R   0.503127 0.342955 0.498628 0.041918
C21   C     C_R   0.656120 0.245555 0.353722 0.043354
C22   C     C_R   0.284261 0.000290 0.500185 0.547676
C23   C     C_R   0.582347 0.816504 0.084866 -0.133699
C24   C     C_1   0.837419 0.999375 0.499938 -0.027440
C25   C     C_1   0.939987 0.999543 0.500018 -0.047448
C26   C     C_1   0.059939 0.000044 0.500075 -0.052527
C27   C     C_1   0.162552 0.000407 0.500093 -0.035868
C28   C     C_R   0.354568 0.274741 0.024451 -0.131662
C29   C     C_3   0.154210 0.831336 0.682747 -0.293185
C30   C     C_R   0.604543 0.738342 0.969906 -0.141612
C31   C     C_R   0.565451 0.614805 0.932343 -0.121251
C32   C     C_R   0.498443 0.567061 0.009327 0.031992
C33   C     C_R   0.464340 0.649735 0.124069 0.024111
C34   C     C_R   0.463402 0.440216 0.976236 0.028061
C35   C     C_R   0.387882 0.399483 0.054968 0.051275
Cu1   Cu    Cu3+1 0.526510 0.098270 0.475420 0.932440
Cu2   Cu    Cu3+1 0.473490 0.901730 0.524580 0.946203
H1    H     H_    0.361119 0.094536 0.891766 0.120248
H2    H     H_    0.561855 0.377099 0.805332 0.120527
H3    H     H_    0.620416 0.910736 0.112520 0.127430
H4    H     H_    0.587417 0.559971 0.842108 0.104368
H5    H     H_    0.655769 0.773082 0.909860 0.118972
H6    H     H_    0.336853 0.667861 0.276860 0.149689
H7    H     H_    0.704664 0.167260 0.307273 0.120502
H8    H     H_    0.281981 0.902451 0.788494 0.217041
H9    H     H_    0.114418 0.917672 0.716651 0.142480
H10   H     H_    0.103253 0.775365 0.727418 0.107404
H11   H     H_    0.147811 0.781460 0.589730 0.167187
H12   H     H_    0.724003 0.545105 0.292457 0.110359
H13   H     H_    0.757002 0.342921 0.258670 0.092254
H14   H     H_    0.433066 0.335477 0.563548 0.121260
H15   H     H_    0.347485 0.492120 0.657725 0.105289
H16   H     H_    0.243657 0.668034 0.750819 0.104274
H17   H     H_    0.621849 0.718303 0.390965 0.183127
H18   H     H_    0.281554 0.454069 0.221011 0.108130
H19   H     H_    0.297496 0.243194 0.084492 0.107399
N1    N     N_R   0.566700 0.246290 0.438210 -0.233995
N2    N     N_R   0.434010 0.754320 0.561170 -0.215884
N3    N     N_2   0.276070 0.858795 0.702215 -0.446229
O1    O     O_R   0.533340 0.972510 0.318140 -0.503945
O2    O     O_R   0.488570 0.806530 0.359650 -0.532875
O3    O     O_R   0.685190 0.083000 0.479260 -0.493839
O4    O     O_R   0.640410 0.917020 0.520770 -0.515266
O5    O     O_R   0.511430 0.193470 0.640350 -0.512349
O6    O     O_R   0.466660 0.027490 0.681860 -0.474693
O7    O     O_R   0.359590 0.082980 0.479230 -0.496415
O8    O     O_R   0.314810 0.917000 0.520740 -0.473896

loop_
_geom_bond_atom_site_label_1
_geom_bond_atom_site_label_2
_ccdc_geom_bond_type
C2    C35   A    
Cu2   O2    S    
C6    H1    S    
C21   N1    A    
C11   H15   S    
C4    O3    A    
C21   H7    S    
C11   C13   A    
C9    C10   A    
Cu2   N2    S    
Cu1   O5    S    
C8    C17   A    
C29   H9    S    
C22   C27   S    
C32   C33   A    
C5    H2    S    
C17   C18   A    
C20   N1    A    
C31   H4    S    
C13   C14   A    
C5    C34   A    
C7    C33   A    
C4    O4    A    
C3    H6    S    
C26   C27   T    
C30   C31   A    
C29   H10   S    
C34   C35   A    
C7    C23   A    
Cu2   O8    S    
C19   H17   S    
Cu2   O6    S    
Cu1   Cu2   S    
Cu2   O4    S    
C8    C21   A    
C20   H14   S    
C30   H5    S    
C2    H18   S    
C13   C15   A    
C6    C12   A    
C15   C20   A    
C4    C24   S    
Cu1   O1    S    
Cu1   O7    S    
C22   O8    A    
C14   N2    A    
C10   C11   A    
C3    C33   A    
C29   H11   S    
C23   H3    S    
C23   C30   A    
C8    H13   S    
C18   C19   A    
C24   C25   T    
Cu1   N1    S    
C5    C12   A    
H8    N3    S    
C9    N2    A    
C1    O1    A    
C15   C17   A    
C10   H16   S    
C29   N3    S    
C22   O7    A    
C2    C3    A    
C16   O6    A    
C16   O5    A    
C9    N3    S    
C25   C26   S    
C1    C7    S    
C28   C35   A    
C14   C19   A    
C31   C32   A    
C6    C28   A    
C28   H19   S    
C12   C16   S    
C18   H12   S    
C32   C34   A    
Cu1   O3    S    
C1    O2    A    
