data_mof_unit_16325.cif
_audit_creation_date              2012-12-10T19:38:46-0500
_audit_creation_method            fapswitch 2.2
_symmetry_space_group_name_H-M    P1
_symmetry_Int_Tables_number       1
_space_group_crystal_system       triclinic
_cell_length_a                    10.702814
_cell_length_b                    15.94958
_cell_length_c                    17.081506
_cell_angle_alpha                 95.867118
_cell_angle_beta                  94.259281
_cell_angle_gamma                 89.775329
_cell_volume                      2892.59970891

loop_
_atom_site_label
_atom_site_type_symbol
_atom_type_description
_atom_site_fract_x
_atom_site_fract_y
_atom_site_fract_z
_atom_type_partial_charge
C1    C     C_R   0.508803 0.489259 0.348958 0.893286
C2    C     C_R   0.499403 0.511072 0.651275 0.916861
C3    C     C_R   0.555017 0.486061 0.100083 0.166633
C4    C     C_R   0.530567 0.540419 0.904389 0.180191
C5    C     C_R   0.523599 0.410399 0.130421 0.275716
C6    C     C_R   0.435689 0.585110 0.864222 0.211595
C7    C     C_R   0.527896 0.407289 0.212926 -0.156234
C8    C     C_R   0.426044 0.578784 0.780699 -0.170743
C9    C     C_R   0.475937 0.754672 0.444053 0.431720
C10   C     C_R   0.522615 0.243636 0.555236 0.440617
C11   C     C_R   0.509500 0.840836 0.441711 0.236186
C12   C     C_R   0.492073 0.156475 0.555401 0.216003
C13   C     C_R   0.537439 0.891311 0.512960 0.261072
C14   C     C_R   0.469095 0.107362 0.483191 0.273318
C15   C     C_R   0.568677 0.849778 0.579589 -0.369308
C16   C     C_R   0.436056 0.150238 0.417814 -0.357293
C17   C     C_R   0.568634 0.760853 0.575437 0.072255
C18   C     C_R   0.430232 0.239365 0.424324 0.107144
C19   C     C_R   0.259928 0.501856 0.500806 0.963376
C20   C     C_R   0.740448 0.497965 0.499500 0.924498
C21   C     C_3   0.039090 0.463874 0.431597 -0.295859
C22   C     C_3   0.962451 0.534525 0.570091 -0.381290
C23   C     C_3   0.949834 0.539772 0.442107 0.328337
C24   C     C_3   0.051869 0.458149 0.558952 0.269033
C25   C     C_3   0.877061 0.494079 0.499139 -0.313666
C26   C     C_3   0.124065 0.504713 0.501957 -0.281745
C27   C     C_3   0.965786 0.418324 0.489268 0.385323
C28   C     C_3   0.035264 0.580580 0.511708 0.360381
C29   C     C_R   0.531170 0.483798 0.263437 -0.145981
C30   C     C_R   0.503412 0.520877 0.738152 -0.112398
C31   C     C_R   0.563156 0.557986 0.232409 -0.170266
C32   C     C_R   0.599956 0.480961 0.778716 -0.231245
C33   C     C_R   0.582871 0.559712 0.152871 0.354624
C34   C     C_R   0.616694 0.489911 0.860599 0.376693
Cu1   Cu    Cu3+1 0.493870 0.415220 0.496180 1.147330
Cu2   Cu    Cu3+1 0.506130 0.584780 0.503820 1.113100
H1    H     H_    0.601305 0.886900 0.633963 0.214738
H2    H     H_    0.403278 0.113592 0.363196 0.203055
H3    H     H_    0.070856 0.435688 0.374337 0.249917
H4    H     H_    0.930602 0.562527 0.627381 0.237368
H5    H     H_    0.667195 0.445146 0.745717 0.216004
H6    H     H_    0.581424 0.614572 0.271958 0.265931
N1    N     N_2   0.562378 0.482404 0.017342 -0.071766
N2    N     N_2   0.534470 0.548549 0.987962 -0.087123
N3    N     N_R   0.515330 0.712130 0.509560 -0.243629
N4    N     N_R   0.484670 0.287870 0.490440 -0.231537
N5    N     N_2   0.543682 0.982023 0.519261 -0.096564
N6    N     N_2   0.463356 0.016613 0.475792 -0.079035
O1    O     O_R   0.494270 0.420530 0.382500 -0.564882
O2    O     O_R   0.505730 0.579470 0.617500 -0.597599
O3    O     O_R   0.504620 0.563720 0.388950 -0.560112
O4    O     O_R   0.495380 0.436280 0.611050 -0.513930
O5    O     O_R   0.311680 0.428420 0.496760 -0.527435
O6    O     O_R   0.688320 0.571580 0.503240 -0.542720
O7    O     O_R   0.322030 0.571610 0.503210 -0.510345
O8    O     O_R   0.677970 0.428390 0.496790 -0.507184
S1    S     S_3+6 0.884905 0.585652 0.357322 0.072806
O9    O     O_2   0.815487 0.518241 0.303617 -0.301690
O10   O     O_2   0.797005 0.655737 0.381349 -0.253634
O11   O     O_3   0.001159 0.623275 0.309705 -0.430134
H7    H     H_    0.958947 0.644808 0.262234 0.409377
S2    S     S_3+6 0.121042 0.400179 0.635759 0.129938
O12   O     O_2   0.169489 0.317472 0.600104 -0.155969
O13   O     O_2   0.228144 0.448233 0.680532 -0.258738
O14   O     O_3   0.014124 0.381763 0.698981 -0.433115
H8    H     H_    0.990257 0.438426 0.722348 0.360025
C35   C     C_2   0.629639 0.725220 0.644667 0.490951
H9    H     H_    0.608107 0.750685 0.703496 0.049498
O15   O     O_2   0.711234 0.672056 0.637472 -0.527560
C36   C     C_2   0.354509 0.273511 0.358939 0.514243
H10   H     H_    0.349890 0.239092 0.300661 0.034755
O16   O     O_2   0.285971 0.333931 0.369615 -0.500897
S3    S     S_3+6 0.929501 0.308576 0.469195 0.124733
O17   O     O_2   0.901920 0.272125 0.543689 -0.179227
O18   O     O_2   0.818097 0.296468 0.410524 -0.204645
O19   O     O_3   0.053462 0.258646 0.431378 -0.475008
H11   H     H_    0.030114 0.198146 0.424814 0.392143
S4    S     S_3+6 0.066189 0.691758 0.527906 0.148421
O20   O     O_2   0.194985 0.709417 0.566807 -0.198641
O21   O     O_2   0.055545 0.730076 0.451043 -0.151334
O22   O     O_3   0.960539 0.737384 0.586531 -0.457337
H12   H     H_    0.882347 0.739287 0.551885 0.375666
S5    S     S_3+6 0.746741 0.435731 0.902889 0.108183
O23   O     O_2   0.701544 0.353262 0.925916 -0.173546
O24   O     O_2   0.843118 0.418038 0.843735 -0.256046
O25   O     O_3   0.814998 0.492254 0.982877 -0.450136
H13   H     H_    0.873502 0.452788 0.007745 0.394374
S6    S     S_3+6 0.643296 0.655540 0.125599 0.117613
O26   O     O_2   0.535264 0.709770 0.100803 -0.178033
O27   O     O_2   0.717260 0.701279 0.195136 -0.203242
O28   O     O_3   0.738157 0.639220 0.051578 -0.456053
H14   H     H_    0.753496 0.695897 0.035280 0.393178
S7    S     S_3+6 0.480668 0.318561 0.064912 0.074446
O29   O     O_2   0.590507 0.259580 0.062515 -0.211223
O30   O     O_2   0.371908 0.275353 0.094937 -0.275479
O31   O     O_3   0.437723 0.341462 0.972729 -0.461851
H15   H     H_    0.428221 0.286148 0.940738 0.416726
S8    S     S_3+6 0.324874 0.646219 0.919261 0.092658
O32   O     O_2   0.371174 0.735680 0.933394 -0.195602
O33   O     O_2   0.198645 0.644939 0.874154 -0.245250
O34   O     O_3   0.306438 0.610568 0.007083 -0.441648
H16   H     H_    0.268230 0.553903 0.994072 0.368119
C37   C     C_2   0.550521 0.324770 0.244103 0.492961
H17   H     H_    0.502420 0.268386 0.217383 0.115984
O35   O     O_2   0.631767 0.317572 0.296858 -0.461971
C38   C     C_2   0.339358 0.635699 0.739514 0.540352
H18   H     H_    0.327270 0.700217 0.764631 0.119974
O36   O     O_2   0.278433 0.611030 0.678527 -0.485384
S9    S     S_3+6 0.625835 0.283744 0.637154 0.130150
O37   O     O_2   0.550082 0.310736 0.705776 -0.221326
O38   O     O_2   0.711939 0.214112 0.659885 -0.176161
O39   O     O_3   0.716878 0.363670 0.620088 -0.531459
H19   H     H_    0.786922 0.364872 0.661222 0.390874
S10   S     S_3+6 0.351619 0.719958 0.371340 0.124138
O40   O     O_2   0.286963 0.640118 0.383543 -0.244723
O41   O     O_2   0.255019 0.788647 0.372837 -0.176888
O42   O     O_3   0.402266 0.708386 0.280257 -0.490451
H20   H     H_    0.325534 0.700328 0.244124 0.401275
S11   S     S_3+6 0.457956 0.112501 0.643761 0.123794
O43   O     O_2   0.574974 0.076509 0.681285 -0.214993
O44   O     O_2   0.404687 0.178127 0.701297 -0.160132
O45   O     O_3   0.350822 0.035000 0.622303 -0.484912
H21   H     H_    0.350202 0.006057 0.670898 0.388484
S12   S     S_3+6 0.534377 0.881274 0.350503 0.118725
O46   O     O_2   0.623134 0.955071 0.363470 -0.240275
O47   O     O_2   0.591358 0.814230 0.296259 -0.160064
O48   O     O_3   0.397296 0.912136 0.308210 -0.454097
H22   H     H_    0.418269 0.931211 0.257357 0.391893

loop_
_geom_bond_atom_site_label_1
_geom_bond_atom_site_label_2
_ccdc_geom_bond_type
C18   C36   S    
C21   C26   S    
C9    N3    A    
S7    O29   D    
C7    C29   A    
C31   H6    S    
Cu1   O5    S    
O42   H20   S    
S3    O17   D    
C11   S12   S    
C24   C27   S    
C20   O8    A    
O22   H12   S    
C3    N1    S    
O34   H16   S    
C6    C8    A    
C9    S10   S    
C6    S8    S    
S12   O47   D    
C33   S6    S    
C24   C26   S    
S9    O38   D    
S4    O21   D    
S1    O10   D    
C20   C25   S    
C3    C33   A    
C18   N4    A    
C10   S9    S    
C15   C17   A    
C19   C26   S    
C15   H1    S    
S2    O13   D    
C2    O2    A    
N5    N6    D    
C22   C25   S    
Cu1   O1    S    
C32   H5    S    
C31   C33   A    
C36   H10   S    
C28   S4    S    
C19   O5    A    
C21   C27   S    
S7    O30   D    
C7    C37   S    
S3    O18   D    
C10   C12   A    
O39   H19   S    
S10   O40   D    
S11   O44   D    
C4    C34   A    
C17   C35   S    
C36   O16   D    
C35   H9    S    
O19   H11   S    
C20   O6    A    
S9    O39   S    
O28   H14   S    
C5    C7    A    
S4    O20   D    
S1    O11   S    
C14   N6    S    
C4    N2    S    
C17   N3    A    
O11   H7    S    
C35   O15   D    
Cu1   Cu2   S    
C32   C34   A    
N1    N2    D    
C10   N4    A    
S2    O12   D    
C12   S11   S    
C9    C11   A    
C5    S7    S    
S5    O23   D    
C21   H3    S    
S6    O28   S    
C22   H4    S    
O31   H15   S    
C1    C29   S    
Cu2   N3    S    
C37   O35   D    
C23   C28   S    
C1    O3    A    
Cu2   O3    S    
C2    O4    A    
S12   O48   S    
C4    C6    A    
S5    O24   D    
S6    O27   D    
S8    O32   D    
S7    O31   S    
S8    O33   D    
C13   C15   A    
S3    O19   S    
C22   C24   S    
C34   S5    S    
O48   H22   S    
Cu1   O4    S    
Cu2   O2    S    
C13   N5    S    
S11   O45   S    
C19   O7    A    
C23   S1    S    
C24   S2    S    
S2    O14   S    
Cu1   O8    S    
O25   H13   S    
C12   C14   A    
C3    C5    A    
C8    C38   S    
S10   O41   D    
S11   O43   D    
C25   C27   S    
S8    O34   S    
C26   C28   S    
C2    C30   S    
C8    C30   A    
C21   C23   S    
C29   C31   A    
Cu2   O7    S    
S9    O37   D    
C30   C32   A    
C11   C13   A    
S4    O22   S    
S1    O9    D    
C38   O36   D    
C14   C16   A    
C23   C25   S    
S10   O42   S    
Cu2   O6    S    
S5    O25   S    
S6    O26   D    
C16   C18   A    
O14   H8    S    
C38   H18   S    
C37   H17   S    
C22   C28   S    
O45   H21   S    
C27   S3    S    
Cu1   N4    S    
C1    O1    A    
C16   H2    S    
S12   O46   D    
