data_mof_unit_20280.cif
_audit_creation_date              2012-12-10T16:54:53-0500
_audit_creation_method            fapswitch 2.2
_symmetry_space_group_name_H-M    P1
_symmetry_Int_Tables_number       1
_space_group_crystal_system       triclinic
_cell_length_a                    7.815807
_cell_length_b                    8.660053
_cell_length_c                    15.730352
_cell_angle_alpha                 92.366695
_cell_angle_beta                  84.492381
_cell_angle_gamma                 93.400903
_cell_volume                      1057.25263273

loop_
_atom_site_label
_atom_site_type_symbol
_atom_type_description
_atom_site_fract_x
_atom_site_fract_y
_atom_site_fract_z
_atom_type_partial_charge
C1    C     C_R   0.544557 0.793936 0.497727 0.852118
C2    C     C_2   0.435125 0.045199 0.514762 0.206515
C3    C     C_R   0.500150 0.502007 0.661500 0.863961
C4    C     C_R   0.455328 0.205970 0.502184 0.861582
C5    C     C_R   0.499780 0.496893 0.338513 0.867826
C6    C     C_3   0.377748 0.614891 0.960508 -0.480906
C7    C     C_3   0.693303 0.555274 0.942336 -0.041055
C8    C     C_3   0.692751 0.578544 0.043043 0.739618
C9    C     C_1   0.501484 0.491844 0.249739 -0.230394
C10   C     C_3   0.507980 0.502924 0.916652 0.087912
C11   C     C_3   0.326072 0.746419 0.107475 -0.784347
C12   C     C_3   0.361086 0.591784 0.057689 -0.062313
C13   C     C_3   0.695148 0.168096 0.103896 -0.254331
C14   C     C_3   0.701414 0.967166 0.349744 -0.362573
C15   C     C_3   0.302369 0.013733 0.648680 -0.280680
C16   C     C_3   0.961836 0.328216 0.352413 -0.075905
C17   C     C_3   0.779345 0.696906 0.894602 -0.822241
C18   C     C_3   0.738254 0.787298 0.147134 -0.364414
C19   C     C_3   0.863775 0.513450 0.068469 -0.964578
C20   C     C_3   0.520396 0.201231 0.888240 -0.799118
C21   C     C_3   0.210021 0.252588 0.113180 -0.456191
C22   C     C_3   0.515384 0.494604 0.082573 -0.003613
C23   C     C_3   0.497220 0.320840 0.042370 0.889243
C24   C     C_3   0.451195 0.334838 0.948097 -0.131627
C25   C     C_1   0.508136 0.490311 0.174208 -0.029128
C26   C     C_1   0.501866 0.506762 0.825399 0.010606
C27   C     C_1   0.500217 0.505648 0.750232 -0.199268
C28   C     C_2   0.564316 0.954426 0.483945 0.224254
H1    H     H_    0.249079 0.592355 0.935953 0.166886
H2    H     H_    0.622838 0.055100 0.099590 0.234143
H3    H     H_    0.662751 0.226743 0.166874 0.155608
H4    H     H_    0.833978 0.146085 0.098580 0.153996
H5    H     H_    0.592883 0.022583 0.324311 0.138260
H6    H     H_    0.688363 0.839354 0.339416 0.168091
H7    H     H_    0.822112 0.007083 0.312242 0.176840
H8    H     H_    0.311970 0.139499 0.666363 0.153440
H9    H     H_    0.415369 0.956029 0.668152 0.128393
H10   H     H_    0.185757 0.962432 0.685194 0.194673
H11   H     H_    0.963262 0.439924 0.319721 0.120923
H12   H     H_    0.239913 0.523826 0.071224 0.161121
H13   H     H_    0.830602 0.273253 0.361668 0.204064
H14   H     H_    0.040989 0.249162 0.309995 0.108437
H15   H     H_    0.700237 0.799422 0.904456 0.266677
H16   H     H_    0.907347 0.727642 0.917732 0.247339
H17   H     H_    0.801420 0.669801 0.824950 0.223610
H18   H     H_    0.853244 0.868913 0.141348 0.169950
H19   H     H_    0.766548 0.694027 0.188622 0.177308
H20   H     H_    0.630863 0.848108 0.181994 0.164197
H21   H     H_    0.915001 0.419654 0.025262 0.241306
H22   H     H_    0.967286 0.606450 0.064144 0.242082
H23   H     H_    0.987534 0.624082 0.561328 0.159589
H24   H     H_    0.850316 0.470022 0.134239 0.225178
H25   H     H_    0.459031 0.196369 0.827290 0.209762
H26   H     H_    0.661995 0.215373 0.873273 0.257474
H27   H     H_    0.488470 0.088337 0.918746 0.260758
H28   H     H_    0.139743 0.279775 0.058604 0.165646
H29   H     H_    0.205742 0.343557 0.164791 0.184841
H30   H     H_    0.138898 0.149821 0.141778 0.200684
H31   H     H_    0.419148 0.736344 0.945182 0.227134
H32   H     H_    0.774888 0.458847 0.918739 0.163255
H33   H     H_    0.309716 0.320724 0.946186 0.152923
H34   H     H_    0.196017 0.782251 0.096739 0.214308
H35   H     H_    0.327947 0.735423 0.177331 0.233107
H36   H     H_    0.416086 0.842674 0.085078 0.292355
N1    N     N_2   0.950340 0.457950 0.477370 0.126300
N2    N     N_2   0.049660 0.542050 0.522630 -0.076975
O1    O     O_R   0.389240 0.738570 0.505550 -0.587039
O2    O     O_3   0.712687 0.010679 0.436644 -0.564584
O3    O     O_3   0.285184 0.988535 0.560618 -0.572863
O4    O     O_3   0.034485 0.347810 0.430331 -0.464056
O5    O     O_3   0.694258 0.741400 0.063635 -0.584596
O6    O     O_3   0.379202 0.211203 0.087855 -0.617744
O7    O     O_R   0.678400 0.711630 0.491050 -0.615760
O8    O     O_R   0.355360 0.513470 0.630110 -0.621219
O9    O     O_R   0.644510 0.486530 0.615610 -0.631737
O10   O     O_R   0.321600 0.288370 0.508950 -0.537991
O11   O     O_R   0.610760 0.261430 0.494450 -0.592832
O12   O     O_R   0.355490 0.513470 0.384390 -0.577102
O13   O     O_R   0.644640 0.486530 0.369890 -0.668750
O14   O     O_3   0.663089 0.257812 0.034764 -0.649858
Zn1   Zn    Zn3+2 0.306930 0.517990 0.509680 1.041436
Zn2   Zn    Zn3+2 0.693070 0.482010 0.490320 0.990062

loop_
_geom_bond_atom_site_label_1
_geom_bond_atom_site_label_2
_ccdc_geom_bond_type
C7    C10   S    
C23   O6    S    
C24   H33   S    
C7    H32   S    
C13   H4    S    
C19   H22   S    
C11   H34   S    
C18   H19   S    
C14   H5    S    
C9    C25   T    
C7    C8    S    
C21   H29   S    
C26   C27   T    
C28   O2    S    
C17   H17   S    
C11   H35   S    
C6    C12   S    
N1    O4    S    
C12   C22   S    
C3    O8    A    
C15   H9    S    
C19   H24   S    
C20   C24   S    
C7    C17   S    
C22   C25   S    
C1    C28   S    
C8    C22   S    
C23   C24   S    
C23   O14   S    
C5    O13   A    
C2    O3    S    
C3    O9    A    
C10   C26   S    
C13   O14   S    
C20   H27   S    
C18   H18   S    
C15   O3    S    
C8    C19   S    
C21   O6    S    
C13   H2    S    
C16   O4    S    
C20   H26   S    
C11   H36   S    
C14   H7    S    
C10   C24   S    
C15   H8    S    
H23   N2    S    
C12   H12   S    
C2    C4    S    
C17   H15   S    
C15   H10   S    
C5    C9    S    
O13   Zn2   S    
C19   H21   S    
O1    Zn1   S    
O8    Zn1   S    
C16   H14   S    
O7    Zn2   S    
C18   O5    S    
C8    O5    S    
C6    H31   S    
C13   H3    S    
C20   H25   S    
C18   H20   S    
O10   Zn1   S    
C14   H6    S    
C21   H28   S    
C11   C12   S    
O9    Zn2   S    
C1    O7    A    
C3    C27   S    
C17   H16   S    
C4    O11   A    
N2    Zn1   S    
O12   Zn1   S    
N1    Zn2   S    
O11   Zn2   S    
C1    O1    A    
C4    O10   A    
C6    C10   S    
C16   H11   S    
C21   H30   S    
C6    H1    S    
N1    N2    D    
C14   O2    S    
C22   C23   S    
C2    C28   D    
C5    O12   A    
C16   H13   S    
