data_mof_unit_5694.cif
_audit_creation_date              2012-12-10T16:57:02-0500
_audit_creation_method            fapswitch 2.2
_symmetry_space_group_name_H-M    P1
_symmetry_Int_Tables_number       1
_space_group_crystal_system       triclinic
_cell_length_a                    7.847544
_cell_length_b                    8.545234
_cell_length_c                    16.616114
_cell_angle_alpha                 92.977017
_cell_angle_beta                  78.221375
_cell_angle_gamma                 94.106084
_cell_volume                      1087.20450388

loop_
_atom_site_label
_atom_site_type_symbol
_atom_type_description
_atom_site_fract_x
_atom_site_fract_y
_atom_site_fract_z
_atom_type_partial_charge
C1    C     C_R   0.546666 0.794302 0.495423 0.994382
C2    C     C_R   0.444204 0.550665 0.211466 -0.018605
C3    C     C_R   0.459962 0.499866 0.879057 -0.253746
C4    C     C_R   0.485583 0.547958 0.126121 -0.238402
C5    C     C_R   0.569336 0.635081 0.887830 0.161469
C6    C     C_R   0.648923 0.502673 0.082949 0.133043
C7    C     C_R   0.605269 0.745523 0.826188 0.165739
C8    C     C_R   0.759067 0.430393 0.124404 0.112791
C9    C     C_R   0.538112 0.714389 0.754442 -0.153727
C10   C     C_R   0.703748 0.404937 0.209169 -0.077201
C11   C     C_2   0.643898 0.656489 0.962806 -0.150469
C12   C     C_R   0.454028 0.205274 0.500926 0.990235
C13   C     C_2   0.697996 0.528048 0.993316 -0.124578
C14   C     C_2   0.320847 0.301943 0.792525 0.991141
C15   C     C_2   0.295201 0.642322 0.252469 0.993484
C16   C     C_2   0.795326 0.293363 0.249074 0.974033
C17   C     C_2   0.530158 0.842641 0.698295 0.922632
C18   C     C_2   0.769985 0.395805 0.937098 0.941151
C19   C     C_2   0.623223 0.808288 0.011504 0.959184
C20   C     C_2   0.008280 0.304020 0.458786 1.101845
C21   C     C_2   0.003071 0.699849 0.537953 1.130113
C22   C     C_2   0.571144 0.957837 0.491123 -0.255446
C23   C     C_2   0.430251 0.041255 0.499764 -0.262594
C24   C     C_R   0.474745 0.509051 0.654414 0.888172
C25   C     C_R   0.526091 0.492033 0.344792 0.928733
C26   C     C_R   0.465208 0.562146 0.739610 -0.161570
C27   C     C_R   0.554324 0.479599 0.254292 -0.183071
C28   C     C_R   0.416305 0.456535 0.803499 -0.120562
H1    H     H_    0.395697 0.595158 0.093412 0.157953
H2    H     H_    0.492116 0.005166 0.038738 0.374556
H3    H     H_    0.642869 0.982853 0.831767 0.228082
H4    H     H_    0.823438 0.886149 0.789100 0.250026
H5    H     H_    0.023817 0.444908 0.105366 0.248690
H6    H     H_    0.933098 0.263565 0.084379 0.244612
H7    H     H_    0.137822 0.154549 0.374081 0.335796
H8    H     H_    0.976122 0.879193 0.621904 0.375391
H9    H     H_    0.417885 0.423637 0.930429 0.146263
H10   H     H_    0.703967 0.009050 0.482633 0.212429
H11   H     H_    0.297331 0.989893 0.507797 0.207201
H12   H     H_    0.443459 0.185751 0.865505 0.313438
H13   H     H_    0.210870 0.821997 0.330594 0.365729
H14   H     H_    0.773083 0.112836 0.324931 0.347454
H15   H     H_    0.270950 0.800786 0.704190 0.343880
H16   H     H_    0.798022 0.163113 0.920133 0.365733
N1    N     N_2   0.953500 0.457650 0.478520 -0.183035
N2    N     N_2   0.046500 0.542350 0.521480 -0.185043
N3    N     N_3   0.712657 0.885279 0.836303 -0.429143
N4    N     N_3   0.925862 0.384369 0.079833 -0.422848
O1    O     O_R   0.388470 0.738640 0.505270 -0.615649
O2    O     O_R   0.345129 0.169901 0.834330 -0.746436
O3    O     O_2   0.153337 0.617748 0.232988 -0.594409
O4    O     O_R   0.320074 0.763549 0.309557 -0.783946
O5    O     O_2   0.954540 0.298679 0.236947 -0.578330
O6    O     O_R   0.697356 0.181741 0.301048 -0.796520
O7    O     O_2   0.658877 0.928649 0.673413 -0.587012
O8    O     O_R   0.372948 0.870975 0.676096 -0.747567
O9    O     O_2   0.858018 0.422737 0.868956 -0.571132
O10   O     O_R   0.737225 0.241174 0.962409 -0.809335
O11   O     O_2   0.718905 0.846871 0.059713 -0.579301
O12   O     O_R   0.611530 0.261360 0.494730 -0.616613
O13   O     O_R   0.494071 0.906469 0.002049 -0.777997
O14   O     O_2   0.964861 0.202065 0.509222 -0.618678
O15   O     O_R   0.107731 0.268543 0.381092 -0.770745
O16   O     O_2   0.010227 0.786878 0.481067 -0.647267
O17   O     O_R   0.979292 0.760667 0.618738 -0.798360
O18   O     O_R   0.679650 0.711510 0.491500 -0.618572
O19   O     O_R   0.320350 0.288490 0.508500 -0.613135
O20   O     O_R   0.337210 0.515200 0.623500 -0.581329
O21   O     O_R   0.662790 0.484800 0.376500 -0.617465
O22   O     O_R   0.628380 0.488060 0.609730 -0.608476
O23   O     O_R   0.371620 0.511940 0.390270 -0.588457
O24   O     O_2   0.216823 0.289131 0.746704 -0.517640
Zn1   Zn    Zn3+2 0.305580 0.518120 0.509190 1.056414
Zn2   Zn    Zn3+2 0.694420 0.481880 0.490810 1.042617

loop_
_geom_bond_atom_site_label_1
_geom_bond_atom_site_label_2
_ccdc_geom_bond_type
C10   C27   A    
O22   Zn2   S    
C2    C4    A    
C8    N4    S    
C14   C28   S    
C2    C27   A    
O19   Zn1   S    
C15   O3    D    
C25   C27   S    
C7    N3    S    
C17   O7    D    
C18   O9    D    
C26   C28   A    
C20   N1    S    
C17   O8    S    
C3    C5    A    
O1    Zn1   S    
C21   O17   S    
C7    C9    A    
C20   O15   S    
H7    O15   S    
C1    O18   A    
C24   O22   A    
C1    C22   S    
C10   C16   S    
C15   O4    S    
H14   O6    S    
C6    C13   S    
C2    C15   S    
C11   C13   D    
C12   C23   S    
C11   C19   S    
C14   O2    S    
C14   O24   D    
C13   C18   S    
C19   O13   S    
C25   O23   A    
C9    C17   S    
C3    C28   A    
C12   O19   A    
C24   C26   S    
C9    C26   A    
C5    C11   S    
C16   O6    S    
N2    Zn1   S    
C20   O14   D    
H4    N3    S    
H12   O2    S    
N1    N2    D    
C4    C6    A    
H6    N4    S    
C24   O20   A    
O18   Zn2   S    
H3    N3    S    
H15   O8    S    
O21   Zn2   S    
C25   O21   A    
C3    H9    S    
O23   Zn1   S    
C21   N2    S    
H2    O13   S    
O12   Zn2   S    
C5    C7    A    
H5    N4    S    
H8    O17   S    
N1    Zn2   S    
C21   O16   D    
C6    C8    A    
H13   O4    S    
C19   O11   D    
O20   Zn1   S    
C22   C23   D    
C1    O1    A    
C23   H11   S    
C8    C10   A    
C4    H1    S    
H16   O10   S    
C18   O10   S    
C16   O5    D    
C22   H10   S    
C12   O12   A    
