data_mof_unit_14114.cif
_audit_creation_date              2012-12-10T17:47:46-0500
_audit_creation_method            fapswitch 2.2
_symmetry_space_group_name_H-M    P1
_symmetry_Int_Tables_number       1
_space_group_crystal_system       triclinic
_cell_length_a                    14.674741
_cell_length_b                    14.693834
_cell_length_c                    14.331919
_cell_angle_alpha                 77.22026
_cell_angle_beta                  101.755367
_cell_angle_gamma                 115.304262
_cell_volume                      2703.66331224

loop_
_atom_site_label
_atom_site_type_symbol
_atom_type_description
_atom_site_fract_x
_atom_site_fract_y
_atom_site_fract_z
_atom_type_partial_charge
C1    C     C_R   0.880155 0.312091 0.516189 0.811377
C2    C     C_R   0.119589 0.687880 0.485175 0.798932
C3    C     C_R   0.639842 0.074015 0.521947 0.036542
C4    C     C_R   0.357647 0.927378 0.486465 0.031544
C5    C     C_R   0.671698 0.006191 0.594675 -0.001879
C6    C     C_R   0.327588 0.992659 0.408566 0.007172
C7    C     C_R   0.536000 0.045006 0.482748 0.032464
C8    C     C_R   0.461597 0.956190 0.526223 0.019610
C9    C     C_R   0.493871 0.896755 0.606079 -0.300020
C10   C     C_R   0.505505 0.101498 0.399303 -0.294320
C11   C     C_R   0.596391 0.914849 0.634441 0.433901
C12   C     C_R   0.403408 0.081040 0.365504 0.435566
C13   C     C_R   0.686881 0.599972 0.305726 -0.271179
C14   C     C_R   0.282446 0.338667 0.669631 -0.261700
C15   C     C_R   0.781590 0.602871 0.348604 -0.031176
C16   C     C_R   0.202076 0.368658 0.637794 -0.019421
C17   C     C_R   0.718584 0.523871 0.498559 0.644298
C18   C     C_R   0.285013 0.480608 0.505360 0.647312
C19   C     C_R   0.616804 0.506865 0.455542 -0.144353
C20   C     C_R   0.361199 0.439941 0.526432 -0.142665
C21   C     C_R   0.603090 0.549974 0.357704 -0.031745
C22   C     C_R   0.363878 0.375607 0.615259 -0.037144
C23   C     C_R   0.999695 0.499717 0.668777 0.817532
C24   C     C_R   0.000339 0.500114 0.331267 0.812252
C25   C     C_R   0.529721 0.453824 0.506638 -0.097833
C26   C     C_R   0.437729 0.466002 0.465938 -0.092881
C27   C     C_R   0.422466 0.494569 0.364685 0.127595
C28   C     C_R   0.526435 0.381637 0.591644 0.138256
C29   C     C_R   0.505734 0.540127 0.311715 0.372498
C30   C     C_R   0.445929 0.346293 0.647231 0.404537
C31   C     C_1   0.999661 0.499365 0.771199 -0.178471
C32   C     C_1   0.000811 0.499885 0.229060 -0.158804
C33   C     C_1   0.000082 0.499158 0.856796 -0.008471
C34   C     C_1   0.000925 0.499666 0.143681 0.020033
C35   C     C_1   0.000489 0.499228 0.957546 0.022076
C36   C     C_1   0.000770 0.499403 0.043021 0.026144
C37   C     C_R   0.812641 0.203836 0.534035 -0.085596
C38   C     C_R   0.185824 0.796479 0.469328 -0.095941
C39   C     C_R   0.777484 0.035542 0.627134 0.207307
C40   C     C_R   0.222593 0.962728 0.372658 0.215515
C41   C     C_R   0.846229 0.133796 0.596244 -0.212518
C42   C     C_R   0.153683 0.864507 0.402209 -0.227693
C43   C     C_R   0.711461 0.172701 0.494785 -0.187341
C44   C     C_R   0.284163 0.830284 0.516139 -0.220229
Cu1   Cu    Cu3+1 0.081740 0.475690 0.523180 0.983099
Cu2   Cu    Cu3+1 0.918260 0.524310 0.476820 0.972049
H1    H     H_    0.302509 0.775374 0.570517 0.137995
H2    H     H_    0.688559 0.229835 0.448321 0.160878
H3    H     H_    0.075373 0.839814 0.369241 0.174897
H4    H     H_    0.925728 0.157148 0.625073 0.176924
H5    H     H_    0.441124 0.834821 0.649521 0.158354
H6    H     H_    0.560684 0.158776 0.354724 0.149471
H7    H     H_    0.138028 0.337018 0.678478 0.158741
H8    H     H_    0.843608 0.635597 0.305361 0.160112
H9    H     H_    0.679070 0.633425 0.230794 0.193954
H10   H     H_    0.279620 0.285543 0.735870 0.198949
N1    N     N_R   0.795420 0.560790 0.441960 -0.218557
N2    N     N_R   0.204580 0.439210 0.558040 -0.208468
O1    O     O_R   0.977910 0.338120 0.530560 -0.583184
O2    O     O_R   0.022090 0.661880 0.469440 -0.585774
O3    O     O_R   0.839850 0.379180 0.491410 -0.554659
O4    O     O_R   0.160150 0.620820 0.508590 -0.555236
O5    O     O_R   0.069040 0.479460 0.643530 -0.584912
O6    O     O_R   0.930960 0.520540 0.356470 -0.588607
O7    O     O_R   0.930990 0.520530 0.604380 -0.508278
O8    O     O_R   0.069010 0.479470 0.395620 -0.499329
O9    O     O_3   0.620689 0.850517 0.711827 -0.540047
C45   C     C_3   0.593253 0.754562 0.684034 0.085994
H11   H     H_    0.646163 0.760975 0.634939 0.145081
H12   H     H_    0.514194 0.723295 0.647251 0.099171
C46   C     C_3   0.599970 0.678331 0.773382 -0.762268
H13   H     H_    0.545116 0.668510 0.821768 0.246772
H14   H     H_    0.581303 0.603502 0.752106 0.177315
H15   H     H_    0.677776 0.705679 0.812959 0.268930
O10   O     O_3   0.379951 0.133684 0.277792 -0.560168
C47   C     C_3   0.412299 0.237911 0.284313 0.086638
H16   H     H_    0.494895 0.274771 0.308894 0.131654
H17   H     H_    0.369144 0.247055 0.334591 0.182632
C48   C     C_3   0.392517 0.293731 0.184627 -0.684775
H18   H     H_    0.420795 0.376215 0.187076 0.247543
H19   H     H_    0.432644 0.282977 0.132772 0.233337
H20   H     H_    0.309852 0.264226 0.159235 0.273719
I1    I     I_    0.274580 0.436739 0.283781 -0.313849
I2    I     I_    0.612777 0.289987 0.620316 -0.296437
I3    I     I_    0.846995 0.943715 0.723533 -0.360912
I4    I     I_    0.154615 0.054833 0.274598 -0.317172
O11   O     O_3   0.490678 0.564443 0.212375 -0.581546
C49   C     C_3   0.486422 0.661131 0.188385 0.058769
H21   H     H_    0.547259 0.717826 0.231848 0.129327
H22   H     H_    0.410892 0.654696 0.198845 0.182733
C50   C     C_3   0.500173 0.700513 0.082549 -0.742606
H23   H     H_    0.439586 0.646811 0.036840 0.255318
H24   H     H_    0.495766 0.776101 0.062315 0.209687
H25   H     H_    0.575422 0.708379 0.069451 0.244337
O12   O     O_3   0.444384 0.277371 0.730787 -0.551351
C51   C     C_3   0.500193 0.332371 0.807591 0.051300
H26   H     H_    0.470121 0.388396 0.814241 0.126116
H27   H     H_    0.581921 0.373253 0.797212 0.167788
C52   C     C_3   0.491787 0.258504 0.901517 -0.716901
H28   H     H_    0.522638 0.202426 0.897936 0.265040
H29   H     H_    0.535673 0.300940 0.962401 0.191906
H30   H     H_    0.410986 0.217372 0.914551 0.248495
O13   O     O_3   0.291560 0.562950 0.433914 -0.543121
C53   C     C_3   0.372247 0.651617 0.463505 0.042678
H31   H     H_    0.446603 0.644857 0.477984 0.110785
H32   H     H_    0.358161 0.667775 0.530068 0.135689
C54   C     C_3   0.381109 0.741405 0.383763 -0.740437
H33   H     H_    0.401946 0.729304 0.318964 0.221664
H34   H     H_    0.441254 0.812253 0.407780 0.198853
H35   H     H_    0.307757 0.749988 0.364302 0.262556
O14   O     O_3   0.742811 0.514085 0.597385 -0.556653
C55   C     C_3   0.763464 0.607836 0.625715 0.053625
H36   H     H_    0.695922 0.627580 0.605280 0.114775
H37   H     H_    0.829415 0.670303 0.592310 0.158858
C56   C     C_3   0.789547 0.599884 0.734557 -0.746467
H38   H     H_    0.856724 0.580694 0.757573 0.258175
H39   H     H_    0.807608 0.673986 0.756928 0.219695
H40   H     H_    0.724464 0.540070 0.770385 0.228255

loop_
_geom_bond_atom_site_label_1
_geom_bond_atom_site_label_2
_ccdc_geom_bond_type
C7    C10   A    
C14   H10   S    
O11   C49   S    
C28   I2    S    
C54   H34   S    
O12   C51   S    
C9    H5    S    
C47   C48   S    
C4    C8    A    
C10   H6    S    
C48   H20   S    
C53   H32   S    
C7    C8    A    
C39   C41   A    
Cu1   Cu2   S    
C25   C28   A    
C3    C43   A    
C26   C27   A    
C19   C21   A    
C47   H17   S    
C5    C11   A    
C3    C7    A    
C1    O1    A    
C6    C12   A    
C2    O2    A    
C23   O5    A    
C27   C29   A    
C56   H38   S    
C51   C52   S    
Cu1   O4    S    
C40   I4    S    
C16   H7    S    
C53   H31   S    
C33   C35   S    
C18   N2    A    
C35   C36   T    
C45   H11   S    
C56   H39   S    
C51   H27   S    
C54   H33   S    
C31   C33   T    
C14   C16   A    
C27   I1    S    
C43   H2    S    
C18   C20   A    
C44   H1    S    
C24   O8    A    
C40   C42   A    
C24   O6    A    
C15   N1    A    
C17   O14   S    
C55   H37   S    
C55   H36   S    
C11   O9    S    
Cu1   N2    S    
Cu2   O3    S    
O9    C45   S    
C15   H8    S    
C47   H16   S    
Cu2   O7    S    
C4    C6    A    
C50   H23   S    
C46   H14   S    
C8    C9    A    
C4    C44   A    
C25   C26   A    
C21   C29   A    
Cu1   O5    S    
Cu2   O6    S    
C23   C31   S    
C37   C43   A    
O10   C47   S    
C24   C32   S    
C38   C44   A    
C30   O12   S    
C50   H24   S    
C2    C38   S    
C52   H28   S    
C49   C50   S    
C56   H40   S    
C51   H26   S    
C13   C21   A    
C16   N2    A    
C9    C11   A    
C10   C12   A    
C52   H29   S    
C49   H22   S    
C13   C15   A    
Cu2   N1    S    
C54   H35   S    
C6    C40   A    
C39   I3    S    
C41   H4    S    
O13   C53   S    
C48   H19   S    
Cu1   O1    S    
C22   C30   A    
O14   C55   S    
Cu2   O2    S    
C20   C22   A    
C3    C5    A    
C1    O3    A    
C46   H15   S    
C38   C42   A    
C1    C37   S    
C23   O7    A    
C5    C39   A    
C46   H13   S    
C50   H25   S    
C14   C22   A    
C20   C26   A    
C45   C46   S    
C28   C30   A    
C17   C19   A    
C34   C36   S    
C18   O13   S    
C53   C54   S    
C37   C41   A    
C19   C25   A    
C29   O11   S    
C42   H3    S    
C48   H18   S    
C52   H30   S    
C49   H21   S    
C45   H12   S    
C12   O10   S    
C17   N1    A    
Cu1   O8    S    
C55   C56   S    
C2    O4    A    
C32   C34   T    
C13   H9    S    
