data_mof_unit_52676.cif
_audit_creation_date              2012-12-10T19:30:40-0500
_audit_creation_method            fapswitch 2.2
_symmetry_space_group_name_H-M    P1
_symmetry_Int_Tables_number       1
_space_group_crystal_system       triclinic
_cell_length_a                    14.961863
_cell_length_b                    15.756021
_cell_length_c                    15.445405
_cell_angle_alpha                 89.95441
_cell_angle_beta                  85.706673
_cell_angle_gamma                 89.947193
_cell_volume                      3630.87101418

loop_
_atom_site_label
_atom_site_type_symbol
_atom_type_description
_atom_site_fract_x
_atom_site_fract_y
_atom_site_fract_z
_atom_type_partial_charge
C1    C     C_R   0.499978 0.662389 0.499947 0.902387
C2    C     C_3   0.585039 0.027327 0.497698 0.374176
C3    C     C_3   0.500623 0.916641 0.498867 -0.102549
C4    C     C_3   0.499834 0.083030 0.501336 -0.102828
C5    C     C_1   0.500162 0.826017 0.499226 0.114050
C6    C     C_1   0.500087 0.173751 0.500914 0.109662
C7    C     C_3   0.030632 0.579565 0.489674 -0.038342
C8    C     C_3   0.969346 0.420784 0.510365 -0.037696
C9    C     C_3   0.975736 0.531099 0.424564 -0.037888
C10   C     C_3   0.024228 0.469252 0.575472 -0.037382
C11   C     C_3   0.964802 0.548522 0.565118 -0.038371
C12   C     C_R   0.500030 0.337557 0.500057 0.897381
C13   C     C_3   0.035159 0.451827 0.434917 -0.034806
C14   C     C_3   0.909699 0.500051 0.500011 -0.052215
C15   C     C_3   0.090280 0.500284 0.500027 -0.051839
C16   C     C_R   0.487961 0.502155 0.657843 0.885315
C17   C     C_R   0.512001 0.502018 0.342179 0.887336
C18   C     C_1   0.809928 0.500011 0.499987 0.095536
C19   C     C_1   0.190066 0.500151 0.500032 0.097389
C20   C     C_R   0.481040 0.527034 0.750681 -0.108232
C21   C     C_R   0.518370 0.526828 0.249359 -0.107399
C22   C     C_R   0.558088 0.531429 0.797034 -0.327429
C23   C     C_3   0.461385 0.027973 0.430279 0.371497
C24   C     C_R   0.441908 0.525556 0.202056 -0.327070
C25   C     C_R   0.558860 0.578846 0.875306 0.496547
C26   C     C_R   0.438160 0.572726 0.123881 0.493095
C27   C     C_R   0.481254 0.625744 0.902975 0.038754
C28   C     C_R   0.511706 0.625532 0.097546 0.036139
C29   C     C_R   0.401375 0.613789 0.860922 -0.031811
C30   C     C_R   0.591854 0.619221 0.140396 -0.036695
C31   C     C_R   0.401307 0.563083 0.786889 -0.254429
C32   C     C_R   0.595268 0.568522 0.214245 -0.257648
C33   C     C_2   0.488875 0.702902 0.957486 -0.012771
C34   C     C_3   0.539098 0.971576 0.569926 0.373694
C35   C     C_2   0.497871 0.702628 0.044306 -0.009765
C36   C     C_1   0.063617 0.666895 0.478188 0.188254
C37   C     C_1   0.936390 0.333442 0.521847 0.183065
C38   C     C_1   0.073227 0.398772 0.363198 0.173440
C39   C     C_1   0.926660 0.601531 0.636852 0.172744
C40   C     C_1   0.496079 0.782399 0.091716 0.177019
C41   C     C_1   0.483471 0.783161 0.911570 0.179176
C42   C     C_1   0.320843 0.660993 0.886828 0.233884
C43   C     C_1   0.668392 0.672291 0.115751 0.235667
C44   C     C_3   0.306149 0.505312 0.088221 0.089082
C45   C     C_3   0.546698 0.972848 0.426431 -0.259198
C46   C     C_3   0.241607 0.502495 0.016813 -0.775586
C47   C     C_3   0.697613 0.522696 0.908247 0.086875
C48   C     C_3   0.763430 0.525309 0.978543 -0.771237
C49   C     C_1   0.596040 0.939618 0.347913 0.182470
C50   C     C_1   0.404537 0.059469 0.652543 0.181953
C51   C     C_3   0.396027 0.002955 0.301562 0.121587
C52   C     C_3   0.322987 0.037736 0.248046 -0.796265
C53   C     C_3   0.605044 0.995299 0.698640 0.115742
C54   C     C_3   0.677874 0.959346 0.751718 -0.782493
C55   C     C_3   0.737794 0.001677 0.489272 0.113144
C56   C     C_3   0.453805 0.026717 0.573801 -0.255790
C57   C     C_3   0.824638 0.037849 0.518821 -0.790430
C58   C     C_3   0.262680 0.997710 0.510816 0.112974
C59   C     C_3   0.175748 0.961129 0.481913 -0.787040
C60   C     C_1   0.949680 0.565062 0.341526 0.176645
C61   C     C_1   0.050177 0.435347 0.658561 0.173926
C62   C     C_1   0.499968 0.750977 0.499582 -0.161922
C63   C     C_1   0.500105 0.248856 0.500490 -0.169696
C64   C     C_3   0.415466 0.972265 0.502535 0.377083
H1    H     H_    0.618922 0.503074 0.767986 0.148916
H2    H     H_    0.737040 0.529196 0.844640 0.161851
H3    H     H_    0.663269 0.459888 0.912701 0.136836
H4    H     H_    0.727649 0.514428 0.043135 0.249284
H5    H     H_    0.814481 0.474610 0.966687 0.209152
H6    H     H_    0.797983 0.587661 0.977846 0.272640
H7    H     H_    0.370048 0.943881 0.334158 0.170633
H8    H     H_    0.455050 0.986965 0.256646 0.177862
H9    H     H_    0.347158 0.095624 0.212534 0.264485
H10   H     H_    0.304545 0.989322 0.200312 0.219999
H11   H     H_    0.262651 0.053889 0.291203 0.251842
H12   H     H_    0.383344 0.492798 0.230324 0.150081
H13   H     H_    0.546299 0.011684 0.743779 0.171313
H14   H     H_    0.631630 0.054246 0.666244 0.163907
H15   H     H_    0.738022 0.943164 0.708317 0.250793
H16   H     H_    0.696795 0.007069 0.799937 0.209476
H17   H     H_    0.653347 0.901247 0.786622 0.276078
H18   H     H_    0.749650 0.982650 0.420157 0.165179
H19   H     H_    0.720555 0.944345 0.529284 0.170727
H20   H     H_    0.814949 0.057707 0.587877 0.255388
H21   H     H_    0.878203 0.988934 0.512274 0.208781
H22   H     H_    0.845774 0.093621 0.478330 0.274862
H23   H     H_    0.655173 0.569616 0.249663 0.177021
H24   H     H_    0.279674 0.054748 0.470283 0.170390
H25   H     H_    0.251073 0.017253 0.579800 0.165578
H26   H     H_    0.154861 0.905649 0.522942 0.275212
H27   H     H_    0.122117 0.009989 0.488254 0.207466
H28   H     H_    0.185192 0.940724 0.413009 0.257095
H29   H     H_    0.340898 0.559670 0.752378 0.176565
H30   H     H_    0.265195 0.508019 0.151283 0.160361
H31   H     H_    0.346554 0.445749 0.083783 0.140655
H32   H     H_    0.279307 0.495167 0.952615 0.249711
H33   H     H_    0.195790 0.447433 0.027360 0.212517
H34   H     H_    0.200902 0.561472 0.017611 0.270284
N1    N     N_1   0.731990 0.500000 0.499970 -0.082889
N2    N     N_1   0.729499 0.715002 0.096220 -0.175425
N3    N     N_1   0.634894 0.913305 0.286084 -0.187626
N4    N     N_1   0.365729 0.085344 0.714593 -0.201919
N5    N     N_1   0.929096 0.591803 0.276116 -0.189762
N6    N     N_1   0.070651 0.408663 0.724031 -0.195620
N7    N     N_1   0.268010 0.500000 0.500030 -0.082589
N8    N     N_1   0.089638 0.735690 0.469100 -0.194091
N9    N     N_1   0.910397 0.264636 0.530927 -0.198204
N10   N     N_1   0.103274 0.357010 0.306683 -0.202793
N11   N     N_1   0.896541 0.643240 0.693381 -0.187583
N12   N     N_1   0.494616 0.845818 0.129544 -0.203357
N13   N     N_1   0.479098 0.846954 0.874922 -0.175466
N14   N     N_1   0.256528 0.699018 0.907393 -0.181144
O1    O     O_R   0.425540 0.623220 0.500000 -0.593839
O2    O     O_3   0.635919 0.590694 0.919781 -0.615219
O3    O     O_3   0.419815 0.065754 0.360737 -0.606760
O4    O     O_3   0.580412 0.933105 0.639245 -0.599127
O5    O     O_3   0.670736 0.064788 0.497619 -0.598448
O6    O     O_3   0.329823 0.934678 0.502675 -0.596988
O7    O     O_R   0.574460 0.376780 0.500000 -0.594004
O8    O     O_R   0.574480 0.623220 0.499990 -0.602106
O9    O     O_R   0.425520 0.376780 0.500010 -0.601320
O10   O     O_R   0.416730 0.500010 0.615810 -0.600898
O11   O     O_R   0.583270 0.499990 0.384190 -0.600670
O12   O     O_R   0.565670 0.500010 0.615790 -0.597813
O13   O     O_R   0.434330 0.499990 0.384210 -0.596783
O14   O     O_3   0.361011 0.578437 0.078395 -0.617382
Zn1   Zn    Zn3+2 0.400550 0.500000 0.500010 0.983705
Zn2   Zn    Zn3+2 0.599450 0.500000 0.499990 0.982324

loop_
_geom_bond_atom_site_label_1
_geom_bond_atom_site_label_2
_ccdc_geom_bond_type
C47   O2    S    
C34   C56   S    
C8    C13   S    
C23   C45   S    
C29   C42   S    
C27   C29   A    
C7    C36   S    
C14   C18   S    
C53   H13   S    
C48   H5    S    
C52   H11   S    
C1    C62   S    
C53   C54   S    
C27   C33   S    
C7    C11   S    
C44   O14   S    
C1    O1    A    
C24   C26   A    
C37   N9    T    
C52   H10   S    
C10   C15   S    
C49   N3    T    
C11   C14   S    
C34   O4    S    
C58   O6    S    
C64   O6    S    
C57   H22   S    
C26   O14   S    
O10   Zn1   S    
C16   O10   A    
C9    C13   S    
C15   C19   S    
C17   O11   A    
C12   O9    A    
C28   C35   S    
C22   C25   A    
C56   C64   S    
C60   N5    T    
C47   H2    S    
C53   O4    S    
O12   Zn2   S    
O7    Zn2   S    
C2    C34   S    
C7    C15   S    
C46   H34   S    
C4    C56   S    
C51   H7    S    
C47   H3    S    
C2    O5    S    
C44   C46   S    
C54   H16   S    
C2    C45   S    
C21   C32   A    
C8    C37   S    
N7    Zn1   S    
C36   N8    T    
C51   C52   S    
C61   N6    T    
C43   N2    T    
C4    C6    S    
C52   H9    S    
C4    C23   S    
C24   H12   S    
C42   N14   T    
C3    C34   S    
C58   C59   S    
C3    C64   S    
C32   H23   S    
C3    C45   S    
C50   C56   S    
C1    O8    A    
C6    C63   T    
C2    C4    S    
C9    C14   S    
C22   H1    S    
C12   O7    A    
C47   C48   S    
C45   C49   S    
C16   C20   S    
C57   H20   S    
C59   H27   S    
C48   H4    S    
C55   H18   S    
C11   C39   S    
C13   C38   S    
C19   N7    T    
C23   C64   S    
C46   H33   S    
C20   C22   A    
C50   N4    T    
C55   C57   S    
C30   C43   S    
C10   C61   S    
C51   H8    S    
C55   H19   S    
C54   H15   S    
C55   O5    S    
C7    C9    S    
C8    C14   S    
C48   H6    S    
C3    C5    S    
C58   H24   S    
C18   N1    T    
C40   N12   T    
O8    Zn2   S    
O9    Zn1   S    
N1    Zn2   S    
O1    Zn1   S    
C25   C27   A    
C26   C28   A    
C9    C60   S    
C33   C41   S    
C13   C15   S    
C35   C40   S    
C16   O12   A    
C29   C31   A    
C44   H31   S    
C31   H29   S    
C25   O2    S    
C30   C32   A    
C17   O13   A    
O11   Zn2   S    
C28   C30   A    
C33   C35   D    
C57   H21   S    
C5    C62   T    
C53   H14   S    
C59   H28   S    
C38   N10   T    
C58   H25   S    
C51   O3    S    
C44   H30   S    
C10   C11   S    
C23   O3    S    
C39   N11   T    
C46   H32   S    
C8    C10   S    
C41   N13   T    
C21   C24   A    
O13   Zn1   S    
C12   C63   S    
C59   H26   S    
C54   H17   S    
C20   C31   A    
C17   C21   S    
