data_mof_unit_32390.cif
_audit_creation_date              2012-12-10T17:54:42-0500
_audit_creation_method            fapswitch 2.2
_symmetry_space_group_name_H-M    P1
_symmetry_Int_Tables_number       1
_space_group_crystal_system       triclinic
_cell_length_a                    21.614113
_cell_length_b                    21.614101
_cell_length_c                    30.073456
_cell_angle_alpha                 89.999947
_cell_angle_beta                  89.999942
_cell_angle_gamma                 89.999985
_cell_volume                      14049.4050539

loop_
_atom_site_label
_atom_site_type_symbol
_atom_type_description
_atom_site_fract_x
_atom_site_fract_y
_atom_site_fract_z
_atom_type_partial_charge
C1    C     C_R   0.500000 0.119905 0.500000 0.894419
C2    C     C_R   0.000000 0.500000 0.773227 0.022043
C3    C     C_R   0.957824 0.536723 0.842954 -0.237310
C4    C     C_R   0.536721 0.957822 0.157046 -0.237307
C5    C     C_R   0.042176 0.536723 0.157046 -0.237309
C6    C     C_R   0.463279 0.042177 0.157046 -0.237308
C7    C     C_R   0.957824 0.463277 0.157046 -0.237309
C8    C     C_R   0.036721 0.542177 0.342954 -0.237307
C9    C     C_R   0.542176 0.963277 0.342954 -0.237309
C10   C     C_R   0.963278 0.457823 0.342954 -0.237308
C11   C     C_R   0.457824 0.036723 0.342954 -0.237310
C12   C     C_R   0.036721 0.457822 0.657046 -0.237307
C13   C     C_R   0.500000 1.000000 0.226773 0.022043
C14   C     C_R   0.542176 0.036723 0.657046 -0.237309
C15   C     C_R   0.963279 0.542177 0.657046 -0.237308
C16   C     C_R   0.457824 0.963277 0.657046 -0.237309
C17   C     C_R   0.500000 0.000000 0.865528 -0.042096
C18   C     C_R   0.000000 0.500000 0.865528 -0.042095
C19   C     C_R   0.500000 1.000000 0.134472 -0.042095
C20   C     C_R   1.000000 0.500000 0.134472 -0.042095
C21   C     C_R   1.000000 0.500000 0.365528 -0.042095
C22   C     C_R   0.500000 1.000000 0.365528 -0.042095
C23   C     C_R   1.000000 0.500000 0.634472 -0.042095
C24   C     C_R   1.000000 0.500000 0.226773 0.022043
C25   C     C_R   0.500000 0.000000 0.634472 -0.042095
C26   C     C_R   0.461408 0.957916 0.796563 0.045944
C27   C     C_R   0.957917 0.538593 0.796563 0.045944
C28   C     C_R   0.538591 0.042084 0.796563 0.045944
C29   C     C_R   0.042083 0.461406 0.796563 0.045944
C30   C     C_R   0.461409 0.042084 0.203436 0.045943
C31   C     C_R   0.957917 0.461407 0.203436 0.045945
C32   C     C_R   0.538591 0.957915 0.203436 0.045944
C33   C     C_R   0.042082 0.538593 0.203436 0.045944
C34   C     C_R   0.961408 0.457916 0.296563 0.045944
C35   C     C_R   1.000000 0.500000 0.273227 0.022042
C36   C     C_R   0.457918 0.038593 0.296563 0.045944
C37   C     C_R   0.038591 0.542084 0.296563 0.045944
C38   C     C_R   0.542083 0.961407 0.296563 0.045944
C39   C     C_R   0.961409 0.542084 0.703436 0.045943
C40   C     C_R   0.457917 0.961407 0.703436 0.045945
C41   C     C_R   0.038591 0.457915 0.703436 0.045944
C42   C     C_R   0.542083 0.038593 0.703436 0.045944
C43   C     C_R   0.380439 0.873697 0.797623 0.139713
C44   C     C_R   0.405940 0.820565 0.817261 -0.174223
C45   C     C_R   0.367912 0.778846 0.839967 -0.142885
C46   C     C_R   0.500000 1.000000 0.273227 0.022043
C47   C     C_R   0.304315 0.789825 0.843081 -0.107578
C48   C     C_R   0.278630 0.842499 0.823425 -0.138969
C49   C     C_R   0.316486 0.884311 0.800679 -0.144825
C50   C     C_R   0.873703 0.619567 0.797623 0.139712
C51   C     C_R   0.820569 0.594069 0.817261 -0.174223
C52   C     C_R   0.778852 0.632100 0.839967 -0.142884
C53   C     C_R   0.789834 0.695696 0.843081 -0.107578
C54   C     C_R   0.842510 0.721377 0.823424 -0.138970
C55   C     C_R   0.884320 0.683519 0.800678 -0.144827
C56   C     C_R   0.619560 0.126304 0.797623 0.139712
C57   C     C_R   1.000000 0.500000 0.726773 0.022043
C58   C     C_R   0.594058 0.179436 0.817261 -0.174223
C59   C     C_R   0.632085 0.221155 0.839967 -0.142885
C60   C     C_R   0.695682 0.210179 0.843080 -0.107579
C61   C     C_R   0.721368 0.157505 0.823424 -0.138967
C62   C     C_R   0.683513 0.115692 0.800678 -0.144825
C63   C     C_R   0.126297 0.380433 0.797623 0.139712
C64   C     C_R   0.179431 0.405931 0.817261 -0.174223
C65   C     C_R   0.221148 0.367900 0.839967 -0.142884
C66   C     C_R   0.210166 0.304304 0.843081 -0.107577
C67   C     C_R   0.157491 0.278623 0.823424 -0.138969
C68   C     C_R   0.500000 0.000000 0.726773 0.022043
C69   C     C_R   0.115680 0.316480 0.800678 -0.144827
C70   C     C_R   0.380440 0.126304 0.202377 0.139712
C71   C     C_R   0.405942 0.179436 0.182739 -0.174222
C72   C     C_R   0.367914 0.221155 0.160033 -0.142885
C73   C     C_R   0.304317 0.210178 0.156919 -0.107578
C74   C     C_R   0.278632 0.157504 0.176576 -0.138967
C75   C     C_R   0.316487 0.115691 0.199322 -0.144825
C76   C     C_R   0.873702 0.380434 0.202377 0.139712
C77   C     C_R   0.820568 0.405932 0.182739 -0.174222
C78   C     C_R   0.778851 0.367902 0.160033 -0.142885
C79   C     C_R   0.420895 0.917923 0.773346 -0.077748
C80   C     C_R   0.789832 0.304306 0.156920 -0.107578
C81   C     C_R   0.842507 0.278624 0.176576 -0.138968
C82   C     C_R   0.884318 0.316481 0.199322 -0.144828
C83   C     C_R   0.619560 0.873696 0.202377 0.139713
C84   C     C_R   0.594059 0.820564 0.182739 -0.174223
C85   C     C_R   0.632086 0.778845 0.160033 -0.142884
C86   C     C_R   0.695683 0.789822 0.156919 -0.107579
C87   C     C_R   0.721368 0.842496 0.176576 -0.138968
C88   C     C_R   0.683513 0.884309 0.199322 -0.144825
C89   C     C_R   0.126297 0.619567 0.202377 0.139713
C90   C     C_R   0.917927 0.579109 0.773346 -0.077748
C91   C     C_R   0.179431 0.594068 0.182739 -0.174224
C92   C     C_R   0.221148 0.632099 0.160033 -0.142885
C93   C     C_R   0.210166 0.695695 0.156919 -0.107578
C94   C     C_R   0.157491 0.721377 0.176575 -0.138969
C95   C     C_R   0.115680 0.683519 0.199321 -0.144827
C96   C     C_R   0.880438 0.373698 0.297623 0.139713
C97   C     C_R   0.905940 0.320565 0.317261 -0.174223
C98   C     C_R   0.867911 0.278846 0.339967 -0.142885
C99   C     C_R   0.804315 0.289825 0.343081 -0.107577
C100  C     C_R   0.778630 0.342499 0.323425 -0.138969
C101  C     C_R   0.579104 0.082077 0.773346 -0.077748
C102  C     C_R   0.816486 0.384311 0.300679 -0.144825
C103  C     C_R   0.373703 0.119567 0.297623 0.139713
C104  C     C_R   0.320569 0.094069 0.317261 -0.174223
C105  C     C_R   0.278852 0.132100 0.339967 -0.142884
C106  C     C_R   0.289834 0.195696 0.343081 -0.107578
C107  C     C_R   0.342510 0.221377 0.323424 -0.138969
C108  C     C_R   0.384320 0.183520 0.300679 -0.144829
C109  C     C_R   0.119560 0.626304 0.297623 0.139712
C110  C     C_R   0.094058 0.679436 0.317261 -0.174223
C111  C     C_R   0.132085 0.721155 0.339967 -0.142885
C112  C     C_R   0.119905 0.500000 0.500000 0.894420
C113  C     C_R   0.082073 0.420891 0.773346 -0.077748
C114  C     C_R   0.195682 0.710179 0.343080 -0.107579
C115  C     C_R   0.221368 0.657505 0.323424 -0.138968
C116  C     C_R   0.183513 0.615692 0.300678 -0.144824
C117  C     C_R   0.626297 0.880433 0.297623 0.139712
C118  C     C_R   0.679431 0.905931 0.317261 -0.174223
C119  C     C_R   0.721148 0.867900 0.339967 -0.142885
C120  C     C_R   0.710166 0.804304 0.343081 -0.107577
C121  C     C_R   0.657491 0.778623 0.323424 -0.138969
C122  C     C_R   0.615680 0.816480 0.300679 -0.144827
C123  C     C_R   0.880440 0.626304 0.702377 0.139712
C124  C     C_R   0.420896 0.082077 0.226654 -0.077748
C125  C     C_R   0.905942 0.679436 0.682739 -0.174222
C126  C     C_R   0.867914 0.721155 0.660033 -0.142885
C127  C     C_R   0.804317 0.710178 0.656919 -0.107578
C128  C     C_R   0.778632 0.657504 0.676576 -0.138967
C129  C     C_R   0.816487 0.615691 0.699321 -0.144825
C130  C     C_R   0.373702 0.880434 0.702377 0.139712
C131  C     C_R   0.320568 0.905932 0.682739 -0.174222
C132  C     C_R   0.278851 0.867902 0.660033 -0.142885
C133  C     C_R   0.289832 0.804306 0.656920 -0.107578
C134  C     C_R   0.342507 0.778624 0.676576 -0.138968
C135  C     C_R   0.917926 0.420892 0.226654 -0.077748
C136  C     C_R   0.384318 0.816481 0.699322 -0.144828
C137  C     C_R   0.119560 0.373696 0.702377 0.139712
C138  C     C_R   0.094059 0.320564 0.682739 -0.174223
C139  C     C_R   0.132086 0.278845 0.660033 -0.142884
C140  C     C_R   0.195683 0.289822 0.656919 -0.107579
C141  C     C_R   0.221368 0.342496 0.676576 -0.138967
C142  C     C_R   0.183513 0.384309 0.699322 -0.144825
C143  C     C_R   0.626297 0.119567 0.702377 0.139713
C144  C     C_R   0.679431 0.094068 0.682739 -0.174224
C145  C     C_R   0.721148 0.132099 0.660033 -0.142885
C146  C     C_R   0.579104 0.917923 0.226654 -0.077748
C147  C     C_R   0.710166 0.195695 0.656919 -0.107577
C148  C     C_R   0.657491 0.221377 0.676575 -0.138969
C149  C     C_R   0.615680 0.183519 0.699321 -0.144828
C150  C     C_R   0.551777 0.186030 0.424017 0.097514
C151  C     C_R   0.520183 0.186770 0.383219 -0.184003
C152  C     C_R   0.546522 0.159047 0.345686 -0.135340
C153  C     C_R   0.604011 0.129817 0.348734 -0.102307
C154  C     C_R   0.635979 0.129463 0.389110 -0.143414
C155  C     C_R   0.610372 0.158128 0.426519 -0.097295
C156  C     C_R   0.186030 0.448228 0.424015 0.097510
C157  C     C_R   0.082073 0.579108 0.226654 -0.077748
C158  C     C_R   0.186773 0.479823 0.383218 -0.184001
C159  C     C_R   0.159050 0.453487 0.345684 -0.135339
C160  C     C_R   0.129818 0.395998 0.348730 -0.102309
C161  C     C_R   0.129462 0.364029 0.389105 -0.143413
C162  C     C_R   0.158126 0.389634 0.426516 -0.097299
C163  C     C_R   0.448223 0.813970 0.424017 0.097513
C164  C     C_R   0.479817 0.813230 0.383219 -0.184004
C165  C     C_R   0.453478 0.840952 0.345686 -0.135339
C166  C     C_R   0.395989 0.870183 0.348733 -0.102308
C167  C     C_R   0.364022 0.870537 0.389109 -0.143414
C168  C     C_R   0.920895 0.417923 0.273346 -0.077748
C169  C     C_R   0.389629 0.841873 0.426519 -0.097295
C170  C     C_R   0.813970 0.551774 0.424016 0.097510
C171  C     C_R   0.813228 0.520179 0.383218 -0.184001
C172  C     C_R   0.840951 0.546516 0.345685 -0.135338
C173  C     C_R   0.870183 0.604004 0.348731 -0.102309
C174  C     C_R   0.870538 0.635973 0.389106 -0.143414
C175  C     C_R   0.841874 0.610368 0.426516 -0.097298
C176  C     C_R   0.551776 0.813970 0.575983 0.097513
C177  C     C_R   0.520182 0.813229 0.616781 -0.184003
C178  C     C_R   0.546521 0.840951 0.654314 -0.135338
C179  C     C_R   0.417927 0.079108 0.273346 -0.077748
C180  C     C_R   0.604009 0.870183 0.651267 -0.102309
C181  C     C_R   0.635977 0.870537 0.610891 -0.143413
C182  C     C_R   0.610371 0.841873 0.573481 -0.097296
C183  C     C_R   0.186030 0.551772 0.575985 0.097509
C184  C     C_R   0.186772 0.520177 0.616782 -0.184000
C185  C     C_R   0.159049 0.546514 0.654316 -0.135340
C186  C     C_R   0.129817 0.604002 0.651270 -0.102308
C187  C     C_R   0.129462 0.635971 0.610894 -0.143414
C188  C     C_R   0.158126 0.610366 0.573484 -0.097298
C189  C     C_R   0.448223 0.186030 0.575983 0.097513
C190  C     C_R   0.079104 0.582077 0.273346 -0.077748
C191  C     C_R   0.479817 0.186771 0.616781 -0.184004
C192  C     C_R   0.453478 0.159048 0.654314 -0.135338
C193  C     C_R   0.395989 0.129817 0.651267 -0.102308
C194  C     C_R   0.364022 0.129463 0.610891 -0.143414
C195  C     C_R   0.389629 0.158127 0.573481 -0.097295
C196  C     C_R   0.813970 0.448227 0.575984 0.097510
C197  C     C_R   0.813228 0.479822 0.616782 -0.184001
C198  C     C_R   0.840951 0.453485 0.654315 -0.135338
C199  C     C_R   0.870183 0.395997 0.651269 -0.102309
C200  C     C_R   0.870538 0.364028 0.610894 -0.143413
C201  C     C_R   0.582073 0.920891 0.273346 -0.077748
C202  C     C_R   0.841874 0.389633 0.573484 -0.097298
C203  C     C_R   0.051777 0.686030 0.924017 0.097514
C204  C     C_R   0.020183 0.686770 0.883219 -0.184003
C205  C     C_R   0.046522 0.659047 0.845686 -0.135340
C206  C     C_R   0.104011 0.629817 0.848734 -0.102307
C207  C     C_R   0.135979 0.629463 0.889110 -0.143414
C208  C     C_R   0.110372 0.658127 0.926519 -0.097295
C209  C     C_R   0.686030 0.948228 0.924015 0.097510
C210  C     C_R   0.686773 0.979823 0.883218 -0.184001
C211  C     C_R   0.659050 0.953487 0.845684 -0.135338
C212  C     C_R   0.920896 0.582077 0.726654 -0.077748
C213  C     C_R   0.629818 0.895998 0.848730 -0.102309
C214  C     C_R   0.629462 0.864029 0.889105 -0.143413
C215  C     C_R   0.658126 0.889634 0.926516 -0.097299
C216  C     C_R   0.948223 0.313970 0.924017 0.097512
C217  C     C_R   0.979817 0.313230 0.883219 -0.184003
C218  C     C_R   0.953478 0.340952 0.845686 -0.135339
C219  C     C_R   0.895989 0.370183 0.848733 -0.102308
C220  C     C_R   0.864022 0.370537 0.889109 -0.143414
C221  C     C_R   0.889629 0.341873 0.926519 -0.097294
C222  C     C_R   0.313970 0.051773 0.924016 0.097510
C223  C     C_R   0.500000 0.880095 0.500000 0.894419
C224  C     C_R   0.417926 0.920892 0.726654 -0.077748
C225  C     C_R   0.313228 0.020179 0.883218 -0.184001
C226  C     C_R   0.340951 0.046516 0.845685 -0.135338
C227  C     C_R   0.370183 0.104004 0.848731 -0.102309
C228  C     C_R   0.370538 0.135973 0.889106 -0.143413
C229  C     C_R   0.341874 0.110368 0.926516 -0.097298
C230  C     C_R   0.051776 0.313970 0.075983 0.097513
C231  C     C_R   0.020182 0.313229 0.116781 -0.184003
C232  C     C_R   0.046521 0.340951 0.154314 -0.135339
C233  C     C_R   0.104009 0.370183 0.151267 -0.102309
C234  C     C_R   0.135977 0.370537 0.110891 -0.143413
C235  C     C_R   0.079104 0.417923 0.726654 -0.077748
C236  C     C_R   0.110371 0.341873 0.073482 -0.097296
C237  C     C_R   0.686030 0.051772 0.075985 0.097509
C238  C     C_R   0.686772 0.020177 0.116782 -0.184000
C239  C     C_R   0.659049 0.046514 0.154316 -0.135340
C240  C     C_R   0.629817 0.104002 0.151270 -0.102308
C241  C     C_R   0.629462 0.135971 0.110894 -0.143413
C242  C     C_R   0.658126 0.110367 0.073484 -0.097298
C243  C     C_R   0.948223 0.686030 0.075983 0.097513
C244  C     C_R   0.979817 0.686771 0.116781 -0.184004
C245  C     C_R   0.953478 0.659048 0.154314 -0.135338
C246  C     C_R   0.582073 0.079108 0.726654 -0.077748
C247  C     C_R   0.895989 0.629817 0.151267 -0.102308
C248  C     C_R   0.864022 0.629463 0.110891 -0.143414
C249  C     C_R   0.889629 0.658127 0.073481 -0.097295
C250  C     C_R   0.313970 0.948227 0.075984 0.097510
C251  C     C_R   0.313228 0.979822 0.116782 -0.184000
C252  C     C_R   0.340951 0.953485 0.154315 -0.135340
C253  C     C_R   0.370183 0.895997 0.151270 -0.102308
C254  C     C_R   0.370538 0.864028 0.110894 -0.143414
C255  C     C_R   0.341874 0.889633 0.073484 -0.097298
C256  C     C_R   0.525153 0.217823 0.463275 -0.019954
C257  C     C_R   0.217823 0.474849 0.463274 -0.019953
C258  C     C_R   0.474847 0.782177 0.463275 -0.019953
C259  C     C_R   0.782177 0.525151 0.463274 -0.019953
C260  C     C_R   0.525153 0.782177 0.536725 -0.019953
C261  C     C_R   0.217823 0.525150 0.536726 -0.019954
C262  C     C_R   0.474847 0.217823 0.536725 -0.019953
C263  C     C_R   0.880095 0.500000 0.500000 0.894420
C264  C     C_R   0.782177 0.474849 0.536726 -0.019954
C265  C     C_R   0.025153 0.717823 0.963275 -0.019954
C266  C     C_R   0.717823 0.974849 0.963274 -0.019953
C267  C     C_R   0.974847 0.282177 0.963275 -0.019954
C268  C     C_R   0.282177 0.025151 0.963274 -0.019953
C269  C     C_R   0.025153 0.282177 0.036725 -0.019953
C270  C     C_R   0.717823 0.025150 0.036726 -0.019953
C271  C     C_R   0.974847 0.717823 0.036725 -0.019953
C272  C     C_R   0.282177 0.974849 0.036726 -0.019954
C273  C     C_R   0.500000 0.185932 0.500000 -0.097812
C274  C     C_R   0.000000 0.619905 0.000000 0.894419
C275  C     C_R   0.185932 0.500000 0.500000 -0.097811
C276  C     C_R   0.500000 0.814068 0.500000 -0.097812
C277  C     C_R   0.814068 0.500000 0.500000 -0.097812
C278  C     C_R   1.000000 0.685932 0.000000 -0.097812
C279  C     C_R   0.685932 1.000000 0.000000 -0.097812
C280  C     C_R   1.000000 0.314068 1.000000 -0.097812
C281  C     C_R   0.314068 0.000000 0.000000 -0.097812
C282  C     C_R   0.500000 1.000000 0.586730 0.915066
C283  C     C_R   0.000000 0.500000 0.586730 0.915067
C284  C     C_R   0.500000 1.000000 0.413270 0.915066
C285  C     C_R   0.619905 0.000000 0.000000 0.894420
C286  C     C_R   1.000000 0.500000 0.413270 0.915068
C287  C     C_R   1.000000 0.500000 0.086730 0.915066
C288  C     C_R   0.500000 1.000000 0.086730 0.915067
C289  C     C_R   0.000000 0.500000 0.913270 0.915066
C290  C     C_R   0.500000 1.000000 0.913270 0.915068
C291  C     C_R   0.523987 0.281789 0.463415 -0.227149
C292  C     C_R   0.281789 0.476016 0.463415 -0.227147
C293  C     C_R   0.476013 0.718211 0.463415 -0.227149
C294  C     C_R   0.718211 0.523985 0.463415 -0.227148
C295  C     C_R   0.523986 0.718211 0.536584 -0.227148
C296  C     C_R   0.000000 0.380095 1.000000 0.894419
C297  C     C_R   0.281788 0.523984 0.536585 -0.227148
C298  C     C_R   0.476013 0.281789 0.536584 -0.227149
C299  C     C_R   0.718211 0.476015 0.536585 -0.227148
C300  C     C_R   0.023987 0.781789 0.963415 -0.227149
C301  C     C_R   0.781789 0.976016 0.963415 -0.227147
C302  C     C_R   0.976013 0.218211 0.963415 -0.227149
C303  C     C_R   0.218211 0.023985 0.963415 -0.227148
C304  C     C_R   0.023986 0.218211 0.036584 -0.227148
C305  C     C_R   0.781788 0.023984 0.036585 -0.227148
C306  C     C_R   0.976013 0.781789 0.036584 -0.227149
C307  C     C_R   0.380095 0.000000 0.000000 0.894420
C308  C     C_R   0.218211 0.976015 0.036585 -0.227148
C309  C     C_R   0.500000 0.313377 0.500000 -0.057262
C310  C     C_R   0.313377 0.500000 0.500000 -0.057264
C311  C     C_R   0.500000 0.686623 0.500000 -0.057262
C312  C     C_R   0.686623 0.500000 0.500000 -0.057264
C313  C     C_R   0.000000 0.813377 0.000000 -0.057262
C314  C     C_R   0.813377 0.000000 0.000000 -0.057264
C315  C     C_R   0.000000 0.186623 1.000000 -0.057262
C316  C     C_R   0.186623 1.000000 1.000000 -0.057264
C317  C     C_R   0.379656 0.500000 0.500000 0.886312
C318  C     C_R   0.500000 0.000000 0.773227 0.022042
C319  C     C_R   0.500000 0.620344 0.500000 0.886311
C320  C     C_R   0.620344 0.500000 0.500000 0.886311
C321  C     C_R   0.500000 0.379656 0.500000 0.886312
C322  C     C_R   0.879656 0.000000 0.000000 0.886312
C323  C     C_R   1.000000 0.120344 1.000000 0.886311
C324  C     C_R   0.120344 1.000000 1.000000 0.886311
C325  C     C_R   0.000000 0.879656 0.000000 0.886312
C326  C     C_R   0.536721 0.042177 0.842954 -0.237307
C327  C     C_R   0.042176 0.463277 0.842954 -0.237309
C328  C     C_R   0.463278 0.957823 0.842954 -0.237308
H1    H     H_    0.542970 0.306914 0.435325 0.159603
H2    H     H_    0.806914 0.957034 0.935324 0.159604
H3    H     H_    0.257485 0.774919 0.639342 0.122019
H4    H     H_    0.350906 0.729369 0.674225 0.127550
H5    H     H_    0.424806 0.796035 0.714595 0.115945
H6    H     H_    0.044847 0.311640 0.685033 0.121935
H7    H     H_    0.112265 0.237991 0.644867 0.121290
H8    H     H_    0.225068 0.257474 0.639341 0.122018
H9    H     H_    0.270624 0.350891 0.674224 0.127550
H10   H     H_    0.203962 0.424795 0.714595 0.115944
H11   H     H_    0.688359 0.044858 0.685033 0.121936
H12   H     H_    0.762003 0.112280 0.644867 0.121291
H13   H     H_    0.957030 0.193086 0.935325 0.159603
H14   H     H_    0.742513 0.225082 0.639340 0.122019
H15   H     H_    0.649092 0.270632 0.674224 0.127550
H16   H     H_    0.575193 0.203965 0.714594 0.115946
H17   H     H_    0.475421 0.208977 0.380493 0.141661
H18   H     H_    0.522301 0.159852 0.314240 0.132233
H19   H     H_    0.623891 0.107736 0.319756 0.122212
H20   H     H_    0.680815 0.107390 0.391339 0.115899
H21   H     H_    0.636216 0.158721 0.457366 0.130819
H22   H     H_    0.208980 0.524585 0.380493 0.141659
H23   H     H_    0.159857 0.477709 0.314238 0.132231
H24   H     H_    0.193086 0.042967 0.935324 0.159604
H25   H     H_    0.107737 0.376120 0.319752 0.122213
H26   H     H_    0.107387 0.319194 0.391334 0.115900
H27   H     H_    0.158718 0.363789 0.457363 0.130822
H28   H     H_    0.524579 0.791023 0.380493 0.141661
H29   H     H_    0.477699 0.840147 0.314239 0.132232
H30   H     H_    0.376110 0.892264 0.319756 0.122212
H31   H     H_    0.319186 0.892611 0.391339 0.115899
H32   H     H_    0.363785 0.841279 0.457366 0.130819
H33   H     H_    0.791021 0.475417 0.380493 0.141659
H34   H     H_    0.840145 0.522294 0.314238 0.132232
H35   H     H_    0.042970 0.193085 0.064675 0.159603
H36   H     H_    0.892263 0.623883 0.319753 0.122213
H37   H     H_    0.892612 0.680809 0.391335 0.115900
H38   H     H_    0.841281 0.636212 0.457363 0.130821
H39   H     H_    0.475421 0.791022 0.619507 0.141661
H40   H     H_    0.522299 0.840146 0.685761 0.132232
H41   H     H_    0.623888 0.892263 0.680245 0.122212
H42   H     H_    0.680813 0.892611 0.608661 0.115899
H43   H     H_    0.636215 0.841280 0.542634 0.130820
H44   H     H_    0.208980 0.475415 0.619507 0.141659
H45   H     H_    0.159856 0.522292 0.685762 0.132232
H46   H     H_    0.806914 0.042966 0.064676 0.159604
H47   H     H_    0.107737 0.623880 0.680248 0.122213
H48   H     H_    0.107387 0.680807 0.608666 0.115900
H49   H     H_    0.158718 0.636212 0.542637 0.130821
H50   H     H_    0.524579 0.208977 0.619507 0.141661
H51   H     H_    0.477699 0.159853 0.685760 0.132232
H52   H     H_    0.376110 0.107736 0.680244 0.122212
H53   H     H_    0.319186 0.107389 0.608661 0.115899
H54   H     H_    0.363785 0.158720 0.542634 0.130819
H55   H     H_    0.791021 0.524584 0.619507 0.141659
H56   H     H_    0.840145 0.477708 0.685762 0.132231
H57   H     H_    0.957030 0.806914 0.064675 0.159603
H58   H     H_    0.892263 0.376119 0.680248 0.122213
H59   H     H_    0.892612 0.319192 0.608665 0.115900
H60   H     H_    0.841281 0.363788 0.542637 0.130821
H61   H     H_    0.975421 0.708977 0.880493 0.141661
H62   H     H_    0.022301 0.659852 0.814240 0.132232
H63   H     H_    0.123891 0.607736 0.819756 0.122212
H64   H     H_    0.180815 0.607390 0.891339 0.115899
H65   H     H_    0.136216 0.658721 0.957366 0.130819
H66   H     H_    0.708980 0.024585 0.880493 0.141659
H67   H     H_    0.659856 0.977709 0.814238 0.132231
H68   H     H_    0.193086 0.957033 0.064676 0.159604
H69   H     H_    0.607737 0.876120 0.819752 0.122213
H70   H     H_    0.607387 0.819194 0.891334 0.115900
H71   H     H_    0.658718 0.863789 0.957363 0.130822
H72   H     H_    0.024579 0.291023 0.880493 0.141661
H73   H     H_    0.977699 0.340147 0.814239 0.132232
H74   H     H_    0.876110 0.392264 0.819756 0.122212
H75   H     H_    0.819186 0.392611 0.891339 0.115899
H76   H     H_    0.863785 0.341279 0.957366 0.130819
H77   H     H_    0.291021 0.975417 0.880493 0.141659
H78   H     H_    0.340145 0.022294 0.814238 0.132232
H79   H     H_    0.565563 0.073137 0.862220 0.163597
H80   H     H_    0.392263 0.123883 0.819753 0.122213
H81   H     H_    0.392612 0.180809 0.891335 0.115900
H82   H     H_    0.341281 0.136212 0.957364 0.130821
H83   H     H_    0.975420 0.291022 0.119507 0.141660
H84   H     H_    0.022299 0.340146 0.185761 0.132232
H85   H     H_    0.123888 0.392263 0.180245 0.122213
H86   H     H_    0.180813 0.392611 0.108661 0.115899
H87   H     H_    0.136215 0.341280 0.042634 0.130820
H88   H     H_    0.708979 0.975415 0.119507 0.141659
H89   H     H_    0.659856 0.022292 0.185762 0.132232
H90   H     H_    0.073135 0.434434 0.862220 0.163596
H91   H     H_    0.607737 0.123880 0.180248 0.122213
H92   H     H_    0.607387 0.180807 0.108666 0.115900
H93   H     H_    0.658718 0.136212 0.042637 0.130821
H94   H     H_    0.024579 0.708977 0.119507 0.141661
H95   H     H_    0.977699 0.659853 0.185760 0.132232
H96   H     H_    0.876110 0.607736 0.180244 0.122212
H97   H     H_    0.819186 0.607389 0.108661 0.115899
H98   H     H_    0.863785 0.658720 0.042634 0.130819
H99   H     H_    0.291021 0.024584 0.119507 0.141659
H100  H     H_    0.340145 0.977708 0.185761 0.132232
H101  H     H_    0.434437 0.926863 0.862220 0.163597
H102  H     H_    0.392263 0.876119 0.180248 0.122213
H103  H     H_    0.392612 0.819192 0.108665 0.115900
H104  H     H_    0.341281 0.863788 0.042637 0.130821
H105  H     H_    0.306914 0.457034 0.435324 0.159604
H106  H     H_    0.926865 0.565566 0.862220 0.163596
H107  H     H_    0.565563 0.926862 0.137780 0.163597
H108  H     H_    0.073135 0.565566 0.137780 0.163596
H109  H     H_    0.434437 0.073138 0.137780 0.163598
H110  H     H_    0.926865 0.434434 0.137780 0.163596
H111  H     H_    0.065563 0.573137 0.362219 0.163597
H112  H     H_    0.573135 0.934434 0.362220 0.163596
H113  H     H_    0.934437 0.426863 0.362220 0.163597
H114  H     H_    0.426865 0.065566 0.362220 0.163596
H115  H     H_    0.065563 0.426862 0.637780 0.163597
H116  H     H_    0.457030 0.693086 0.435325 0.159603
H117  H     H_    0.573135 0.065566 0.637780 0.163596
H118  H     H_    0.934437 0.573138 0.637780 0.163598
H119  H     H_    0.426865 0.934434 0.637780 0.163596
H120  H     H_    0.455151 0.811639 0.814967 0.121935
H121  H     H_    0.387732 0.737992 0.855133 0.121290
H122  H     H_    0.274929 0.757477 0.860660 0.122019
H123  H     H_    0.229375 0.850895 0.825776 0.127550
H124  H     H_    0.296038 0.924798 0.785406 0.115944
H125  H     H_    0.811641 0.544859 0.814966 0.121936
H126  H     H_    0.737997 0.612281 0.855132 0.121290
H127  H     H_    0.693086 0.542967 0.435324 0.159604
H128  H     H_    0.757488 0.725083 0.860659 0.122020
H129  H     H_    0.850909 0.770632 0.825776 0.127550
H130  H     H_    0.924808 0.703965 0.785406 0.115945
H131  H     H_    0.544847 0.188360 0.814967 0.121935
H132  H     H_    0.612264 0.262009 0.855132 0.121290
H133  H     H_    0.725067 0.242527 0.860658 0.122018
H134  H     H_    0.770623 0.149110 0.825775 0.127550
H135  H     H_    0.703962 0.075206 0.785405 0.115945
H136  H     H_    0.188359 0.455141 0.814966 0.121936
H137  H     H_    0.262003 0.387719 0.855132 0.121290
H138  H     H_    0.542970 0.693085 0.564675 0.159603
H139  H     H_    0.242512 0.274917 0.860659 0.122020
H140  H     H_    0.149092 0.229367 0.825775 0.127550
H141  H     H_    0.075193 0.296035 0.785405 0.115946
H142  H     H_    0.455153 0.188360 0.185033 0.121935
H143  H     H_    0.387735 0.262009 0.144868 0.121290
H144  H     H_    0.274932 0.242526 0.139341 0.122018
H145  H     H_    0.229376 0.149108 0.174224 0.127550
H146  H     H_    0.296038 0.075205 0.214595 0.115944
H147  H     H_    0.811641 0.455143 0.185034 0.121936
H148  H     H_    0.737996 0.387721 0.144868 0.121291
H149  H     H_    0.306914 0.542966 0.564676 0.159604
H150  H     H_    0.757485 0.274919 0.139342 0.122019
H151  H     H_    0.850906 0.229369 0.174225 0.127550
H152  H     H_    0.924805 0.296035 0.214595 0.115945
H153  H     H_    0.544847 0.811639 0.185033 0.121935
H154  H     H_    0.612265 0.737991 0.144867 0.121290
H155  H     H_    0.725068 0.757474 0.139341 0.122018
H156  H     H_    0.770624 0.850891 0.174225 0.127550
H157  H     H_    0.703962 0.924795 0.214595 0.115945
H158  H     H_    0.188359 0.544858 0.185033 0.121936
H159  H     H_    0.262003 0.612280 0.144867 0.121291
H160  H     H_    0.457030 0.306914 0.564675 0.159603
H161  H     H_    0.242513 0.725082 0.139340 0.122020
H162  H     H_    0.149092 0.770632 0.174224 0.127550
H163  H     H_    0.075193 0.703965 0.214594 0.115946
H164  H     H_    0.955151 0.311639 0.314966 0.121935
H165  H     H_    0.887732 0.237992 0.355133 0.121290
H166  H     H_    0.774929 0.257477 0.360660 0.122018
H167  H     H_    0.729375 0.350895 0.325776 0.127550
H168  H     H_    0.796038 0.424798 0.285406 0.115944
H169  H     H_    0.311641 0.044859 0.314966 0.121936
H170  H     H_    0.237997 0.112281 0.355132 0.121290
H171  H     H_    0.693086 0.457033 0.564676 0.159604
H172  H     H_    0.257488 0.225083 0.360659 0.122020
H173  H     H_    0.350909 0.270632 0.325776 0.127550
H174  H     H_    0.424808 0.203965 0.285406 0.115946
H175  H     H_    0.044847 0.688360 0.314966 0.121935
H176  H     H_    0.112264 0.762009 0.355132 0.121290
H177  H     H_    0.225067 0.742527 0.360658 0.122018
H178  H     H_    0.270623 0.649110 0.325775 0.127550
H179  H     H_    0.203962 0.575206 0.285405 0.115944
H180  H     H_    0.688359 0.955141 0.314966 0.121936
H181  H     H_    0.762003 0.887719 0.355132 0.121291
H182  H     H_    0.042970 0.806914 0.935325 0.159603
H183  H     H_    0.742513 0.774917 0.360659 0.122020
H184  H     H_    0.649091 0.729367 0.325775 0.127550
H185  H     H_    0.575192 0.796035 0.285405 0.115945
H186  H     H_    0.955153 0.688360 0.685033 0.121935
H187  H     H_    0.887735 0.762009 0.644868 0.121290
H188  H     H_    0.774932 0.742526 0.639341 0.122018
H189  H     H_    0.729376 0.649108 0.674224 0.127550
H190  H     H_    0.796038 0.575205 0.714595 0.115944
H191  H     H_    0.311641 0.955143 0.685034 0.121936
H192  H     H_    0.237996 0.887721 0.644868 0.121291
O1    O     O_R   0.448270 0.091530 0.499990 -0.631222
O2    O     O_R   0.591530 0.051730 0.999990 -0.631223
O3    O     O_R   0.051730 0.408470 0.999990 -0.631222
O4    O     O_R   0.408470 0.948270 0.999990 -0.631222
O5    O     O_R   0.948270 0.408470 0.000010 -0.631221
O6    O     O_R   0.591530 0.948270 0.000010 -0.631223
O7    O     O_R   0.051730 0.591530 0.000010 -0.631222
O8    O     O_R   0.408470 0.051730 0.000010 -0.631223
O9    O     O_R   0.448270 0.999890 0.566070 -0.624146
O10   O     O_R   0.999890 0.551730 0.566070 -0.624147
O11   O     O_R   0.551730 0.000110 0.566070 -0.624146
O12   O     O_R   0.091530 0.551730 0.499990 -0.631223
O13   O     O_R   0.000110 0.448270 0.566070 -0.624147
O14   O     O_R   0.448270 0.000110 0.433930 -0.624146
O15   O     O_R   0.999890 0.448270 0.433930 -0.624147
O16   O     O_R   0.551730 0.999890 0.433930 -0.624146
O17   O     O_R   0.000110 0.551730 0.433930 -0.624147
O18   O     O_R   0.948270 0.499890 0.066070 -0.624146
O19   O     O_R   0.499890 0.051730 0.066070 -0.624147
O20   O     O_R   0.051730 0.500110 0.066070 -0.624146
O21   O     O_R   0.500110 0.948270 0.066070 -0.624147
O22   O     O_R   0.948270 0.500110 0.933930 -0.624146
O23   O     O_R   0.551730 0.908470 0.499990 -0.631222
O24   O     O_R   0.499890 0.948270 0.933930 -0.624147
O25   O     O_R   0.051730 0.499890 0.933930 -0.624146
O26   O     O_R   0.500110 0.051730 0.933930 -0.624147
O27   O     O_R   0.408290 0.499920 0.462700 -0.629425
O28   O     O_R   0.499920 0.591710 0.462700 -0.629425
O29   O     O_R   0.591710 0.500080 0.462700 -0.629425
O30   O     O_R   0.500080 0.408290 0.462700 -0.629424
O31   O     O_R   0.408290 0.500080 0.537300 -0.629425
O32   O     O_R   0.499920 0.408290 0.537300 -0.629425
O33   O     O_R   0.591710 0.499920 0.537300 -0.629425
O34   O     O_R   0.908470 0.448270 0.499990 -0.631222
O35   O     O_R   0.500080 0.591710 0.537300 -0.629424
O36   O     O_R   0.908290 0.999920 0.962700 -0.629425
O37   O     O_R   0.999920 0.091710 0.962700 -0.629425
O38   O     O_R   0.091710 0.000080 0.962700 -0.629425
O39   O     O_R   0.000080 0.908290 0.962700 -0.629424
O40   O     O_R   0.908290 0.000080 0.037300 -0.629425
O41   O     O_R   0.999920 0.908290 0.037300 -0.629425
O42   O     O_R   0.091710 0.999920 0.037300 -0.629425
O43   O     O_R   0.000080 0.091710 0.037300 -0.629424
O44   O     O_R   0.448270 0.908470 0.500010 -0.631221
O45   O     O_R   0.091530 0.448270 0.500010 -0.631223
O46   O     O_R   0.551730 0.091530 0.500010 -0.631222
O47   O     O_R   0.908470 0.551730 0.500010 -0.631222
O48   O     O_R   0.948270 0.591530 0.999990 -0.631222
Zn1   Zn    Zn3+2 0.430930 1.000000 0.500000 0.933978
Zn2   Zn    Zn3+2 0.500000 0.500000 0.549800 0.930145
Zn3   Zn    Zn3+2 1.000000 1.000000 0.950200 0.930145
Zn4   Zn    Zn3+2 0.000000 0.000000 0.049800 0.930145
Zn5   Zn    Zn3+2 0.000000 0.569070 0.500000 0.933976
Zn6   Zn    Zn3+2 0.569070 1.000000 0.500000 0.933978
Zn7   Zn    Zn3+2 0.000000 0.430930 0.500000 0.933976
Zn8   Zn    Zn3+2 0.930930 0.500000 0.000000 0.933978
Zn9   Zn    Zn3+2 0.500000 0.069070 0.000000 0.933976
Zn10  Zn    Zn3+2 0.069070 0.500000 0.000000 0.933978
Zn11  Zn    Zn3+2 0.500000 0.930930 0.000000 0.933976
Zn12  Zn    Zn3+2 0.500000 0.500000 0.450200 0.930145

loop_
_geom_bond_atom_site_label_1
_geom_bond_atom_site_label_2
_ccdc_geom_bond_type
C258  C276  A    
C126  C127  A    
C327  H90   S    
O22   Zn8   S    
C302  C315  A    
C175  H38   S    
C206  H63   S    
C122  H185  S    
C194  H53   S    
C114  C115  A    
C67   H140  S    
C158  H22   S    
C323  O43   A    
C128  H189  S    
C44   C45   A    
C176  C182  A    
C12   C23   A    
C322  O40   A    
O41   Zn4   S    
C237  C242  A    
C323  O37   A    
C2    C29   A    
C58   H131  S    
C146  C201  A    
C96   C102  A    
C48   H123  S    
C282  O11   A    
C293  H116  S    
C106  C107  A    
C143  C144  A    
C244  C245  A    
C27   C90   A    
C34   C35   A    
C271  C306  A    
C110  C111  A    
C29   C113  A    
C303  C316  A    
C234  H86   S    
C50   C90   S    
C222  C229  A    
C106  H172  S    
C317  O31   A    
C135  C168  A    
C96   C168  S    
C230  C236  A    
C320  O29   A    
C116  H179  S    
C137  C235  S    
C54   H129  S    
C102  H168  S    
O3    Zn10  S    
O15   Zn7   S    
C83   C88   A    
C138  H6    S    
C59   C60   A    
C307  O8    A    
C232  H84   S    
C285  O2    A    
C14   H117  S    
O23   Zn6   S    
C36   C179  A    
C234  C236  A    
C101  C246  A    
C231  H83   S    
C104  C105  A    
C249  H98   S    
C45   C47   A    
C10   C21   A    
C209  C266  S    
C301  C314  A    
C257  C275  A    
O32   Zn2   S    
C80   H150  S    
C51   C52   A    
C148  H15   S    
C13   C30   A    
C196  C264  S    
C140  C141  A    
C214  H70   S    
C205  H62   S    
C206  C207  A    
C196  C197  A    
C299  H171  S    
C77   C78   A    
O7    Zn10  S    
C286  O17   A    
C305  C314  A    
C269  C280  A    
C79   C224  A    
C270  C279  A    
O20   Zn10  S    
C43   C44   A    
C151  H17   S    
O19   Zn9   S    
C282  O9    A    
C222  C268  S    
C227  H80   S    
C305  H46   S    
C163  C258  S    
C260  C295  A    
C263  O47   A    
C177  H39   S    
C72   H143  S    
C149  H16   S    
C238  H88   S    
O17   Zn5   S    
C76   C77   A    
C241  H92   S    
C15   C39   A    
C154  C155  A    
C4    C32   A    
C16   C40   A    
C283  O10   A    
C6    C30   A    
C87   H156  S    
C203  C265  S    
C158  C159  A    
C56   C62   A    
C263  O34   A    
C67   C69   A    
C16   C25   A    
C216  C267  S    
C261  C297  A    
C325  O39   A    
C215  H71   S    
C247  H96   S    
C272  C308  A    
C72   C73   A    
C56   C101  S    
C269  C304  A    
C139  C140  A    
C245  H95   S    
C89   C157  S    
C68   C318  A    
C268  C281  A    
C144  C145  A    
C156  C158  A    
C130  C131  A    
C66   H139  S    
C17   C326  A    
C236  H87   S    
C22   C284  S    
C183  C188  A    
C188  H49   S    
C95   H163  S    
C119  H181  S    
C211  H67   S    
C308  H68   S    
C189  C262  S    
C88   H157  S    
C218  H73   S    
C148  C149  A    
C219  H74   S    
C184  H44   S    
C297  C310  A    
O13   Zn7   S    
O44   Zn1   S    
C162  H27   S    
C208  H65   S    
C63   C113  S    
C296  O3    A    
C70   C124  S    
C143  C149  A    
C191  H50   S    
C32   C146  A    
C316  C324  S    
C200  C202  A    
C98   C99   A    
C75   H146  S    
C313  C325  S    
C186  C187  A    
C97   H164  S    
C252  C253  A    
C290  O26   A    
C152  H18   S    
C137  C142  A    
C5    H108  S    
O38   Zn3   S    
C13   C32   A    
C147  C148  A    
C112  C275  S    
C128  C129  A    
C97   C98   A    
C2    C57   A    
C283  O13   A    
C5    C20   A    
C85   C86   A    
C165  H29   S    
C6    C19   A    
C286  O15   A    
C209  C215  A    
C160  H25   S    
C186  H47   S    
C253  C254  A    
C78   C80   A    
C265  C278  A    
C170  C171  A    
O36   Zn3   S    
C129  H190  S    
C217  H72   S    
C62   H135  S    
C184  C185  A    
C241  C242  A    
C322  O36   A    
O12   Zn5   S    
C189  C191  A    
C174  C175  A    
C92   C93   A    
C216  C221  A    
C53   H128  S    
C314  C322  S    
C63   C69   A    
C259  C294  A    
C5    C33   A    
C204  C205  A    
C107  C108  A    
O48   Zn8   S    
C36   C46   A    
C237  C270  S    
C49   H124  S    
C89   C91   A    
C233  C234  A    
C103  C179  S    
C109  C116  A    
C66   C67   A    
C26   C318  A    
C118  H180  S    
C237  C238  A    
C307  O4    A    
C94   C95   A    
C268  C303  A    
C248  C249  A    
C28   C101  A    
O26   Zn9   S    
C220  C221  A    
C76   C135  S    
O25   Zn10  S    
O40   Zn4   S    
O4    Zn11  S    
C141  H9    S    
C17   C328  A    
C210  H66   S    
C288  O21   A    
C193  H52   S    
C76   C82   A    
C91   C92   A    
C127  H188  S    
C85   H154  S    
C41   C235  A    
C222  C225  A    
C217  C218  A    
C317  O27   A    
O39   Zn3   S    
C26   C79   A    
C290  O24   A    
C117  C122  A    
C281  C307  S    
C112  O45   A    
C47   H122  S    
C83   C84   A    
C109  C190  S    
C123  C212  S    
C209  C210  A    
C328  H101  S    
C199  H58   S    
C64   H136  S    
C70   C71   A    
C126  H187  S    
C193  C194  A    
C150  C155  A    
C319  O28   A    
C60   H133  S    
C259  C277  A    
C10   H113  S    
C52   C53   A    
C100  H167  S    
C156  C257  S    
C296  O5    A    
C54   C55   A    
C291  H1    S    
C265  C300  A    
O16   Zn6   S    
C51   H125  S    
C251  H99   S    
C292  H105  S    
C111  H176  S    
C228  H81   S    
C133  H3    S    
C289  O25   A    
O10   Zn5   S    
C310  C317  S    
C202  H60   S    
C266  C279  A    
C203  C208  A    
C65   H137  S    
C239  H89   S    
C143  C246  S    
C274  O48   A    
C61   H134  S    
C132  H192  S    
C182  H43   S    
C147  H14   S    
C3    C27   A    
C71   C72   A    
C164  H28   S    
C117  C118  A    
C207  H64   S    
O45   Zn7   S    
C258  C293  A    
C300  H182  S    
C19   C288  S    
O34   Zn7   S    
C9    C38   A    
C280  C296  S    
C56   C58   A    
C39   C212  A    
O1    Zn1   S    
C197  C198  A    
C81   H151  S    
C38   C46   A    
C6    H109  S    
C173  C174  A    
C63   C64   A    
C260  C276  A    
C299  C312  A    
C199  C200  A    
C181  H42   S    
C226  C227  A    
C262  C298  A    
C70   C75   A    
C150  C151  A    
C94   H162  S    
O43   Zn4   S    
C325  O41   A    
C55   H130  S    
C256  C291  A    
C87   C88   A    
C134  H4    S    
C243  C249  A    
C172  H34   S    
C291  C309  A    
C73   C74   A    
C239  C240  A    
C169  H32   S    
C203  C204  A    
C145  H12   S    
C161  C162  A    
C251  C252  A    
C213  C214  A    
C120  C121  A    
C220  H75   S    
C93   C94   A    
C279  C285  S    
C324  O42   A    
C164  C165  A    
C15   H118  S    
C123  C125  A    
C304  H35   S    
C52   H126  S    
C17   C290  S    
C243  C244  A    
O29   Zn12  S    
C197  H55   S    
C121  H184  S    
C174  H37   S    
C18   C327  A    
C157  C190  A    
C274  O7    A    
C124  C179  A    
C7    H110  S    
O21   Zn11  S    
C321  O30   A    
C107  H173  S    
C42   C246  A    
C223  C276  S    
C311  C319  S    
C151  C152  A    
C312  C320  S    
C170  C259  S    
C2    C27   A    
C194  C195  A    
C9    H112  S    
C44   H120  S    
C34   C168  A    
C74   H145  S    
C145  C147  A    
C33   C157  A    
C170  C175  A    
C254  H103  S    
C207  C208  A    
C84   C85   A    
C242  H93   S    
C167  C169  A    
C255  H104  S    
C86   C87   A    
C176  C260  S    
O46   Zn6   S    
C58   C59   A    
C53   C54   A    
C154  H20   S    
C7    C20   A    
C191  C192  A    
C60   C61   A    
C20   C287  S    
C110  H175  S    
C89   C95   A    
C204  H61   S    
C12   C41   A    
C105  H170  S    
C83   C146  S    
C189  C195  A    
C159  C160  A    
C300  C313  A    
C264  C277  A    
C50   C51   A    
C115  H178  S    
C270  C305  A    
C121  C122  A    
C31   C135  A    
C48   C49   A    
O30   Zn12  S    
C23   C283  S    
C245  C247  A    
C125  C126  A    
C223  O23   A    
C256  C273  A    
C82   H152  S    
C8    C37   A    
C285  O6    A    
C131  C132  A    
C108  H174  S    
C219  C220  A    
C171  H33   S    
C180  C181  A    
C304  C315  A    
C195  H54   S    
C272  C281  A    
C113  C235  A    
C262  C273  A    
C324  O38   A    
C238  C239  A    
O37   Zn3   S    
C306  C313  A    
C319  O35   A    
C59   H132  S    
C144  H11   S    
C178  C180  A    
C119  C120  A    
O28   Zn12  S    
C284  O14   A    
C230  C269  S    
C105  C106  A    
C24   C33   A    
C64   C65   A    
C287  O20   A    
C250  C251  A    
C24   C31   A    
C41   C57   A    
C187  C188  A    
C183  C261  S    
C109  C110  A    
C192  C193  A    
C90   C212  A    
C86   H155  S    
C321  O32   A    
C185  C186  A    
O5    Zn8   S    
C84   H153  S    
C130  C224  S    
C232  C233  A    
C111  C114  A    
C131  H191  S    
C14   C25   A    
C230  C231  A    
C163  C169  A    
C243  C271  S    
C248  H97   S    
C138  C139  A    
C142  H10   S    
C91   H158  S    
C293  C311  A    
C294  C312  A    
C185  H45   S    
C177  C178  A    
C40   C68   A    
C198  H56   S    
C103  C104  A    
C77   H147  S    
C267  C302  A    
O8    Zn9   S    
O11   Zn6   S    
C25   C282  S    
C125  H186  S    
C233  H85   S    
C115  C116  A    
O9    Zn1   S    
C171  C172  A    
C167  H31   S    
C165  C166  A    
C16   H119  S    
O35   Zn2   S    
C192  H51   S    
C267  C280  A    
C163  C164  A    
C250  C272  S    
C1    O46   A    
O14   Zn1   S    
C81   C82   A    
C166  H30   S    
C205  C206  A    
C244  H94   S    
C254  C255  A    
C40   C224  A    
C159  H23   S    
C253  H102  S    
C140  H8    S    
C8    H111  S    
C11   C36   A    
C35   C37   A    
O33   Zn2   S    
C298  C309  A    
C13   C46   A    
C9    C22   A    
C4    H107  S    
C43   C79   S    
C39   C57   A    
C181  C182  A    
C3    C18   A    
C213  H69   S    
O18   Zn8   S    
C118  C119  A    
C240  C241  A    
C308  C316  A    
C315  C323  S    
C4    C19   A    
C271  C278  A    
C28   C326  A    
C227  C228  A    
C132  C133  A    
C38   C201  A    
O6    Zn11  S    
C198  C199  A    
C288  O19   A    
C309  C321  S    
C1    C273  S    
C252  H100  S    
C14   C42   A    
C302  H13   S    
C15   C23   A    
C120  H183  S    
C156  C162  A    
C180  H41   S    
C123  C129  A    
C42   C68   A    
C61   C62   A    
C117  C201  S    
C284  O16   A    
C18   C289  S    
C295  C311  A    
C24   C35   A    
C7    C31   A    
C74   C75   A    
C136  H5    S    
C47   C48   A    
C112  O12   A    
C287  O18   A    
C1    O1    A    
C216  C217  A    
C200  H59   S    
C161  H26   S    
C226  H78   S    
C240  H91   S    
C214  C215  A    
C43   C49   A    
C134  C136  A    
C263  C277  S    
O31   Zn2   S    
C295  H138  S    
C301  H2    S    
C29   C327  A    
C28   C318  A    
C225  H77   S    
C183  C184  A    
C306  H57   S    
C11   H114  S    
C26   C328  A    
C150  C256  S    
C99   C100  A    
C173  H36   S    
C303  H24   S    
C96   C97   A    
C266  C301  A    
C100  C102  A    
C225  C226  A    
C10   C34   A    
C98   H165  S    
C152  C153  A    
C187  H48   S    
C229  H82   S    
O24   Zn11  S    
C176  C177  A    
C211  C213  A    
C3    H106  S    
C30   C124  A    
C210  C211  A    
C166  C167  A    
C153  H19   S    
C196  C202  A    
C104  H169  S    
C71   H142  S    
C320  O33   A    
C264  C299  A    
C172  C173  A    
C21   C286  S    
O2    Zn9   S    
C250  C255  A    
C289  O22   A    
C78   H148  S    
C274  C278  S    
C99   H166  S    
C130  C136  A    
C326  H79   S    
C80   C81   A    
C8    C21   A    
C247  C248  A    
C73   H144  S    
C261  C275  A    
C137  C138  A    
C11   C22   A    
C50   C55   A    
O42   Zn4   S    
C160  C161  A    
C178  H40   S    
C141  C142  A    
C114  H177  S    
C218  C219  A    
C133  C134  A    
C139  H7    S    
O27   Zn12  S    
O47   Zn5   S    
C37   C190  A    
C45   H121  S    
C155  H21   S    
C292  C310  A    
C228  C229  A    
C223  O44   A    
C69   H141  S    
C221  H76   S    
C65   C66   A    
C231  C232  A    
C294  H127  S    
C103  C108  A    
C92   H159  S    
C93   H161  S    
C153  C154  A    
C12   H115  S    
C297  H149  S    
C127  C128  A    
C257  C292  A    
C298  H160  S    
