data_mof_unit_16159.cif
_audit_creation_date              2012-10-26T20:07:39-0400
_audit_creation_method            fapswitch 2.2
_symmetry_space_group_name_H-M    P1
_symmetry_Int_Tables_number       1
_space_group_crystal_system       triclinic
_cell_length_a                    9.785965
_cell_length_b                    10.896156
_cell_length_c                    17.069493
_cell_angle_alpha                 84.460736
_cell_angle_beta                  90.754952
_cell_angle_gamma                 88.386678
_cell_volume                      1810.66121779

loop_
_atom_site_label
_atom_site_type_symbol
_atom_type_description
_atom_site_fract_x
_atom_site_fract_y
_atom_site_fract_z
_atom_type_partial_charge
C1    C     C_R   0.500542 0.262069 0.503078 0.538791
C2    C     C_R   0.070584 0.578403 0.446501 0.117045
C3    C     C_R   0.513590 0.497370 0.649977 0.548293
C4    C     C_R   0.486630 0.498706 0.349222 0.545669
C5    C     C_R   0.509945 0.503343 0.734699 -0.006702
C6    C     C_R   0.490399 0.500877 0.261954 -0.022489
C7    C     C_R   0.460636 0.612752 0.761337 -0.202490
C8    C     C_R   0.611974 0.467541 0.225837 -0.197971
C9    C     C_R   0.433105 0.620100 0.840774 0.014297
C10   C     C_R   0.623788 0.479942 0.143742 0.006957
C11   C     C_R   0.460630 0.515660 0.895332 0.189668
C12   C     C_R   0.499214 0.735937 0.505246 0.538772
C13   C     C_R   0.517393 0.539307 0.096547 0.174082
C14   C     C_R   0.512834 0.404164 0.868827 0.037803
C15   C     C_R   0.397016 0.580000 0.133176 0.037099
C16   C     C_R   0.531936 0.397446 0.787587 0.231940
C17   C     C_R   0.378210 0.542293 0.213540 0.239827
C18   C     C_R   0.373225 0.063949 0.507849 0.243508
C19   C     C_R   0.621348 0.928853 0.528808 0.225909
C20   C     C_3   0.751174 0.428489 0.107799 -0.258891
C21   C     C_3   0.764519 0.288485 0.125843 -0.451446
C22   C     C_3   0.368660 0.738653 0.864046 -0.251102
C23   C     C_R   0.375424 0.935268 0.511743 -0.189519
C24   C     C_3   0.473549 0.818776 0.900063 -0.432306
C25   C     C_3   0.541780 0.289699 0.925706 -0.231755
C26   C     C_3   0.693225 0.250101 0.927992 -0.416984
C27   C     C_3   0.290206 0.666462 0.090385 -0.239984
C28   C     C_3   0.272254 0.786496 0.129325 -0.443847
C29   C     C_3   0.464754 0.221679 0.736376 -0.025908
C30   C     C_3   0.504860 0.085353 0.741198 -0.392040
C31   C     C_3   0.185412 0.434942 0.225093 -0.008127
C32   C     C_3   0.037747 0.440460 0.249596 -0.407133
C33   C     C_3   0.174632 0.106284 0.435323 -0.017833
C34   C     C_R   0.620100 0.056773 0.523807 -0.182809
C35   C     C_3   0.107914 0.225226 0.398616 -0.366872
C36   C     C_3   0.762784 0.839380 0.625676 0.009637
C37   C     C_3   0.890838 0.758015 0.642127 -0.358168
C38   C     C_3   0.146090 0.375564 0.632256 -0.220099
C39   C     C_3   0.142224 0.468291 0.694170 -0.426185
C40   C     C_3   0.851845 0.624527 0.365159 -0.213666
C41   C     C_3   0.762454 0.742132 0.364356 -0.366259
C42   C     C_3   0.885720 0.288150 0.570900 -0.261033
C43   C     C_3   0.808486 0.270500 0.647863 -0.366715
C44   C     C_3   0.140291 0.676227 0.391744 -0.231362
C45   C     C_R   0.498992 0.868035 0.515323 -0.032273
C46   C     C_3   0.094814 0.807529 0.404179 -0.477951
C47   C     C_R   0.498190 0.126159 0.510968 -0.024865
C48   C     C_R   0.076389 0.430966 0.556678 0.134499
C49   C     C_R   0.922462 0.573443 0.443251 0.134789
C50   C     C_R   0.932130 0.417825 0.549276 0.117054
Cu1   Cu    Cu3+1 0.640660 0.500020 0.500000 0.910917
Cu2   Cu    Cu3+1 0.359340 0.499980 0.500000 0.907965
H1    H     H_    0.696607 0.426304 0.261381 0.129876
H2    H     H_    0.515440 0.774092 0.956576 0.185312
H3    H     H_    0.559177 0.836835 0.858867 0.141685
H4    H     H_    0.424136 0.908202 0.911393 0.117149
H5    H     H_    0.322507 0.793684 0.811527 0.123883
H6    H     H_    0.282311 0.718386 0.903981 0.137301
H7    H     H_    0.712047 0.175173 0.976020 0.111406
H8    H     H_    0.724469 0.213418 0.872414 0.197251
H9    H     H_    0.758163 0.328930 0.938279 0.146996
H10   H     H_    0.511347 0.304042 0.986567 0.162460
H11   H     H_    0.479985 0.212653 0.908124 0.133327
H12   H     H_    0.438971 0.691988 0.718993 0.109274
H13   H     H_    0.228081 0.769553 0.188789 0.186600
H14   H     H_    0.372258 0.831231 0.134172 0.138025
H15   H     H_    0.201549 0.850785 0.092900 0.120222
H16   H     H_    0.320890 0.694235 0.029915 0.168757
H17   H     H_    0.190534 0.620764 0.087748 0.148504
H18   H     H_    0.439523 0.252385 0.674076 0.143214
H19   H     H_    0.372245 0.232334 0.772983 0.113437
H20   H     H_    0.536560 0.052393 0.802416 0.148362
H21   H     H_    0.416773 0.031648 0.723403 0.107386
H22   H     H_    0.591227 0.070376 0.701384 0.138898
H23   H     H_    0.279872 0.888507 0.510786 0.139420
H24   H     H_    0.237428 0.351965 0.256548 0.130500
H25   H     H_    0.186120 0.425077 0.160704 0.122335
H26   H     H_    0.987543 0.525590 0.220548 0.142856
H27   H     H_    0.984725 0.358347 0.232513 0.098032
H28   H     H_    0.032009 0.442359 0.314077 0.148123
H29   H     H_    0.092785 0.040963 0.452157 0.141440
H30   H     H_    0.239344 0.070024 0.388769 0.111357
H31   H     H_    0.186281 0.296252 0.388378 0.203675
H32   H     H_    0.058375 0.208396 0.341963 0.077082
H33   H     H_    0.028953 0.258998 0.437386 0.138925
H34   H     H_    0.715750 0.099778 0.530898 0.133864
H35   H     H_    0.674472 0.789227 0.652528 0.133137
H36   H     H_    0.776153 0.926321 0.653904 0.110997
H37   H     H_    0.879377 0.669499 0.615895 0.187664
H38   H     H_    0.981311 0.805318 0.616489 0.142607
H39   H     H_    0.907396 0.738159 0.706629 0.083294
H40   H     H_    0.209782 0.434502 0.744913 0.129187
H41   H     H_    0.175030 0.560709 0.669638 0.182888
H42   H     H_    0.036348 0.478803 0.715753 0.123421
H43   H     H_    0.097312 0.292378 0.659984 0.104999
H44   H     H_    0.248851 0.340629 0.620297 0.200548
H45   H     H_    0.671075 0.244403 0.105811 0.155303
H46   H     H_    0.652447 0.722171 0.362129 0.174662
H47   H     H_    0.780289 0.803973 0.309960 0.083643
H48   H     H_    0.788109 0.794007 0.414713 0.217949
H49   H     H_    0.924074 0.646675 0.318084 0.086625
H50   H     H_    0.804195 0.550050 0.337604 0.155904
H51   H     H_    0.697623 0.277513 0.635847 0.222920
H52   H     H_    0.831021 0.176599 0.677357 0.109263
H53   H     H_    0.837975 0.338970 0.688714 0.172639
H54   H     H_    0.833584 0.257631 0.519777 0.161150
H55   H     H_    0.972864 0.220138 0.574708 0.121480
H56   H     H_    0.854204 0.252819 0.094907 0.127761
H57   H     H_    0.070868 0.816075 0.466874 0.166732
H58   H     H_    0.178185 0.869728 0.385270 0.110826
H59   H     H_    0.005733 0.838751 0.366425 0.144160
H60   H     H_    0.249614 0.673774 0.397371 0.232224
H61   H     H_    0.128158 0.661870 0.329357 0.172100
H62   H     H_    0.779338 0.262457 0.189909 0.140655
H63   H     H_    0.752891 0.450344 0.043153 0.171731
H64   H     H_    0.841674 0.472401 0.130554 0.125399
N1    N     N_2   0.431658 0.519603 0.976091 -0.278120
N2    N     N_2   0.533567 0.549788 0.013476 -0.266578
N3    N     N_R   0.852070 0.500030 0.499980 -0.235376
N4    N     N_R   0.147930 0.499970 0.500020 -0.245865
O1    O     O_R   0.618740 0.319660 0.500000 -0.536082
O2    O     O_3   0.248849 0.543553 0.243702 -0.578988
O3    O     O_3   0.248982 0.128952 0.503779 -0.545781
O4    O     O_3   0.744511 0.865053 0.543528 -0.558558
O5    O     O_R   0.381260 0.680340 0.500000 -0.540060
O6    O     O_R   0.381170 0.319630 0.500010 -0.456975
O7    O     O_R   0.618830 0.680370 0.499990 -0.452256
O8    O     O_R   0.631780 0.498870 0.613920 -0.492209
O9    O     O_R   0.368220 0.501130 0.386080 -0.483542
O10   O     O_R   0.394210 0.498840 0.613930 -0.531806
O11   O     O_R   0.605790 0.501160 0.386070 -0.529402
O12   O     O_3   0.577143 0.287750 0.760978 -0.596944

loop_
_geom_bond_atom_site_label_1
_geom_bond_atom_site_label_2
_ccdc_geom_bond_type
C23   C45   A    
C3    O10   A    
C25   H11   S    
C18   C47   A    
C22   H5    S    
C13   N2    S    
C48   N4    A    
C12   O7    A    
C36   H36   S    
C24   H3    S    
C37   H38   S    
Cu1   O8    S    
C36   C37   S    
C36   O4    S    
C26   H9    S    
C34   H34   S    
C38   C39   S    
C30   H22   S    
C11   C14   A    
C9    C22   S    
C29   O12   S    
C24   H2    S    
C40   C49   S    
C15   C17   A    
C43   H53   S    
C43   H52   S    
C39   H41   S    
C5    C16   A    
C27   H16   S    
C40   H49   S    
C2    C44   S    
C38   H43   S    
Cu1   N3    S    
C41   H47   S    
C33   H30   S    
C38   C48   S    
C27   H17   S    
C18   O3    S    
C9    C11   A    
C48   C50   A    
C46   H59   S    
C44   C46   S    
C31   H25   S    
C4    O11   A    
C1    O1    A    
C36   H35   S    
C19   O4    S    
C37   H39   S    
C18   C23   A    
C28   H15   S    
C1    O6    A    
C4    C6    S    
C10   C20   S    
C5    C7    A    
C30   H21   S    
C35   H31   S    
C3    O8    A    
C1    C47   S    
C6    C8    A    
C12   O5    A    
C25   C26   S    
C40   H50   S    
C10   C13   A    
C50   N3    A    
C28   H14   S    
C39   H42   S    
C29   C30   S    
C2    C49   A    
C32   H28   S    
C21   H45   S    
C15   C27   S    
C31   C32   S    
C35   H32   S    
C41   H48   S    
C42   H54   S    
C42   C50   S    
C44   H60   S    
C40   C41   S    
C44   H61   S    
C13   C15   A    
Cu1   O1    S    
C14   C16   A    
C42   C43   S    
Cu2   O9    S    
C11   N1    S    
Cu2   N4    S    
C39   H40   S    
C20   H64   S    
C29   H18   S    
C42   H55   S    
C7    C9    A    
C6    C17   A    
Cu2   O6    S    
C31   O2    S    
C23   H23   S    
C21   H62   S    
C3    C5    S    
C19   C34   A    
C8    H1    S    
C22   H6    S    
C20   H63   S    
C30   H20   S    
Cu2   O5    S    
C19   C45   A    
C4    O9    A    
C12   C45   S    
C24   H4    S    
C37   H37   S    
Cu1   O7    S    
C46   H58   S    
C28   H13   S    
Cu2   O10   S    
Cu1   Cu2   S    
N1    N2    D    
C32   H27   S    
C35   H33   S    
C31   H24   S    
C49   N3    A    
C26   H8    S    
C33   C35   S    
C22   C24   S    
C25   H10   S    
C14   C25   S    
C16   O12   S    
C43   H51   S    
C7    H12   S    
C21   H56   S    
C32   H26   S    
C17   O2    S    
C20   C21   S    
C8    C10   A    
C46   H57   S    
C38   H44   S    
C27   C28   S    
C33   O3    S    
C41   H46   S    
C26   H7    S    
C34   C47   A    
C2    N4    A    
C33   H29   S    
C29   H19   S    
Cu1   O11   S    
