data_mof_unit_22743.cif
_audit_creation_date              2013-03-05T15:43:30-0500
_audit_creation_method            fapswitch 2.2
_symmetry_space_group_name_H-M    P1
_symmetry_Int_Tables_number       1
_space_group_crystal_system       triclinic
_cell_length_a                    10.768282
_cell_length_b                    10.927002
_cell_length_c                    9.73648
_cell_angle_alpha                 89.234623
_cell_angle_beta                  88.765433
_cell_angle_gamma                 91.759377
_cell_volume                      1144.72473231

loop_
_atom_site_label
_atom_site_type_symbol
_atom_site_description
_atom_site_fract_x
_atom_site_fract_y
_atom_site_fract_z
_atom_type_partial_charge
O1    O     O_R   0.500020 0.321960 0.617040 -0.566730
O2    O     O_R   0.499980 0.321920 0.382900 -0.563872
C1    C     C_R   0.500625 0.264955 0.501696 0.774951
O3    O     O_R   0.317710 0.500000 0.617070 -0.514681
O4    O     O_R   0.317670 0.499960 0.382930 -0.555652
C2    C     C_R   0.260167 0.502094 0.501045 0.935671
Cu1   Cu    Cu3+1 0.500030 0.500020 0.638630 1.010567
Cu2   Cu    Cu3+1 0.499970 0.499980 0.361370 1.054205
O5    O     O_R   0.500020 0.678080 0.617100 -0.585634
O6    O     O_R   0.499980 0.678040 0.382960 -0.569329
O7    O     O_R   0.682330 0.500040 0.617070 -0.609802
O8    O     O_R   0.682290 0.500000 0.382930 -0.540013
C3    C     C_R   0.507554 0.733976 0.498952 0.883989
C4    C     C_R   0.739891 0.505324 0.498572 0.792638
C5    C     C_3   0.068092 0.532983 0.646311 -0.312000
H1    H     H_    0.098933 0.623579 0.684698 0.216694
H2    H     H_    0.101332 0.465861 0.721530 0.288126
C6    C     C_3   0.926466 0.523291 0.645797 -0.435014
H3    H     H_    0.896391 0.441068 0.708425 0.244009
H4    H     H_    0.886000 0.598786 0.704371 0.174170
C7    C     C_3   0.081379 0.611080 0.398288 0.020700
C8    C     C_3   0.067091 0.380881 0.450950 0.142613
C9    C     C_3   0.122217 0.507449 0.501109 -0.199825
H5    H     H_    0.099485 0.368377 0.342728 0.172436
C10   C     C_3   0.877816 0.509068 0.495735 -0.125079
C11   C     C_3   0.934711 0.611447 0.389895 0.634882
C12   C     C_3   0.922757 0.381182 0.451886 -0.468888
H6    H     H_    0.882227 0.309649 0.523524 0.200880
H7    H     H_    0.886497 0.353326 0.350931 0.208726
H8    H     H_    0.120668 0.585726 0.296537 0.169242
C13   C     C_2   0.516544 0.935546 0.388992 -0.056194
C14   C     C_2   0.532965 0.863989 0.498564 -0.209825
H9    H     H_    0.489801 0.897242 0.291195 0.168873
H10   H     H_    0.571416 0.900871 0.591092 0.141566
C15   C     C_2   0.534910 0.068375 0.398634 -0.329345
C16   C     C_2   0.495130 0.131177 0.508332 0.338965
H11   H     H_    0.577131 0.115982 0.310224 0.136644
C17   C     C_2   0.413883 0.445942 0.927847 0.246908
N1    N     N_2   0.498630 0.498660 0.846910 -0.357177
H12   H     H_    0.582269 0.521235 0.890600 0.168961
C18   C     C_2   0.431056 0.425092 0.081077 0.451537
N2    N     N_2   0.498590 0.498630 0.153040 -0.314855
H13   H     H_    0.542719 0.571544 0.102541 0.169927
N3    N     N_R   0.900227 0.577564 0.247636 0.125431
O9    O     O_R   0.818120 0.640371 0.183042 -0.303127
O10   O     O_R   0.957622 0.493918 0.178947 -0.394418
O11   O     O_3   0.428388 0.071860 0.615414 -0.495018
C19   C     C_3   0.493842 0.080408 0.739932 0.092537
H14   H     H_    0.480305 0.169856 0.788666 0.184610
H15   H     H_    0.595628 0.068020 0.724865 0.096095
C20   C     C_3   0.442653 0.982678 0.840760 -0.746963
H16   H     H_    0.454247 0.889817 0.798585 0.259063
H17   H     H_    0.492925 0.989098 0.938939 0.178000
H18   H     H_    0.342237 0.996372 0.861519 0.278323
N4    N     N_R   0.297552 0.403714 0.874368 0.141097
O12   O     O_R   0.196111 0.424985 0.943927 -0.327041
O13   O     O_R   0.295431 0.315825 0.785744 -0.309132
O14   O     O_3   0.357212 0.336999 0.150361 -0.499412
C21   C     C_3   0.386259 0.219482 0.102474 0.026386
H19   H     H_    0.484387 0.198875 0.124030 0.117732
H20   H     H_    0.372383 0.210659 0.991043 0.170745
C22   C     C_3   0.300423 0.123662 0.172525 -0.603294
H21   H     H_    0.201975 0.143562 0.151771 0.271813
H22   H     H_    0.321018 0.031369 0.133266 0.188678
H23   H     H_    0.314354 0.123613 0.284576 0.282799
N5    N     N_R   0.136980 0.733937 0.421943 0.127639
O15   O     O_R   0.209299 0.756346 0.524550 -0.386359
O16   O     O_R   0.127701 0.818190 0.327284 -0.300919
O17   O     O_3   0.887504 0.732309 0.406149 -0.538886
C23   C     C_3   0.881504 0.781645 0.538955 0.057850
H24   H     H_    0.965456 0.764415 0.598528 0.187178
H25   H     H_    0.795669 0.746666 0.593267 0.118930
C24   C     C_3   0.872365 0.920082 0.526165 -0.658992
H26   H     H_    0.792441 0.943808 0.461937 0.229954
H27   H     H_    0.859223 0.960015 0.629571 0.194262
H28   H     H_    0.958832 0.960523 0.477894 0.301077
N6    N     N_R   0.110513 0.277151 0.532983 0.152781
O18   O     O_R   0.064651 0.252519 0.655391 -0.315185
O19   O     O_R   0.188154 0.202053 0.478628 -0.338198

loop_
_geom_bond_atom_site_label_1
_geom_bond_atom_site_label_2
_geom_bond_distance
_ccdc_geom_bond_type
C5    C6    1.525612 S    
N5    O16   1.301514 A    
N4    O12   1.301474 A    
C7    N5    1.475992 S    
C12   H7    1.108387 S    
C18   N2    1.290967 D    
C3    C14   1.438439 S    
C15   C16   1.346521 D    
C7    C11   1.583356 S    
C11   N3    1.490262 S    
Cu1   Cu2   2.699556 S    
N6    O18   1.301801 A    
Cu1   O7    1.969739 S    
C8    H5    1.114251 S    
C15   H11   1.083949 S    
Cu2   N2    2.029023 S    
C18   O14   1.387976 S    
C17   N1    1.307762 D    
O7    C4    1.297644 A    
C5    H1    1.106811 S    
C16   O11   1.394527 S    
C5    H2    1.102488 S    
C6    H3    1.114853 S    
C24   H26   1.109757 S    
O5    C3    1.295025 A    
C22   H22   1.110272 S    
C19   C20   1.523323 S    
C17   N4    1.432580 S    
O11   C19   1.418148 S    
C13   H9    1.086215 S    
C23   H24   1.104200 S    
C5    C9    1.549607 S    
N5    O15   1.301092 A    
C21   H19   1.110940 S    
C24   H27   1.110622 S    
C6    C10   1.570798 S    
O3    Cu1   1.978949 S    
N3    O10   1.303018 A    
N6    O19   1.298890 A    
C21   H20   1.103452 S    
C20   H16   1.109284 S    
C17   C18   1.522280 S    
O3    C2    1.300374 A    
N1    H12   1.028904 S    
C10   C11   1.608943 S    
C20   H17   1.110632 S    
C14   H10   1.077488 S    
C22   H21   1.110932 S    
C13   C14   1.332347 D    
Cu2   O8    1.978951 S    
C23   C24   1.522526 S    
C19   H14   1.104481 S    
O8    C4    1.298270 A    
C8    C12   1.554158 S    
N4    O13   1.299629 A    
C24   H28   1.110600 S    
C13   C15   1.463334 S    
N2    H13   1.028863 S    
N3    O9    1.303057 A    
Cu1   O5    1.954141 S    
C21   C22   1.519913 S    
C22   H23   1.104445 S    
O1    Cu1   1.959771 S    
O2    Cu2   1.954141 S    
C8    N6    1.471652 S    
O6    C3    1.294221 A    
O4    Cu2   1.969739 S    
C10   C12   1.554921 S    
C7    H8    1.110724 S    
C20   H18   1.110757 S    
C7    C9    1.580239 S    
O2    C1    1.306420 A    
O14   C21   1.413699 S    
O4    C2    1.295161 A    
C1    C16   1.461685 S    
C2    C9    1.488423 S    
C19   H15   1.115302 S    
C6    H4    1.104350 S    
C4    C10   1.484168 S    
O17   C23   1.408537 S    
Cu2   O6    1.959771 S    
C12   H6    1.113256 S    
C11   O17   1.439076 S    
Cu1   N1    2.027499 S    
C8    C9    1.575977 S    
C23   H25   1.109905 S    
O1    C1    1.291467 A    
