data_mof_unit_5237.cif
_audit_creation_date              2012-12-10T19:03:40-0500
_audit_creation_method            fapswitch 2.2
_symmetry_space_group_name_H-M    P1
_symmetry_Int_Tables_number       1
_space_group_crystal_system       triclinic
_cell_length_a                    15.842354
_cell_length_b                    10.845408
_cell_length_c                    9.643035
_cell_angle_alpha                 92.9005
_cell_angle_beta                  91.532487
_cell_angle_gamma                 90.370826
_cell_volume                      1654.07013282

loop_
_atom_site_label
_atom_site_type_symbol
_atom_type_description
_atom_site_fract_x
_atom_site_fract_y
_atom_site_fract_z
_atom_type_partial_charge
C1    C     C_R   0.500101 0.262873 0.496776 0.772509
C2    C     C_3   0.954854 0.521075 0.649569 -0.416060
C3    C     C_3   0.916823 0.496622 0.500459 0.014136
C4    C     C_3   0.948363 0.599172 0.405986 0.322385
C5    C     C_3   0.046299 0.605091 0.413023 -0.355856
C6    C     C_1   0.824609 0.496701 0.505100 0.068126
C7    C     C_1   0.175116 0.499218 0.493640 0.014710
C8    C     C_1   0.250761 0.499749 0.494307 -0.178858
C9    C     C_R   0.450616 0.067763 0.583456 0.014817
C10   C     C_R   0.498064 0.129599 0.489624 -0.097980
C11   C     C_R   0.549901 0.060637 0.399822 -0.223026
C12   C     C_R   0.340456 0.500030 0.498321 0.813275
C13   C     C_R   0.553909 0.932126 0.407976 -0.201462
C14   C     C_R   0.504846 0.871337 0.503677 -0.048863
C15   C     C_R   0.450174 0.940467 0.586001 0.020957
C16   C     C_3   0.442827 0.942898 0.739393 -0.539192
C17   C     C_3   0.444701 0.083182 0.738109 0.291282
C18   C     C_R   0.538867 0.589795 0.081050 0.117960
C19   C     C_R   0.454796 0.414929 0.067253 -0.058687
C20   C     C_R   0.455152 0.414517 0.918766 -0.019906
C21   C     C_R   0.534643 0.596378 0.936819 0.140142
C22   C     C_3   0.619847 0.663002 0.949346 0.738668
C23   C     C_R   0.502777 0.737482 0.502419 0.795331
C24   C     C_3   0.624947 0.637764 0.105022 -0.554816
C25   C     C_R   0.659482 0.499351 0.501548 0.821667
C26   C     C_3   0.052831 0.513888 0.649840 0.256533
C27   C     C_3   0.047419 0.372437 0.432257 0.166677
C28   C     C_3   0.948961 0.368739 0.443223 0.128852
C29   C     C_1   0.749056 0.497707 0.505019 -0.105072
C30   C     C_3   0.082779 0.497939 0.496629 0.030763
Cu1   Cu    Cu3+1 0.500000 0.499980 0.640670 0.987812
Cu2   Cu    Cu3+1 0.500000 0.500020 0.359330 0.949060
H1    H     H_    0.929832 0.452050 0.719973 0.155928
H2    H     H_    0.934499 0.613239 0.691905 0.269530
H3    H     H_    0.929789 0.572087 0.295944 0.140351
H4    H     H_    0.590487 0.106339 0.329423 0.155717
H5    H     H_    0.597040 0.880669 0.342746 0.132051
H6    H     H_    0.381103 0.904938 0.770076 0.167460
H7    H     H_    0.498223 0.900165 0.787007 0.257161
H8    H     H_    0.382995 0.123702 0.767238 0.093476
H9    H     H_    0.419262 0.344677 0.116686 0.144478
H10   H     H_    0.070473 0.429650 0.705976 0.065598
H11   H     H_    0.419300 0.344694 0.858469 0.157500
H12   H     H_    0.668841 0.561731 0.129444 0.226535
H13   H     H_    0.628282 0.713057 0.185926 0.164767
H14   H     H_    0.073732 0.296640 0.493592 0.094001
H15   H     H_    0.933019 0.298886 0.519352 0.107908
H16   H     H_    0.068297 0.695124 0.462132 0.229953
H17   H     H_    0.070486 0.601080 0.305802 0.163685
N1    N     N_R   0.500530 0.500930 0.147930 -0.168698
N2    N     N_R   0.500530 0.500890 0.852020 -0.192642
O1    O     O_R   0.500000 0.319640 0.618810 -0.563432
O2    O     O_R   0.500010 0.319680 0.381230 -0.581691
O3    O     O_R   0.379430 0.499990 0.618840 -0.596334
O4    O     O_R   0.379440 0.500030 0.381260 -0.562482
O5    O     O_R   0.499990 0.680320 0.618770 -0.557257
O6    O     O_R   0.500000 0.680360 0.381190 -0.597263
O7    O     O_R   0.620560 0.499970 0.618740 -0.515003
O8    O     O_R   0.620570 0.500010 0.381160 -0.585370
O9    O     O_3   0.086922 0.623890 0.716923 -0.575449
C31   C     C_3   0.157787 0.600687 0.804589 0.069281
H18   H     H_    0.201809 0.680527 0.800650 0.166034
H19   H     H_    0.194159 0.517540 0.770437 0.127478
C32   C     C_3   0.131060 0.589497 0.954803 -0.350985
H20   H     H_    0.097985 0.674940 0.990540 0.227137
H21   H     H_    0.086841 0.510089 0.960767 0.249174
C33   C     C_3   0.207857 0.570200 0.050390 -0.835298
H22   H     H_    0.240648 0.483494 0.018452 0.257866
H23   H     H_    0.187599 0.563436 0.158913 0.280253
H24   H     H_    0.252728 0.649071 0.046898 0.238598
O10   O     O_3   0.512489 0.143546 0.817021 -0.598859
C34   C     C_3   0.595929 0.121027 0.771688 0.111558
H25   H     H_    0.608433 0.163486 0.673005 0.154606
H26   H     H_    0.609508 0.021152 0.757255 0.158276
C35   C     C_3   0.658293 0.184133 0.877427 -0.345587
H27   H     H_    0.652613 0.285986 0.872129 0.258880
H28   H     H_    0.643121 0.160904 0.984806 0.213912
C36   C     C_3   0.749155 0.147123 0.848544 -0.857220
H29   H     H_    0.756859 0.046045 0.857434 0.262643
H30   H     H_    0.792584 0.195974 0.925520 0.290955
H31   H     H_    0.766375 0.172564 0.742707 0.253913
Cl1   Cl    Cl    0.705261 0.589088 0.862833 -0.628746
O11   O     O_3   0.611406 0.788004 0.910538 -0.608604
C37   C     C_3   0.588631 0.877472 0.016457 -0.009393
H32   H     H_    0.594268 0.967219 0.971281 0.206317
H33   H     H_    0.636012 0.886268 0.102835 0.121855
C38   C     C_3   0.496604 0.865677 0.065883 -0.403971
H34   H     H_    0.456387 0.813035 0.987460 0.216790
H35   H     H_    0.496327 0.813795 0.161504 0.230714
C39   C     C_3   0.454860 0.990643 0.098803 -0.800999
H36   H     H_    0.502075 0.063624 0.128912 0.256504
H37   H     H_    0.410277 0.982359 0.184886 0.251681
H38   H     H_    0.417985 0.020761 0.007808 0.261339
Cl2   Cl    Cl    0.084201 0.342187 0.258467 -0.579831
Cl3   Cl    Cl    0.893902 0.316513 0.284564 -0.578924
O12   O     O_3   0.916079 0.716341 0.450811 -0.590451
C40   C     C_3   0.853730 0.759086 0.357055 0.044784
H39   H     H_    0.812324 0.823527 0.416643 0.176534
H40   H     H_    0.811743 0.683617 0.311915 0.133820
C41   C     C_3   0.894685 0.829410 0.242098 -0.349322
H41   H     H_    0.933030 0.907475 0.289705 0.251503
H42   H     H_    0.937259 0.767164 0.181908 0.211830
C42   C     C_3   0.828102 0.879789 0.143044 -0.839846
H43   H     H_    0.790472 0.802804 0.091618 0.276574
H44   H     H_    0.859501 0.931171 0.061794 0.274811
H45   H     H_    0.785282 0.943768 0.200380 0.246053

loop_
_geom_bond_atom_site_label_1
_geom_bond_atom_site_label_2
_ccdc_geom_bond_type
C38   H34   S    
C28   H15   S    
C18   C21   A    
C19   C20   A    
C19   N1    A    
C37   C38   S    
Cu1   O1    S    
C3    C6    S    
C40   C41   S    
C40   H39   S    
C7    C8    T    
C18   N1    A    
C28   Cl3   S    
C18   C24   S    
C24   H13   S    
C22   Cl1   S    
Cu1   O7    S    
C11   H4    S    
C37   H33   S    
C20   N2    A    
C36   H30   S    
C15   C16   S    
C31   H19   S    
C1    O2    A    
C4    O12   S    
Cu1   Cu2   S    
C16   C17   S    
Cu1   O5    S    
C9    C10   A    
Cu2   O4    S    
C13   H5    S    
C2    H2    S    
C2    H1    S    
C4    H3    S    
C7    C30   S    
C21   C22   S    
C27   C30   S    
C5    H17   S    
Cu2   O6    S    
C34   C35   S    
C40   H40   S    
C25   C29   S    
C5    H16   S    
C33   H22   S    
C32   C33   S    
C23   O5    A    
C37   H32   S    
C2    C26   S    
C36   H29   S    
C34   H25   S    
C35   C36   S    
C41   C42   S    
O9    C31   S    
C33   H23   S    
C17   H8    S    
C32   H21   S    
C14   C23   S    
C31   C32   S    
C35   H27   S    
C39   H37   S    
O11   C37   S    
C8    C12   S    
O12   C40   S    
C41   H42   S    
C42   H44   S    
C35   H28   S    
Cu2   N1    S    
C27   H14   S    
C9    C17   S    
C17   O10   S    
C38   H35   S    
C24   H12   S    
C22   C24   S    
C25   O7    A    
C3    C4    S    
Cu2   O2    S    
C21   N2    A    
C20   H11   S    
C34   H26   S    
C26   H10   S    
C39   H38   S    
C5    C30   S    
C23   O6    A    
C3    C28   S    
C1    C10   S    
Cu1   N2    S    
C4    C5    S    
C26   C30   S    
C33   H24   S    
C22   O11   S    
C2    C3    S    
C9    C15   A    
O10   C34   S    
C32   H20   S    
C11   C13   A    
C36   H31   S    
C39   H36   S    
C41   H41   S    
C42   H45   S    
Cu1   O3    S    
C31   H18   S    
C1    O1    A    
C12   O4    A    
C10   C11   A    
C16   H7    S    
C6    C29   T    
C38   C39   S    
C42   H43   S    
C14   C15   A    
C27   Cl2   S    
C25   O8    A    
Cu2   O8    S    
C13   C14   A    
C26   O9    S    
C12   O3    A    
C19   H9    S    
C16   H6    S    
C27   C28   S    
