data_mof_unit_28137.cif
_audit_creation_date              2012-12-10T19:45:46-0500
_audit_creation_method            fapswitch 2.2
_symmetry_space_group_name_H-M    P1
_symmetry_Int_Tables_number       1
_space_group_crystal_system       triclinic
_cell_length_a                    11.086614
_cell_length_b                    14.949308
_cell_length_c                    15.217151
_cell_angle_alpha                 63.220728
_cell_angle_beta                  107.949869
_cell_angle_gamma                 101.739954
_cell_volume                      2135.75625096

loop_
_atom_site_label
_atom_site_type_symbol
_atom_type_description
_atom_site_fract_x
_atom_site_fract_y
_atom_site_fract_z
_atom_type_partial_charge
C1    C     C_R   0.474724 0.120437 0.312401 0.809285
C2    C     C_R   0.693666 0.757721 0.965586 0.477387
C3    C     C_R   0.362078 0.162156 0.129813 -0.247026
C4    C     C_R   0.646152 0.832632 0.868900 -0.248412
C5    C     C_R   0.494128 0.291695 0.173680 -0.146682
C6    C     C_R   0.483265 0.716042 0.829525 -0.160177
C7    C     C_R   0.465920 0.360869 0.070877 0.004605
C8    C     C_R   0.537879 0.634458 0.918498 0.009921
C9    C     C_R   0.360878 0.335735 0.002643 0.002958
C10   C     C_R   0.647133 0.655556 0.988290 -0.002022
C11   C     C_R   0.533727 0.456778 0.037505 -0.018091
C12   C     C_R   0.521445 0.880021 0.687720 0.798560
C13   C     C_R   0.483075 0.533689 0.941613 -0.024518
C14   C     C_R   0.381472 0.505706 0.872309 0.080374
C15   C     C_R   0.656992 0.475033 0.093097 0.084876
C16   C     C_R   0.263509 0.998562 0.502552 0.835035
C17   C     C_R   0.736309 0.001083 0.497166 0.842896
C18   C     C_R   0.312262 0.412242 0.906680 0.219940
C19   C     C_R   0.707615 0.573923 0.075514 0.204591
C20   C     C_R   0.692475 0.264930 0.689689 0.077444
C21   C     C_R   0.292601 0.731375 0.315336 0.073257
C22   C     C_R   0.674164 0.194102 0.649607 0.298760
C23   C     C_R   0.869691 0.001605 0.493767 -0.172963
C24   C     C_R   0.317872 0.803922 0.354399 0.308925
C25   C     C_R   0.521914 0.290438 0.502752 0.486843
C26   C     C_R   0.487997 0.714253 0.487110 0.484443
C27   C     C_R   0.540913 0.368211 0.537019 -0.072453
C28   C     C_R   0.449645 0.629873 0.461902 -0.042974
C29   C     C_R   0.629139 0.353398 0.631880 -0.010543
C30   C     C_R   0.351293 0.641120 0.373445 -0.010483
C31   C     C_R   0.474677 0.458902 0.482797 0.097749
C32   C     C_R   0.507599 0.535939 0.519548 0.110437
C33   C     C_R   0.590131 0.513505 0.616381 -0.093560
C34   C     C_R   0.129550 0.996060 0.505858 -0.174931
C35   C     C_R   0.370069 0.472687 0.398116 -0.109672
C36   C     C_R   0.651833 0.426659 0.669199 -0.085795
C37   C     C_R   0.311133 0.561340 0.344766 -0.078725
C38   C     C_R   0.350131 0.119227 0.735103 0.153736
C39   C     C_R   0.649314 0.862128 0.274048 0.151471
C40   C     C_R   0.272398 0.069377 0.677550 -0.210142
C41   C     C_R   0.724889 0.916153 0.328355 -0.202370
C42   C     C_R   0.189953 0.121781 0.584116 -0.050074
C43   C     C_R   0.810567 0.868546 0.421675 -0.040354
C44   C     C_R   0.187053 0.226881 0.547627 0.339047
C45   C     C_R   0.905440 0.933145 0.466428 -0.142314
C46   C     C_R   0.819821 0.763343 0.460707 0.439962
C47   C     C_R   0.248658 0.273034 0.613628 0.130155
C48   C     C_R   0.756004 0.712033 0.399372 0.144858
C49   C     C_R   0.333814 0.220221 0.706797 0.083199
C50   C     C_R   0.668311 0.760722 0.306339 0.067923
C51   C     C_R   0.964527 0.067196 0.525500 0.391898
C52   C     C_R   0.035062 0.930195 0.474118 0.380394
C53   C     C_R   0.093868 0.062419 0.534851 -0.134558
C54   C     C_R   0.445403 0.191414 0.203585 -0.100430
C55   C     C_R   0.547903 0.810351 0.797369 -0.102710
C56   C     C_R   0.313061 0.233569 0.031227 0.478651
Cu1   Cu    Cu3+1 0.466270 0.918260 0.475690 1.008358
Cu2   Cu    Cu3+1 0.533730 0.081740 0.524310 1.009815
H1    H     H_    0.715986 0.417790 0.741671 0.192893
H2    H     H_    0.331547 0.084264 0.149058 0.193158
H3    H     H_    0.204439 0.129603 0.993317 0.353206
H4    H     H_    0.805026 0.858071 0.008218 0.352884
H5    H     H_    0.606312 0.764868 0.580356 0.379233
H6    H     H_    0.388202 0.244376 0.416306 0.346370
H7    H     H_    0.094294 0.246391 0.409684 0.346220
H8    H     H_    0.917659 0.750285 0.595728 0.343641
H9    H     H_    0.987704 0.140429 0.607805 0.350866
H10   H     H_    0.011706 0.857119 0.391687 0.343772
H11   H     H_    0.229663 0.564457 0.282432 0.195747
H12   H     H_    0.604425 0.558513 0.657806 0.214900
H13   H     H_    0.322053 0.414290 0.374767 0.213250
H14   H     H_    0.276769 0.989108 0.705364 0.174951
H15   H     H_    0.716818 0.996288 0.297568 0.184561
H16   H     H_    0.389263 0.709154 0.784128 0.186147
H17   H     H_    0.555125 0.315964 0.230975 0.213244
H18   H     H_    0.687057 0.908181 0.850042 0.190659
I1    I     I_    0.432756 0.288356 0.807132 -0.238855
I2    I     I_    0.511100 0.941475 0.143265 -0.222875
I3    I     I_    0.190981 0.416009 0.573630 -0.128954
I4    I     I_    0.804784 0.563509 0.447476 -0.115602
I5    I     I_    0.121842 0.400667 0.818990 -0.100631
I6    I     I_    0.876855 0.589932 0.185446 -0.106287
I7    I     I_    0.568364 0.683613 0.213246 -0.222929
I8    I     I_    0.363813 0.575128 0.711056 -0.277624
I9    I     I_    0.786691 0.356771 0.173241 -0.247928
I10   I     I_    0.198218 0.925674 0.274309 -0.258690
I11   I     I_    0.801792 0.078257 0.725461 -0.250619
I12   I     I_    0.806723 0.232041 0.842788 -0.177867
I13   I     I_    0.179595 0.763838 0.162350 -0.188486
I14   I     I_    0.485621 0.034103 0.864699 -0.229030
N1    N     N_R   0.584450 0.204570 0.560790 -0.250926
N2    N     N_R   0.415550 0.795430 0.439210 -0.254470
O1    O     O_R   0.455540 0.022090 0.338120 -0.568987
O2    O     O_3   0.785885 0.784145 0.036424 -0.664041
O3    O     O_3   0.605279 0.718382 0.551068 -0.767296
O4    O     O_3   0.449608 0.303869 0.407615 -0.733432
O5    O     O_3   0.115235 0.284059 0.452552 -0.660369
O6    O     O_3   0.895858 0.710069 0.555304 -0.642191
O7    O     O_3   0.928824 0.138417 0.544834 -0.639979
O8    O     O_3   0.071597 0.859896 0.454014 -0.650715
O9    O     O_R   0.544460 0.977910 0.661880 -0.565727
O10   O     O_R   0.512510 0.160150 0.379180 -0.556053
O11   O     O_R   0.487490 0.839850 0.620820 -0.589432
O12   O     O_R   0.291160 0.930970 0.479480 -0.490712
O13   O     O_R   0.708840 0.069030 0.520520 -0.489297
O14   O     O_R   0.348130 0.069020 0.520540 -0.626316
O15   O     O_R   0.651870 0.930980 0.479460 -0.603972
O16   O     O_3   0.226551 0.202951 0.960812 -0.661185

loop_
_geom_bond_atom_site_label_1
_geom_bond_atom_site_label_2
_ccdc_geom_bond_type
C8    C13   A    
C23   C45   A    
Cu1   N2    S    
C37   H11   S    
C27   C29   A    
C14   C18   A    
C14   I8    S    
C6    C55   A    
C36   H1    S    
C33   C36   A    
C47   C49   A    
C38   C49   A    
C21   I13   S    
C15   C19   A    
C29   C36   A    
C17   C23   S    
C35   C37   A    
C17   O15   A    
C42   C53   S    
C3    C54   A    
C26   N2    A    
H5    O3    S    
C18   I5    S    
C3    C56   A    
H3    O16   S    
C56   O16   S    
C16   C34   S    
C11   C15   A    
C16   O12   A    
C22   N1    A    
C6    H16   S    
Cu2   O10   S    
C47   I3    S    
C19   I6    S    
Cu2   N1    S    
C44   C47   A    
C16   O14   A    
C15   I9    S    
C3    H2    S    
C40   C42   A    
C46   O6    S    
C35   H13   S    
Cu1   O1    S    
C13   C14   A    
C41   C43   A    
C42   C44   A    
C24   N2    A    
C50   I7    S    
C7    C11   A    
C20   C29   A    
C51   O7    S    
Cu1   O11   S    
C46   C48   A    
C25   N1    A    
C27   C31   A    
C39   I2    S    
C5    C54   A    
C28   C32   A    
H6    O4    S    
C12   O11   A    
C39   C41   A    
C5    C7    A    
C6    C8    A    
C45   C52   A    
C52   O8    S    
C30   C37   A    
Cu2   O14   S    
C5    H17   S    
C2    C4    A    
C1    C54   S    
H10   O8    S    
C17   O13   A    
C44   O5    S    
C23   C51   A    
C31   C32   A    
C2    O2    S    
C10   C19   A    
Cu2   O9    S    
C22   I11   S    
C43   C45   S    
C33   H12   S    
C25   O4    S    
C1    O1    A    
Cu1   O15   S    
C20   C22   A    
H4    O2    S    
C4    C55   A    
C31   C35   A    
C2    C10   A    
C26   O3    S    
C7    C9    A    
Cu1   O12   S    
C40   H14   S    
C26   C28   A    
H9    O7    S    
C25   C27   A    
C9    C56   A    
C21   C30   A    
C38   I14   S    
C34   C52   A    
Cu2   O13   S    
C32   C33   A    
H8    O6    S    
C28   C30   A    
H7    O5    S    
C12   O9    A    
C38   C40   A    
C11   C13   A    
C48   I4    S    
Cu1   Cu2   S    
C20   I12   S    
C48   C50   A    
C49   I1    S    
C43   C46   A    
C4    H18   S    
C12   C55   S    
C41   H15   S    
C9    C18   A    
C39   C50   A    
C34   C53   A    
C8    C10   A    
C21   C24   A    
C51   C53   A    
C24   I10   S    
C1    O10   A    
