data_mof_unit_62319.cif
_audit_creation_date              2012-12-10T20:48:19-0500
_audit_creation_method            fapswitch 2.2
_symmetry_space_group_name_H-M    P1
_symmetry_Int_Tables_number       1
_space_group_crystal_system       triclinic
_cell_length_a                    16.028675
_cell_length_b                    19.216963
_cell_length_c                    19.228578
_cell_angle_alpha                 94.493303
_cell_angle_beta                  95.224827
_cell_angle_gamma                 90.753395
_cell_volume                      5878.86908801

loop_
_atom_site_label
_atom_site_type_symbol
_atom_type_description
_atom_site_fract_x
_atom_site_fract_y
_atom_site_fract_z
_atom_type_partial_charge
C1    C     C_R   0.508390 0.310538 0.492736 0.510536
C2    C     C_R   0.448273 0.804387 0.561390 -0.153654
C3    C     C_R   0.543660 0.127055 0.545080 -0.088981
C4    C     C_R   0.492228 0.689484 0.507533 0.508299
C5    C     C_R   0.548397 0.199739 0.545944 -0.146063
C6    C     C_R   0.498869 0.087514 0.488408 0.217529
C7    C     C_R   0.508302 0.233881 0.490668 0.027765
C8    C     C_R   0.464968 0.194206 0.433909 -0.144341
C9    C     C_R   0.460941 0.121729 0.432748 -0.110532
C10   C     C_R   0.479742 0.497271 0.233698 0.037312
C11   C     C_R   0.476598 0.564281 0.209387 -0.129866
C12   C     C_1   0.110919 0.482353 0.482410 -0.038559
C13   C     C_R   0.468388 0.573492 0.137753 0.004341
C14   C     C_R   0.465361 0.514835 0.089221 0.226911
C15   C     C_R   0.466026 0.447292 0.113367 -0.062108
C16   C     C_R   0.508327 0.507195 0.690142 0.517871
C17   C     C_R   0.472867 0.437913 0.185265 -0.040085
C18   C     C_R   0.551111 0.444403 0.870900 0.274819
C19   C     C_R   0.554911 0.452560 0.799714 -0.124773
C20   C     C_R   0.499868 0.487970 0.910049 0.225144
C21   C     C_R   0.507416 0.503367 0.766295 -0.019723
C22   C     C_R   0.456502 0.546955 0.805333 -0.166387
C23   C     C_1   0.889153 0.517287 0.517206 -0.037091
C24   C     C_R   0.452761 0.539574 0.876608 -0.143382
C25   C     C_R   0.491040 0.492457 0.309897 0.507085
C26   C     C_R   0.724149 0.509960 0.509925 0.507203
C27   C     C_R   0.275924 0.489966 0.489996 0.507499
C28   C     C_1   0.813791 0.513991 0.513930 0.022194
C29   C     C_2   0.979189 0.521046 0.520942 -0.116329
C30   C     C_2   0.020882 0.478564 0.478637 -0.117151
C31   C     C_3   0.475908 0.364994 0.208941 -0.376874
C32   C     C_3   0.465707 0.646028 0.113286 -0.375869
C33   C     C_3   0.620454 0.911332 0.444034 -0.368737
C34   C     C_1   0.186282 0.485742 0.485787 0.020573
C35   C     C_R   0.495620 0.766390 0.514226 0.013583
C36   C     C_R   0.550398 0.802186 0.475760 -0.128141
C37   C     C_R   0.557949 0.875081 0.483641 0.019797
C38   C     C_R   0.508528 0.912856 0.530312 0.240569
C39   C     C_R   0.455230 0.877057 0.569606 -0.113587
H1    H     H_    0.987592 0.440615 0.440849 0.140307
H2    H     H_    0.575153 0.102082 0.588416 0.146032
H3    H     H_    0.418254 0.905766 0.606145 0.130736
H4    H     H_    0.406409 0.777973 0.592324 0.143521
H5    H     H_    0.433934 0.219185 0.390335 0.138326
H6    H     H_    0.427331 0.091972 0.388496 0.124469
H7    H     H_    0.695880 0.376345 0.004417 0.369310
H8    H     H_    0.475529 0.324992 0.163957 0.133617
H9    H     H_    0.534017 0.358876 0.243839 0.141448
H10   H     H_    0.420465 0.354725 0.237497 0.163034
H11   H     H_    0.519612 0.654680 0.082359 0.160439
H12   H     H_    0.588293 0.773257 0.440068 0.140438
H13   H     H_    0.406471 0.652391 0.079896 0.144813
H14   H     H_    0.468840 0.686619 0.157926 0.119698
H15   H     H_    0.662223 0.946438 0.480922 0.153403
H16   H     H_    0.660370 0.873432 0.416483 0.113928
H17   H     H_    0.587371 0.942226 0.404033 0.159889
H18   H     H_    0.593988 0.418210 0.769996 0.183114
H19   H     H_    0.461703 0.401882 0.075992 0.165112
H20   H     H_    0.418964 0.586242 0.780674 0.150720
H21   H     H_    0.412249 0.573691 0.905129 0.147610
H22   H     H_    0.480459 0.609787 0.246714 0.129279
H23   H     H_    0.012491 0.558992 0.558728 0.140849
H24   H     H_    0.582230 0.229209 0.590258 0.148509
N1    N     N_2   0.512830 0.986586 0.539543 -0.249945
N2    N     N_2   0.492702 0.013546 0.483723 -0.245565
N3    N     N_2   0.463481 0.525390 0.016776 -0.259755
N4    N     N_2   0.497471 0.477922 0.982305 -0.162747
O1    O     O_3   0.500000 0.500000 0.500000 -0.436883
O2    O     O_R   0.688130 0.469010 0.547620 -0.530929
O3    O     O_R   0.315580 0.449250 0.449280 -0.535170
O4    O     O_R   0.680710 0.547310 0.468650 -0.535805
O5    O     O_R   0.315580 0.534430 0.534450 -0.535955
O6    O     O_2   0.551927 0.326076 0.934651 -0.274732
O7    O     O_2   0.666030 0.343547 0.860526 -0.277719
O8    O     O_3   0.670265 0.415998 0.980955 -0.497851
O9    O     O_R   0.456860 0.545290 0.655940 -0.539048
O10   O     O_R   0.446440 0.450430 0.339790 -0.544766
O11   O     O_R   0.557290 0.347960 0.537250 -0.539203
O12   O     O_R   0.539410 0.656320 0.467010 -0.549469
O13   O     O_R   0.456880 0.340240 0.450910 -0.547319
O14   O     O_R   0.446420 0.655480 0.544820 -0.541832
O15   O     O_R   0.557280 0.467820 0.657110 -0.542136
O16   O     O_R   0.539420 0.536460 0.347160 -0.542474
S1    S     S_3+6 0.610686 0.379084 0.910899 0.029832
Zn1   Zn    Zn3+2 0.430910 0.557800 0.557800 0.945985
Zn2   Zn    Zn3+2 0.574380 0.447110 0.559460 0.957079
Zn3   Zn    Zn3+2 0.563780 0.559000 0.446630 0.941676
Zn4   Zn    Zn3+2 0.430930 0.436090 0.436110 0.939333

loop_
_geom_bond_atom_site_label_1
_geom_bond_atom_site_label_2
_ccdc_geom_bond_type
C2    C35   A    
C33   H16   S    
O16   Zn3   S    
C9    H6    S    
C16   C21   S    
O1    Zn1   S    
O1    Zn2   S    
C13   C32   S    
C35   C36   A    
C3    C6    A    
O3    Zn4   S    
C6    C9    A    
O12   Zn3   S    
O5    Zn1   S    
C7    C8    A    
C19   H18   S    
C37   C38   A    
C25   O10   A    
C23   C29   S    
C36   C37   A    
C19   C21   A    
C38   C39   A    
O8    S1    S    
C10   C17   A    
C5    H24   S    
C18   C19   A    
C32   H13   S    
C20   N4    S    
C2    C39   A    
C6    N2    S    
C4    O14   A    
C20   C24   A    
O10   Zn4   S    
C8    C9    A    
C18   S1    S    
O6    S1    D    
O11   Zn2   S    
C33   H17   S    
C16   O9    A    
N3    N4    D    
C4    C35   S    
C31   H8    S    
C13   C14   A    
C26   O4    A    
C31   H10   S    
H7    O8    S    
C39   H3    S    
C38   N1    S    
C27   C34   S    
C26   O2    A    
C1    O11   A    
C4    O12   A    
C22   H20   S    
C5    C7    A    
C11   H22   S    
O15   Zn2   S    
C33   C37   S    
C29   C30   D    
C2    H4    S    
C24   H21   S    
C16   O15   A    
C14   N3    S    
C30   H1    S    
C23   C28   T    
C27   O3    A    
C32   H11   S    
C36   H12   S    
O4    Zn3   S    
C10   C25   S    
C31   H9    S    
C17   C31   S    
C15   H19   S    
C22   C24   A    
C12   C34   T    
C32   H14   S    
C33   H15   S    
C15   C17   A    
C29   H23   S    
C3    H2    S    
C12   C30   S    
C1    C7    S    
C8    H5    S    
O7    S1    D    
C3    C5    A    
C26   C28   S    
N1    N2    D    
O13   Zn4   S    
C11   C13   A    
O1    Zn4   S    
C18   C20   A    
C10   C11   A    
C27   O5    A    
C25   O16   A    
O1    Zn3   S    
C14   C15   A    
C1    O13   A    
C21   C22   A    
O9    Zn1   S    
O14   Zn1   S    
O2    Zn2   S    
