data_mof_unit_15363.cif
_audit_creation_date              2012-12-11T14:40:09-0500
_audit_creation_method            fapswitch 2.2
_symmetry_space_group_name_H-M    P1
_symmetry_Int_Tables_number       1
_space_group_crystal_system       triclinic
_cell_length_a                    19.644218
_cell_length_b                    10.858622
_cell_length_c                    19.465878
_cell_angle_alpha                 90.015064
_cell_angle_beta                  97.318612
_cell_angle_gamma                 89.951033
_cell_volume                      4118.42019549

loop_
_atom_site_label
_atom_site_type_symbol
_atom_type_description
_atom_site_fract_x
_atom_site_fract_y
_atom_site_fract_z
_atom_type_partial_charge
C1    C     C_R   0.706775 0.001854 0.366253 0.563066
C2    C     C_R   0.293234 0.001892 0.633742 0.562302
C3    C     C_R   0.206581 0.502377 0.365886 0.559711
C4    C     C_R   0.793428 0.502417 0.634110 0.558921
C5    C     C_3   0.697344 0.421593 0.481027 -0.121100
C6    C     C_3   0.302637 0.421345 0.518985 -0.119910
C7    C     C_3   0.227393 0.846812 0.487448 -0.120060
C8    C     C_3   0.772639 0.846722 0.512545 -0.118061
C9    C     C_3   0.751839 0.414671 0.431296 0.055722
C10   C     C_3   0.248126 0.414614 0.568702 0.057860
C11   C     C_3   0.253371 0.920731 0.428997 0.055327
C12   C     C_3   0.746597 0.920678 0.570998 0.057252
C13   C     C_3   0.782428 0.538621 0.456236 -0.144042
C14   C     C_3   0.217557 0.538660 0.543777 -0.145130
C15   C     C_3   0.230901 0.041612 0.459397 -0.135472
C16   C     C_3   0.769033 0.041524 0.540635 -0.136040
C17   C     C_3   0.832050 0.469224 0.511362 -0.130918
C18   C     C_3   0.167942 0.469402 0.488627 -0.131277
C19   C     C_3   0.303471 0.052013 0.501678 -0.147121
C20   C     C_3   0.696474 0.052041 0.498325 -0.147940
C21   C     C_3   0.801114 0.344821 0.485743 -0.102667
C22   C     C_3   0.198860 0.344907 0.514235 -0.101820
C23   C     C_3   0.325381 0.930206 0.469703 -0.113881
C24   C     C_3   0.674599 0.930268 0.530263 -0.114214
C25   C     C_3   0.746701 0.352965 0.535843 -0.114022
C26   C     C_3   0.253287 0.352855 0.464147 -0.113948
C27   C     C_3   0.299589 0.855903 0.528578 -0.113233
C28   C     C_3   0.700455 0.855925 0.471388 -0.112892
C29   C     C_3   0.777776 0.476089 0.560898 0.052550
C30   C     C_3   0.222232 0.476070 0.439105 0.051878
C31   C     C_3   0.277836 0.976569 0.559803 0.053630
C32   C     C_3   0.722172 0.976553 0.440196 0.052952
C33   C     C_3   0.528463 0.259642 0.965519 -0.119874
C34   C     C_3   0.487867 0.283104 0.027446 -0.090394
C35   C     C_3   0.028461 0.759645 0.965520 -0.119872
C36   C     C_3   0.987864 0.783102 0.027447 -0.090418
C37   C     C_3   0.563628 0.148180 0.002938 0.072305
C38   C     C_3   0.432120 0.193249 0.996757 0.068531
C39   C     C_3   0.063628 0.648184 0.002938 0.072312
C40   C     C_3   0.932118 0.693245 0.996757 0.068510
C41   C     C_3   0.525132 0.171766 0.064689 0.050305
C42   C     C_3   0.470782 0.171647 0.935166 0.058328
C43   C     C_3   0.025131 0.671766 0.064690 0.050320
C44   C     C_3   0.970781 0.671647 0.935166 0.058360
C45   C     C_R   0.534904 0.179938 0.337900 0.546251
C46   C     C_R   0.465104 0.179869 0.662103 0.544048
C47   C     C_R   0.034824 0.680005 0.337848 0.547158
C48   C     C_R   0.965175 0.679936 0.662148 0.544950
C49   C     C_3   0.467845 0.082467 0.034896 -0.123567
C50   C     C_3   0.507350 0.059337 0.971659 -0.082571
C51   C     C_3   0.967845 0.582464 0.034896 -0.123572
C52   C     C_3   0.007351 0.559338 0.971658 -0.082556
C53   C     C_1   0.758944 0.413015 0.900583 -0.012939
C54   C     C_1   0.237092 0.425437 0.095625 0.005152
C55   C     C_1   0.258945 0.913019 0.900585 -0.013057
C56   C     C_1   0.737092 0.925438 0.095624 0.005015
C57   C     C_1   0.737346 0.370567 0.027470 -0.051592
C58   C     C_1   0.250942 0.411751 0.964506 0.008058
C59   C     C_1   0.237348 0.870574 0.027472 -0.051645
C60   C     C_1   0.750942 0.911751 0.964507 0.008097
C61   C     C_1   0.747310 0.391260 0.958359 -0.055304
C62   C     C_1   0.245061 0.416941 0.035648 -0.008085
C63   C     C_1   0.247312 0.891266 0.958361 -0.055349
C64   C     C_1   0.745062 0.916941 0.035648 -0.008138
C65   C     C_1   0.730537 0.349503 0.086710 -0.014016
C66   C     C_1   0.256050 0.398279 0.904138 0.025278
C67   C     C_1   0.230539 0.849508 0.086711 -0.013798
C68   C     C_1   0.756050 0.898278 0.904138 0.025579
C69   C     C_R   0.739897 0.365387 0.361384 0.552036
C70   C     C_R   0.260096 0.365316 0.638607 0.540838
C71   C     C_R   0.240734 0.868462 0.359898 0.548615
C72   C     C_R   0.759258 0.868393 0.640088 0.536551
C73   C     C_R   0.722039 0.952198 0.163792 0.543380
C74   C     C_R   0.277601 0.951004 0.835513 0.547375
C75   C     C_R   0.222039 0.452196 0.163792 0.542812
C76   C     C_R   0.777601 0.451002 0.835512 0.546813
C77   C     C_R   0.557213 0.181513 0.135260 0.540001
C78   C     C_R   0.440350 0.181829 0.864207 0.578180
C79   C     C_R   0.057213 0.681513 0.135260 0.540127
C80   C     C_R   0.940350 0.681829 0.864207 0.578308
C81   C     C_R   0.723483 0.314738 0.156048 0.536014
C82   C     C_R   0.263743 0.361580 0.835233 0.544783
C83   C     C_R   0.223484 0.814739 0.156048 0.535532
C84   C     C_R   0.763743 0.861578 0.835234 0.543162
C85   C     C_1   0.486193 0.171732 0.594879 -0.017846
C86   C     C_1   0.513808 0.171871 0.405119 -0.017298
C87   C     C_1   0.986348 0.672253 0.594939 -0.018024
C88   C     C_1   0.013620 0.672394 0.405043 -0.017543
C89   C     C_1   0.503984 0.168248 0.464687 -0.062730
C90   C     C_1   0.496013 0.168180 0.535308 -0.063042
C91   C     C_1   0.003843 0.669316 0.464642 -0.063617
C92   C     C_1   0.996107 0.669245 0.535332 -0.063861
C93   C     C_3   0.728137 0.546163 0.507599 -0.130582
C94   C     C_3   0.271861 0.546007 0.492428 -0.130626
C95   C     C_3   0.205587 0.967928 0.519215 -0.104628
C96   C     C_3   0.794409 0.967800 0.480814 -0.104335
Cr1   Cr    Cr6+3 0.765830 0.160660 0.268180 1.018583
Cr2   Cr    Cr6+3 0.234170 0.160660 0.731820 1.022522
Cr3   Cr    Cr6+3 0.265830 0.660660 0.268180 1.019025
Cr4   Cr    Cr6+3 0.734170 0.660660 0.731820 1.023083
Cr5   Cr    Cr6+3 0.612110 0.009150 0.248770 1.025762
Cr6   Cr    Cr6+3 0.387890 0.009150 0.751230 1.021446
Cr7   Cr    Cr6+3 0.112110 0.509150 0.248770 1.024995
Cr8   Cr    Cr6+3 0.887890 0.509150 0.751230 1.020675
Cr9   Cr    Cr6+3 0.615930 0.324050 0.248450 1.022533
Cr10  Cr    Cr6+3 0.384070 0.324050 0.751550 1.027210
Cr11  Cr    Cr6+3 0.115930 0.824050 0.248450 1.023262
Cr12  Cr    Cr6+3 0.884070 0.824050 0.751550 1.028088
H1    H     H_    0.641897 0.401572 0.466961 0.126796
H2    H     H_    0.358081 0.401145 0.533058 0.127023
H3    H     H_    0.193821 0.764793 0.478934 0.107742
H4    H     H_    0.806248 0.764655 0.521059 0.107976
H5    H     H_    0.697015 0.624927 0.521718 0.129982
H6    H     H_    0.302992 0.624678 0.478347 0.129717
H7    H     H_    0.156624 0.983270 0.540820 0.130121
H8    H     H_    0.843378 0.983064 0.459236 0.130367
H9    H     H_    0.796260 0.613473 0.421752 0.121378
H10   H     H_    0.203718 0.613574 0.578266 0.119302
H11   H     H_    0.200443 0.112435 0.428066 0.119614
H12   H     H_    0.799447 0.112305 0.571991 0.118598
H13   H     H_    0.335623 0.135952 0.510058 0.105986
H14   H     H_    0.664304 0.136053 0.489959 0.105666
H15   H     H_    0.887518 0.487900 0.525663 0.123674
H16   H     H_    0.112478 0.488232 0.474318 0.123511
H17   H     H_    0.831383 0.261383 0.476497 0.132041
H18   H     H_    0.168576 0.261586 0.523469 0.132087
H19   H     H_    0.374321 0.915035 0.448010 0.130743
H20   H     H_    0.625653 0.915174 0.551929 0.129898
H21   H     H_    0.730792 0.282645 0.571803 0.122921
H22   H     H_    0.269198 0.282476 0.428174 0.124012
H23   H     H_    0.328150 0.781034 0.558526 0.132522
H24   H     H_    0.671942 0.781092 0.441414 0.132962
H25   H     H_    0.554613 0.330421 0.937115 0.138398
H26   H     H_    0.478167 0.374285 0.050170 0.148727
H27   H     H_    0.054610 0.830427 0.937117 0.138356
H28   H     H_    0.978162 0.874282 0.050172 0.148681
H29   H     H_    0.442680 0.012159 0.064488 0.133687
H30   H     H_    0.516011 0.969067 0.947408 0.144376
H31   H     H_    0.942681 0.512153 0.064486 0.133841
H32   H     H_    0.016014 0.469069 0.947407 0.144464
O1    O     O_R   0.783230 0.287800 0.346510 -0.522965
O2    O     O_R   0.216770 0.287800 0.653490 -0.527330
O3    O     O_R   0.283230 0.787800 0.346510 -0.525347
O4    O     O_R   0.716770 0.787800 0.653490 -0.529380
O5    O     O_R   0.554500 0.081650 0.170370 -0.491241
O6    O     O_R   0.445500 0.081650 0.829630 -0.507421
O7    O     O_R   0.054500 0.581650 0.170370 -0.490875
O8    O     O_R   0.945500 0.581650 0.829630 -0.507060
O9    O     O_R   0.545430 0.285140 0.163100 -0.521596
O10   O     O_R   0.454570 0.285140 0.836900 -0.510054
O11   O     O_R   0.045430 0.785140 0.163100 -0.521970
O12   O     O_R   0.954570 0.785140 0.836900 -0.510450
O13   O     O_R   0.677850 0.374730 0.185500 -0.495120
O14   O     O_R   0.322150 0.374730 0.814500 -0.499026
O15   O     O_R   0.177850 0.874730 0.185500 -0.496622
O16   O     O_R   0.822150 0.874730 0.814500 -0.500144
O17   O     O_3   0.664630 0.164620 0.255130 -0.310414
O18   O     O_3   0.335370 0.164620 0.744870 -0.293209
O19   O     O_3   0.164630 0.664620 0.255130 -0.310783
O20   O     O_3   0.835370 0.664620 0.744870 -0.293611
O21   O     O_R   0.760130 0.037060 0.338610 -0.501395
O22   O     O_R   0.239870 0.037060 0.661390 -0.502759
O23   O     O_R   0.260130 0.537060 0.338610 -0.496055
O24   O     O_R   0.739870 0.537060 0.661390 -0.497468
O25   O     O_R   0.666620 0.921370 0.332440 -0.513535
O26   O     O_R   0.333380 0.921370 0.667560 -0.515652
O27   O     O_R   0.166620 0.421370 0.332440 -0.511650
O28   O     O_R   0.833380 0.421370 0.667560 -0.513755
O29   O     O_R   0.557170 0.082420 0.312350 -0.505684
O30   O     O_R   0.442830 0.082420 0.687650 -0.507050
O31   O     O_R   0.057170 0.582420 0.312350 -0.508796
O32   O     O_R   0.942830 0.582420 0.687650 -0.510188
O33   O     O_R   0.548310 0.285980 0.316250 -0.503228
O34   O     O_R   0.451690 0.285980 0.683750 -0.505292
O35   O     O_R   0.048310 0.785980 0.316250 -0.498869
O36   O     O_R   0.951690 0.785980 0.683750 -0.500920
O37   O     O_R   0.680520 0.375500 0.327470 -0.498172
O38   O     O_R   0.319480 0.375500 0.672530 -0.504555
O39   O     O_R   0.180520 0.875500 0.327470 -0.495509
O40   O     O_R   0.819480 0.875500 0.672530 -0.501568
O41   O     O_R   0.780350 0.286970 0.193350 -0.494934
O42   O     O_R   0.219650 0.286970 0.806650 -0.506333
O43   O     O_R   0.280350 0.786970 0.193350 -0.496320
O44   O     O_R   0.719650 0.786970 0.806650 -0.507318
O45   O     O_R   0.757460 0.036290 0.196640 -0.507775
O46   O     O_R   0.242540 0.036290 0.803360 -0.489225
O47   O     O_R   0.257460 0.536290 0.196640 -0.507671
O48   O     O_R   0.742540 0.536290 0.803360 -0.489133
O49   O     O_R   0.663740 0.920540 0.179290 -0.498314
O50   O     O_R   0.336260 0.920540 0.820710 -0.510676
O51   O     O_R   0.163740 0.420540 0.179290 -0.498745
O52   O     O_R   0.836260 0.420540 0.820710 -0.511094
N1    N     N_3   0.635907 0.117185 0.006107 -0.625263
H33   H     H_    0.660983 0.148672 0.053129 0.205761
H34   H     H_    0.655821 0.164418 0.966404 0.238597
N2    N     N_3   0.358809 0.215792 0.991729 -0.632732
H35   H     H_    0.333959 0.140406 0.966335 0.224897
H36   H     H_    0.345879 0.215483 0.042162 0.239648
N3    N     N_3   0.135907 0.617192 0.006108 -0.625185
H37   H     H_    0.160982 0.648678 0.053130 0.205838
H38   H     H_    0.155821 0.664428 0.966405 0.238660
N4    N     N_3   0.858807 0.715784 0.991728 -0.632621
H39   H     H_    0.833959 0.640400 0.966331 0.224973
H40   H     H_    0.845876 0.715469 0.042160 0.239700

loop_
_geom_bond_atom_site_label_1
_geom_bond_atom_site_label_2
_ccdc_geom_bond_type
C58   C62   S    
Cr9   O13   S    
C15   C19   S    
C67   C83   S    
Cr10  O10   S    
C49   H29   S    
N3    H38   S    
C17   C29   S    
C14   C18   S    
C7    C27   S    
C35   C39   S    
C35   C36   S    
C8    C96   S    
C81   O41   A    
C44   C80   S    
C19   C31   S    
C69   O37   A    
Cr3   O47   S    
C94   H6    S    
C3    O27   A    
C38   C49   S    
C10   C22   S    
Cr7   O27   S    
Cr5   O5    S    
N4    H40   S    
C33   C42   S    
C23   H19   S    
C16   C20   S    
Cr4   O48   S    
C9    C69   S    
C38   C42   S    
Cr3   O19   S    
C16   H12   S    
C15   C95   S    
C73   O49   A    
C11   C71   S    
C13   H9    S    
C22   H18   S    
C83   O15   A    
Cr1   O45   S    
C69   O1    A    
Cr8   O52   S    
C81   O13   A    
Cr12  O40   S    
C80   O12   A    
C46   O34   A    
C71   O39   A    
C57   C61   S    
C49   C50   S    
C9    C13   S    
C21   C25   S    
C59   C67   T    
Cr12  O12   S    
C55   C74   S    
C11   C15   S    
C17   H15   S    
Cr9   O17   S    
Cr2   O18   S    
C95   H7    S    
Cr10  O14   S    
C55   C63   T    
C4    O24   A    
Cr5   O29   S    
C18   C30   S    
C23   C27   S    
C2    O26   A    
C40   C44   S    
C20   H14   S    
C4    C29   S    
C76   O48   A    
C3    O23   A    
Cr8   O32   S    
C46   C85   S    
Cr11  O11   S    
C44   C52   S    
C39   C52   S    
C12   C72   S    
Cr5   O17   S    
N3    H37   S    
Cr6   O26   S    
Cr9   O33   S    
C87   C92   T    
Cr2   O2    S    
Cr7   O31   S    
C6    H2    S    
Cr6   O18   S    
C34   C41   S    
C53   C61   T    
Cr8   O20   S    
C36   H28   S    
C28   C32   S    
C41   C49   S    
C73   O45   A    
Cr2   O22   S    
C58   C66   T    
C7    C11   S    
C25   C29   S    
C70   O2    A    
C16   C96   S    
N4    H39   S    
C27   C31   S    
C51   C52   S    
C68   C84   S    
C12   C16   S    
C84   O44   A    
N2    H36   S    
C10   C14   S    
C35   H27   S    
C91   C92   S    
C29   C93   S    
C19   C23   S    
C70   O38   A    
C39   C43   S    
C54   C62   T    
N1    H34   S    
Cr10  O18   S    
C1    C32   S    
C33   C37   S    
C27   H23   S    
C46   O30   A    
C82   O14   A    
C13   C93   S    
C2    C31   S    
C28   H24   S    
C37   N1    S    
Cr2   O42   S    
C3    C30   S    
C75   O51   A    
C5    C9    S    
C76   O52   A    
C45   O33   A    
Cr8   O28   S    
Cr4   O20   S    
C47   O31   A    
Cr12  O16   S    
C88   C91   T    
C36   C40   S    
C8    C12   S    
Cr11  O19   S    
C74   O50   A    
C56   C64   T    
C33   C34   S    
Cr10  O34   S    
C48   C87   S    
C83   O43   A    
Cr4   O24   S    
C78   O10   A    
C93   H5    S    
Cr5   O25   S    
C35   C44   S    
Cr1   O1    S    
C43   C79   S    
C42   C50   S    
C5    C25   S    
C10   C70   S    
C14   C94   S    
Cr9   O37   S    
C32   C96   S    
C40   N4    S    
C14   H10   S    
Cr1   O21   S    
Cr4   O4    S    
C8    C28   S    
Cr3   O23   S    
C59   C63   S    
C53   C76   S    
Cr7   O51   S    
C72   O40   A    
C77   O9    A    
C9    C21   S    
C77   O5    A    
C7    C95   S    
C48   O32   A    
C42   C78   S    
C79   O11   A    
C20   C32   S    
Cr3   O3    S    
C72   O4    A    
C39   N3    S    
C19   H13   S    
C56   C73   S    
Cr11  O39   S    
C1    O25   A    
C34   C38   S    
Cr3   O43   S    
C33   H25   S    
C75   O47   A    
C24   C28   S    
C57   C65   T    
N2    H35   S    
C86   C89   T    
C26   H22   S    
C6    C10   S    
C5    C93   S    
C85   C90   T    
C50   H30   S    
Cr1   O41   S    
Cr12  O20   S    
Cr7   O7    S    
C7    H3    S    
C40   C51   S    
Cr9   O9    S    
C82   O42   A    
Cr5   O49   S    
C13   C17   S    
C60   C64   S    
C47   C88   S    
C20   C24   S    
C18   C22   S    
C45   C86   S    
Cr8   O8    S    
Cr2   O46   S    
Cr6   O6    S    
C41   C77   S    
C37   C50   S    
C84   O16   A    
Cr7   O19   S    
C6    C26   S    
C71   O3    A    
Cr11  O35   S    
Cr6   O30   S    
C43   C51   S    
C31   C95   S    
Cr12  O36   S    
C11   C23   S    
Cr6   O50   S    
C8    H4    S    
C15   H11   S    
C79   O7    A    
C38   N2    S    
C37   C41   S    
C12   C24   S    
Cr4   O44   S    
C17   C21   S    
C78   O6    A    
C47   O35   A    
C1    O21   A    
C54   C75   S    
C52   H32   S    
C4    O28   A    
C80   O8    A    
C60   C68   T    
C30   C94   S    
N1    H33   S    
C22   C26   S    
C6    C94   S    
C18   H16   S    
C24   H20   S    
C34   H26   S    
C65   C81   S    
C96   H8    S    
C36   C43   S    
C25   H21   S    
C5    H1    S    
C74   O46   A    
C89   C90   S    
C21   H17   S    
Cr10  O38   S    
Cr11  O15   S    
C45   O29   A    
C66   C82   S    
Cr1   O17   S    
C2    O22   A    
C48   O36   A    
C26   C30   S    
C51   H31   S    
