data_mof_unit_21185.cif
_audit_creation_date              2012-12-11T15:55:02-0500
_audit_creation_method            fapswitch 2.2
_symmetry_space_group_name_H-M    P1
_symmetry_Int_Tables_number       1
_space_group_crystal_system       triclinic
_cell_length_a                    17.564962
_cell_length_b                    24.358625
_cell_length_c                    15.117705
_cell_angle_alpha                 90.000511
_cell_angle_beta                  126.176936
_cell_angle_gamma                 89.999516
_cell_volume                      5221.14702318

loop_
_atom_site_label
_atom_site_type_symbol
_atom_type_description
_atom_site_fract_x
_atom_site_fract_y
_atom_site_fract_z
_atom_type_partial_charge
C1    C     C_R   0.904619 0.871092 0.090197 -0.131553
C2    C     C_R   0.904620 0.128913 0.090195 -0.131563
C3    C     C_R   0.404619 0.371094 0.090198 -0.131551
C4    C     C_R   0.404620 0.628914 0.090194 -0.131568
C5    C     C_R   0.057710 0.848706 0.907412 -0.147234
C6    C     C_R   0.057721 0.151291 0.907414 -0.147236
C7    C     C_R   0.557711 0.348706 0.907411 -0.147237
C8    C     C_R   0.557721 0.651291 0.907414 -0.147238
C9    C     C_R   0.148448 0.152414 0.090360 -0.152874
C10   C     C_R   0.148433 0.847581 0.090356 -0.152895
C11   C     C_R   0.648449 0.652414 0.090360 -0.152874
C12   C     C_R   0.648433 0.347581 0.090356 -0.152895
C13   C     C_R   0.324171 0.999991 0.272544 -0.010119
C14   C     C_R   0.824172 0.499991 0.272545 -0.010119
C15   C     C_R   0.937237 0.000011 0.635734 -0.007168
C16   C     C_R   0.437210 0.500017 0.635718 -0.007179
C17   C     C_R   0.117961 0.816820 0.998178 -0.007489
C18   C     C_R   0.117981 0.183175 0.998184 -0.007491
C19   C     C_R   0.617962 0.316820 0.998178 -0.007487
C20   C     C_R   0.617982 0.683174 0.998183 -0.007490
C21   C     C_3   0.912235 0.051680 0.381752 -0.401025
C22   C     C_3   0.911755 0.948529 0.381352 -0.400799
C23   C     C_3   0.412350 0.551732 0.381847 -0.401077
C24   C     C_3   0.411632 0.448580 0.381247 -0.400741
C25   C     C_3   0.896761 0.051655 0.471304 -0.417081
C26   C     C_3   0.896335 0.948533 0.470962 -0.417063
C27   C     C_3   0.396856 0.551705 0.471381 -0.417079
C28   C     C_3   0.396206 0.448581 0.470856 -0.417040
C29   C     C_3   0.066097 0.999859 0.507250 -0.420817
C30   C     C_3   0.566092 0.499788 0.507258 -0.420837
C31   C     C_3   0.969864 0.000021 0.393868 0.413345
C32   C     C_3   0.469863 0.500031 0.393870 0.413334
C33   C     C_3   0.943814 0.000019 0.544510 0.414569
C34   C     C_3   0.443795 0.500029 0.544499 0.414574
C35   C     C_R   0.811014 0.126151 0.906295 -0.143408
C36   C     C_R   0.811014 0.873849 0.906296 -0.143410
C37   C     C_R   0.311014 0.626152 0.906295 -0.143408
C38   C     C_R   0.311014 0.373850 0.906296 -0.143411
C39   C     C_3   0.050856 0.999876 0.596274 -0.386293
C40   C     C_3   0.550842 0.499810 0.596274 -0.386264
C41   C     C_3   0.655121 0.184727 0.889837 -0.407794
C42   C     C_3   0.655125 0.815271 0.889841 -0.407789
C43   C     C_3   0.155121 0.684728 0.889836 -0.407794
C44   C     C_3   0.155123 0.315274 0.889846 -0.407790
C45   C     C_3   0.099762 0.733140 0.891029 -0.409153
C46   C     C_3   0.099774 0.266853 0.891030 -0.409136
C47   C     C_3   0.599762 0.233140 0.891031 -0.409153
C48   C     C_3   0.599777 0.766849 0.891023 -0.409137
C49   C     C_3   0.306172 0.739868 0.004363 -0.402423
C50   C     C_3   0.306179 0.260136 0.004361 -0.402405
C51   C     C_3   0.806171 0.239867 0.004362 -0.402423
C52   C     C_3   0.806182 0.760134 0.004365 -0.402407
C53   C     C_3   0.751750 0.180023 0.094947 -0.401002
C54   C     C_3   0.751756 0.819975 0.094950 -0.400975
C55   C     C_3   0.251749 0.680023 0.094945 -0.401010
C56   C     C_3   0.251760 0.319975 0.094956 -0.400969
C57   C     C_3   0.757560 0.185111 0.996478 0.408653
C58   C     C_3   0.757565 0.814889 0.996481 0.408626
C59   C     C_3   0.257560 0.685111 0.996477 0.408656
C60   C     C_3   0.257565 0.314891 0.996483 0.408625
C61   C     C_3   0.164894 0.767510 0.997328 0.412041
C62   C     C_3   0.164909 0.232487 0.997334 0.412037
C63   C     C_3   0.664895 0.267510 0.997328 0.412041
C64   C     C_3   0.664910 0.732486 0.997333 0.412039
C65   C     C_3   0.251067 0.788186 0.003334 -0.396106
C66   C     C_3   0.251090 0.211815 0.003350 -0.396105
C67   C     C_3   0.751067 0.288185 0.003333 -0.396107
C68   C     C_3   0.751095 0.711813 0.003358 -0.396105
C69   C     C_3   0.198647 0.729627 0.096810 -0.411113
C70   C     C_3   0.198651 0.270372 0.096812 -0.411096
C71   C     C_3   0.698649 0.229628 0.096811 -0.411117
C72   C     C_3   0.698645 0.770374 0.096805 -0.411092
C73   C     C_3   0.476650 0.948455 0.358740 -0.404100
C74   C     C_3   0.476712 0.051431 0.358552 -0.404053
C75   C     C_3   0.976650 0.448455 0.358740 -0.404102
C76   C     C_3   0.976712 0.551431 0.358553 -0.404055
C77   C     C_R   0.744825 0.954300 0.695207 -0.143550
C78   C     C_R   0.744810 0.045695 0.695205 -0.143527
C79   C     C_R   0.244824 0.454300 0.695207 -0.143545
C80   C     C_R   0.244810 0.545695 0.695205 -0.143530
C81   C     C_3   0.580675 0.948342 0.459211 -0.406335
C82   C     C_3   0.580777 0.051515 0.458958 -0.406245
C83   C     C_3   0.080675 0.448343 0.459211 -0.406332
C84   C     C_3   0.080776 0.551515 0.458959 -0.406249
C85   C     C_3   0.434098 0.000073 0.469611 -0.393786
C86   C     C_3   0.934098 0.500072 0.469612 -0.393786
C87   C     C_3   0.425948 0.999987 0.361661 0.405344
C88   C     C_3   0.925948 0.499987 0.361662 0.405346
C89   C     C_3   0.601776 0.999991 0.530795 0.407638
C90   C     C_3   0.101776 0.499991 0.530795 0.407637
C91   C     C_3   0.536877 0.000111 0.568379 -0.399439
C92   C     C_3   0.036878 0.500110 0.568380 -0.399440
C93   C     C_R   0.008707 0.046031 0.276883 -0.145607
C94   C     C_R   0.008699 0.953983 0.276894 -0.145610
C95   C     C_R   0.508714 0.546034 0.276885 -0.145603
C96   C     C_R   0.508701 0.453987 0.276901 -0.145612
C97   C     C_R   0.815466 0.858409 0.997510 -0.009830
C98   C     C_R   0.815466 0.141593 0.997508 -0.009831
C99   C     C_R   0.315465 0.358411 0.997511 -0.009831
C100  C     C_R   0.315466 0.641594 0.997508 -0.009832
C101  C     C_R   0.698433 0.999995 0.631842 -0.007291
C102  C     C_R   0.198433 0.499995 0.631843 -0.007288
C103  C     C_R   0.988883 0.000013 0.312795 -0.000924
C104  C     C_R   0.488890 0.500019 0.312803 -0.000925
C105  C     C_R   0.267836 0.953945 0.246623 -0.140773
C106  C     C_R   0.267846 0.046045 0.246626 -0.140795
C107  C     C_R   0.767836 0.453945 0.246624 -0.140773
C108  C     C_R   0.767846 0.546045 0.246627 -0.140794
C109  C     C_R   0.952451 0.045921 0.697522 -0.143821
C110  C     C_R   0.952461 0.954091 0.697511 -0.143860
C111  C     C_R   0.452434 0.545923 0.697517 -0.143810
C112  C     C_R   0.452446 0.454094 0.697498 -0.143858
H1    H     H_    0.936326 0.857222 0.172484 0.080034
H2    H     H_    0.936327 0.142791 0.172477 0.080039
H3    H     H_    0.436326 0.357225 0.172487 0.080034
H4    H     H_    0.436327 0.642793 0.172476 0.080041
H5    H     H_    0.843009 0.052211 0.299526 0.153805
H6    H     H_    0.842504 0.948260 0.299147 0.153804
H7    H     H_    0.343133 0.552327 0.299615 0.153808
H8    H     H_    0.342381 0.448373 0.299040 0.153800
H9    H     H_    0.819945 0.052136 0.433806 0.150734
H10   H     H_    0.819524 0.948253 0.433499 0.150707
H11   H     H_    0.320036 0.552241 0.433867 0.150731
H12   H     H_    0.319390 0.448356 0.433385 0.150696
H13   H     H_    0.927939 0.090038 0.519418 0.145618
H14   H     H_    0.927213 0.910054 0.518821 0.145604
H15   H     H_    0.428114 0.590065 0.519562 0.145617
H16   H     H_    0.426996 0.410075 0.518649 0.145593
H17   H     H_    0.107957 0.036692 0.516795 0.153357
H18   H     H_    0.107598 0.962890 0.516537 0.153321
H19   H     H_    0.608041 0.536588 0.516875 0.153371
H20   H     H_    0.607505 0.462787 0.516482 0.153312
H21   H     H_    0.085778 0.036681 0.649238 0.154339
H22   H     H_    0.085494 0.962975 0.649030 0.154277
H23   H     H_    0.585839 0.536590 0.649301 0.154348
H24   H     H_    0.585404 0.462883 0.648972 0.154259
H25   H     H_    0.654339 0.189073 0.816176 0.144233
H26   H     H_    0.654342 0.810934 0.816177 0.144229
H27   H     H_    0.154340 0.689075 0.816175 0.144233
H28   H     H_    0.154337 0.310937 0.816179 0.144231
H29   H     H_    0.619645 0.145333 0.882320 0.152442
H30   H     H_    0.619642 0.854660 0.882332 0.152444
H31   H     H_    0.119645 0.645334 0.882317 0.152442
H32   H     H_    0.119642 0.354664 0.882341 0.152443
H33   H     H_    0.537681 0.217767 0.886071 0.151588
H34   H     H_    0.537677 0.782212 0.886037 0.151575
H35   H     H_    0.037681 0.717767 0.886068 0.151587
H36   H     H_    0.037679 0.282218 0.886053 0.151577
H37   H     H_    0.311075 0.743816 0.934445 0.153194
H38   H     H_    0.311068 0.256189 0.934432 0.153197
H39   H     H_    0.811074 0.243815 0.934443 0.153194
H40   H     H_    0.811073 0.756185 0.934437 0.153197
H41   H     H_    0.755365 0.133495 0.821026 0.088504
H42   H     H_    0.755367 0.866504 0.821026 0.088505
H43   H     H_    0.255365 0.633495 0.821025 0.088503
H44   H     H_    0.255366 0.366504 0.821028 0.088505
H45   H     H_    0.227754 0.814917 0.931669 0.154824
H46   H     H_    0.227786 0.185076 0.931694 0.154818
H47   H     H_    0.727753 0.314916 0.931667 0.154823
H48   H     H_    0.727797 0.685071 0.931709 0.154817
H49   H     H_    0.822743 0.178742 0.174472 0.142650
H50   H     H_    0.822750 0.821250 0.174474 0.142636
H51   H     H_    0.322740 0.678741 0.174471 0.142654
H52   H     H_    0.322754 0.321249 0.174478 0.142631
H53   H     H_    0.714903 0.141349 0.088167 0.152492
H54   H     H_    0.714917 0.858652 0.088180 0.152497
H55   H     H_    0.214901 0.641348 0.088163 0.152488
H56   H     H_    0.214921 0.358651 0.088189 0.152501
H57   H     H_    0.637301 0.215420 0.094536 0.151157
H58   H     H_    0.637284 0.784585 0.094506 0.151159
H59   H     H_    0.137298 0.715419 0.094533 0.151156
H60   H     H_    0.137294 0.284582 0.094522 0.151159
H61   H     H_    0.247337 0.751845 0.175313 0.145007
H62   H     H_    0.247335 0.248156 0.175322 0.144986
H63   H     H_    0.747340 0.251846 0.175314 0.145006
H64   H     H_    0.747325 0.748159 0.175319 0.144984
H65   H     H_    0.379409 0.741276 0.081154 0.151748
H66   H     H_    0.379422 0.258731 0.081142 0.151744
H67   H     H_    0.879409 0.241275 0.081152 0.151749
H68   H     H_    0.879426 0.758731 0.081147 0.151742
H69   H     H_    0.298296 0.813238 0.078656 0.152372
H70   H     H_    0.298327 0.186770 0.078684 0.152365
H71   H     H_    0.798297 0.313239 0.078654 0.152372
H72   H     H_    0.798332 0.686772 0.078698 0.152365
H73   H     H_    0.443734 0.909985 0.360559 0.142819
H74   H     H_    0.443873 0.089952 0.360310 0.142846
H75   H     H_    0.943735 0.409986 0.360559 0.142819
H76   H     H_    0.943872 0.589952 0.360312 0.142847
H77   H     H_    0.472011 0.948154 0.282085 0.151929
H78   H     H_    0.472003 0.051630 0.281851 0.151888
H79   H     H_    0.972011 0.448155 0.282085 0.151929
H80   H     H_    0.972002 0.551631 0.281853 0.151888
H81   H     H_    0.627524 0.947580 0.432286 0.149013
H82   H     H_    0.627565 0.052065 0.431942 0.149049
H83   H     H_    0.127524 0.447581 0.432286 0.149012
H84   H     H_    0.127565 0.552066 0.431944 0.149050
H85   H     H_    0.732199 0.911908 0.669409 0.080504
H86   H     H_    0.732149 0.088086 0.669401 0.080465
H87   H     H_    0.232199 0.411908 0.669409 0.080504
H88   H     H_    0.232149 0.588086 0.669401 0.080465
H89   H     H_    0.593522 0.910089 0.506173 0.143502
H90   H     H_    0.593796 0.089857 0.505750 0.143428
H91   H     H_    0.093522 0.410089 0.506172 0.143502
H92   H     H_    0.093795 0.589857 0.505753 0.143429
H93   H     H_    0.398637 0.963266 0.473696 0.152802
H94   H     H_    0.398614 0.036915 0.473535 0.152744
H95   H     H_    0.898638 0.463265 0.473696 0.152802
H96   H     H_    0.898614 0.536914 0.473536 0.152744
H97   H     H_    0.550790 0.963320 0.619750 0.153223
H98   H     H_    0.550798 0.037025 0.619473 0.153200
H99   H     H_    0.050790 0.463319 0.619750 0.153223
H100  H     H_    0.050798 0.537024 0.619474 0.153200
H101  H     H_    0.018272 0.087522 0.306257 0.080245
H102  H     H_    0.018238 0.912497 0.306288 0.080218
H103  H     H_    0.518285 0.587526 0.306253 0.080252
H104  H     H_    0.518232 0.412501 0.306298 0.080212
H105  H     H_    0.942818 0.088597 0.673880 0.083063
H106  H     H_    0.942879 0.911418 0.673853 0.083048
H107  H     H_    0.442784 0.588600 0.673878 0.083067
H108  H     H_    0.442878 0.411422 0.673839 0.083042
H109  H     H_    0.191103 0.165872 0.174675 0.083061
H110  H     H_    0.191078 0.834120 0.174668 0.083063
H111  H     H_    0.691105 0.665872 0.174675 0.083060
H112  H     H_    0.691078 0.334121 0.174668 0.083064
H113  H     H_    0.949930 0.090139 0.390056 0.142578
H114  H     H_    0.949051 0.909959 0.389265 0.142538
H115  H     H_    0.450144 0.590163 0.390249 0.142589
H116  H     H_    0.448836 0.409983 0.389076 0.142529
N1    N     N_R   0.950530 0.896220 0.057200 -0.033960
N2    N     N_R   0.950530 0.103780 0.057200 -0.033960
N3    N     N_R   0.450530 0.396220 0.057200 -0.033960
N4    N     N_R   0.450530 0.603780 0.057200 -0.033960
N5    N     N_R   0.893330 0.103780 0.942800 -0.034958
N6    N     N_R   0.893330 0.896220 0.942800 -0.034958
N7    N     N_R   0.393330 0.603780 0.942800 -0.034958
N8    N     N_R   0.393330 0.396220 0.942800 -0.034958
N9    N     N_R   0.818150 0.971400 0.792440 -0.030682
N10   N     N_R   0.818150 0.028600 0.792440 -0.030680
N11   N     N_R   0.318150 0.471400 0.792440 -0.030681
N12   N     N_R   0.318150 0.528600 0.792440 -0.030679
N13   N     N_R   0.025710 0.028600 0.207560 -0.032891
N14   N     N_R   0.025710 0.971400 0.207560 -0.032886
N15   N     N_R   0.525710 0.528600 0.207560 -0.032892
N16   N     N_R   0.525710 0.471400 0.207560 -0.032884
N17   N     N_R   0.181850 0.971400 0.207560 -0.038669
N18   N     N_R   0.181850 0.028600 0.207560 -0.038666
N19   N     N_R   0.681850 0.471400 0.207560 -0.038668
N20   N     N_R   0.681850 0.528600 0.207560 -0.038666
N21   N     N_R   0.974290 0.028600 0.792440 -0.033419
N22   N     N_R   0.974290 0.971400 0.792440 -0.033413
N23   N     N_R   0.474290 0.528600 0.792440 -0.033424
N24   N     N_R   0.474290 0.471400 0.792440 -0.033414
N25   N     N_R   0.049470 0.896220 0.942800 -0.034039
N26   N     N_R   0.049470 0.103780 0.942800 -0.034041
N27   N     N_R   0.549470 0.396220 0.942800 -0.034039
N28   N     N_R   0.549470 0.603780 0.942800 -0.034041
N29   N     N_R   0.106670 0.103780 0.057200 -0.032660
N30   N     N_R   0.106670 0.896220 0.057200 -0.032664
N31   N     N_R   0.606670 0.603780 0.057200 -0.032660
N32   N     N_R   0.606670 0.396220 0.057200 -0.032664
Ni1   Ni    Ni4+2 0.065600 0.934400 0.131190 0.203384
Ni2   Ni    Ni4+2 0.065600 0.065600 0.131190 0.203379
Ni3   Ni    Ni4+2 0.565600 0.434400 0.131190 0.203385
Ni4   Ni    Ni4+2 0.565600 0.565600 0.131190 0.203378
Ni5   Ni    Ni4+2 0.934400 0.065600 0.868810 0.204609
Ni6   Ni    Ni4+2 0.934400 0.934400 0.868810 0.204611
Ni7   Ni    Ni4+2 0.434400 0.565600 0.868810 0.204605
Ni8   Ni    Ni4+2 0.434400 0.434400 0.868810 0.204612
H117  H     H_    0.073095 0.758157 0.816664 0.143971
H118  H     H_    0.073126 0.241835 0.816667 0.143973
H119  H     H_    0.573095 0.258156 0.816664 0.143970
H120  H     H_    0.573137 0.741829 0.816664 0.143975
H121  H     H_    0.288902 0.911435 0.261891 0.088654
H122  H     H_    0.288946 0.088551 0.261936 0.088640
H123  H     H_    0.788903 0.411435 0.261892 0.088654
H124  H     H_    0.788946 0.588551 0.261937 0.088640
H125  H     H_    0.016368 0.837185 0.822037 0.083922
H126  H     H_    0.016379 0.162814 0.822041 0.083920
H127  H     H_    0.516369 0.337185 0.822037 0.083924
H128  H     H_    0.516378 0.662814 0.822040 0.083920

loop_
_geom_bond_atom_site_label_1
_geom_bond_atom_site_label_2
_ccdc_geom_bond_type
C30   C32   S    
C47   H33   S    
N26   Ni5   S    
C9    N29   A    
C50   C60   S    
C42   H26   S    
C44   H32   S    
C95   H103  S    
C56   H52   S    
C15   C109  A    
C77   C101  A    
N11   N12   A    
C15   C110  A    
C55   H55   S    
C91   H97   S    
C60   C99   S    
N17   Ni1   S    
C76   C84   S    
N2    Ni2   S    
C85   C91   S    
C36   H42   S    
N23   N24   A    
C30   H19   S    
C65   H69   S    
C110  N22   A    
C2    C98   A    
C45   H117  S    
C40   H24   S    
C109  N21   A    
N21   N22   A    
C8    C20   A    
C82   C89   S    
C84   C90   S    
C46   C62   S    
C34   C40   S    
C4    N4    A    
C107  N19   A    
C50   H66   S    
C54   H54   S    
C55   C59   S    
C91   H98   S    
C38   N8    A    
C86   C88   S    
N6    Ni6   S    
C5    C17   A    
N27   Ni8   S    
C10   C17   A    
N21   Ni5   S    
N15   N16   A    
C80   H88   S    
N28   N31   A    
C96   N16   A    
C6    N26   A    
N2    N5    A    
N13   N14   A    
C69   H59   S    
C5    N25   A    
N1    N6    A    
C9    H109  S    
C70   H60   S    
C79   N11   A    
C90   C102  S    
C62   C70   S    
C21   H5    S    
C16   C34   S    
C74   H78   S    
C77   H85   S    
C43   H31   S    
N25   N30   A    
N24   Ni8   S    
C26   H10   S    
C12   H112  S    
C19   C63   S    
C48   H34   S    
C42   H30   S    
C52   C58   S    
C71   H57   S    
C79   C102  A    
C43   H27   S    
N3    N8    A    
C51   C57   S    
C38   H44   S    
C74   C87   S    
C89   C91   S    
C35   C98   A    
C107  H123  S    
C10   N30   A    
C76   C88   S    
C41   H25   S    
N18   Ni2   S    
C43   C59   S    
C49   C59   S    
C81   C89   S    
C84   H92   S    
N5    Ni5   S    
C14   C108  A    
C66   H70   S    
C51   H39   S    
C78   N10   A    
N17   N18   A    
C78   C101  A    
C77   N9    A    
C59   C100  S    
N12   Ni7   S    
C42   C58   S    
C53   C71   S    
C58   C97   S    
C1    H1    S    
C37   H43   S    
C74   C82   S    
N32   Ni3   S    
C51   H67   S    
C73   C81   S    
C73   H73   S    
C8    H128  S    
C44   C46   S    
C85   H94   S    
C112  N24   A    
C49   H65   S    
C23   C27   S    
C85   C87   S    
C27   C34   S    
C112  H108  S    
C6    C18   A    
C40   H23   S    
C29   H17   S    
C11   C20   A    
C94   H102  S    
C13   C105  A    
C79   H87   S    
C22   C31   S    
C62   C66   S    
C24   H8    S    
C93   H101  S    
N29   Ni2   S    
C75   C83   S    
C24   C28   S    
C5    H125  S    
N22   Ni6   S    
C83   H91   S    
C21   C25   S    
C2    N2    A    
C3    N3    A    
C41   C57   S    
C82   H90   S    
C83   H83   S    
C27   H11   S    
C18   C62   S    
C51   C67   S    
N26   N29   A    
C108  H124  S    
C52   C68   S    
C92   H99   S    
C81   H81   S    
C8    N28   A    
C69   H61   S    
C54   H50   S    
C56   C60   S    
C80   C102  A    
N9    Ni6   S    
C72   H58   S    
C20   C64   S    
C42   C48   S    
C75   H79   S    
C24   C32   S    
C63   C67   S    
C41   H29   S    
C76   H80   S    
C28   C34   S    
C3    C99   A    
C21   C31   S    
C50   H38   S    
C26   C33   S    
C90   C92   S    
C29   H18   S    
C1    C97   A    
C52   H40   S    
C39   H21   S    
C78   H86   S    
C13   C87   S    
C50   C66   S    
C32   C104  S    
C41   C47   S    
C30   C40   S    
N16   Ni3   S    
C33   C39   S    
C106  N18   A    
C70   H62   S    
C105  N17   A    
C36   C97   A    
C67   H71   S    
C13   C106  A    
C35   N5    A    
C53   H53   S    
C14   C107  A    
N28   Ni7   S    
C63   C71   S    
C94   C103  A    
N31   Ni4   S    
C7    C19   A    
N13   Ni2   S    
C96   C104  A    
C28   H16   S    
C92   H100  S    
N30   Ni1   S    
N15   Ni4   S    
C17   C61   S    
C86   H96   S    
C111  H107  S    
C73   C87   S    
C64   C68   S    
N23   Ni7   S    
C66   H46   S    
C95   C104  A    
C16   C112  A    
C67   H47   S    
C54   C58   S    
C11   H111  S    
C61   C69   S    
C29   C39   S    
C22   H6    S    
C83   C90   S    
N3    Ni3   S    
N27   N32   A    
C68   H72   S    
C53   C57   S    
C49   C65   S    
N4    Ni4   S    
C89   C101  S    
C45   H35   S    
C4    H4    S    
N10   Ni5   S    
C75   H75   S    
C35   H41   S    
C37   N7    A    
C38   C99   A    
C7    H127  S    
C76   H76   S    
C86   H95   S    
C23   H115  S    
N19   N20   A    
C28   H12   S    
C22   H114  S    
C1    N1    A    
N1    Ni1   S    
N25   Ni6   S    
C65   H45   S    
C21   H113  S    
C108  N20   A    
C56   C70   S    
N19   Ni3   S    
C96   H104  S    
C49   H37   S    
C84   H84   S    
C105  H121  S    
C23   C32   S    
C55   C69   S    
C29   C31   S    
C4    C100  A    
C52   H68   S    
C94   N14   A    
C55   H51   S    
C43   C45   S    
C109  H105  S    
C3    H3    S    
C80   N12   A    
C47   C63   S    
C106  H122  S    
C2    H2    S    
N7    Ni7   S    
C53   H49   S    
C25   H9    S    
C44   C60   S    
C45   C61   S    
C30   H20   S    
C57   C98   S    
C12   C19   A    
C25   H13   S    
C46   H36   S    
N14   Ni1   S    
C71   H63   S    
N11   Ni8   S    
C44   H28   S    
C11   N31   A    
C24   H116  S    
C85   H93   S    
N4    N7    A    
C61   C65   S    
C7    N27   A    
C110  H106  S    
C72   H64   S    
N9    N10   A    
C27   H15   S    
C82   H82   S    
C64   C72   S    
C48   C64   S    
C10   H110  S    
C86   C92   S    
C14   C88   S    
C47   H119  S    
C9    C18   A    
C54   C72   S    
C48   H120  S    
C46   H118  S    
C25   C33   S    
C22   C26   S    
C95   N15   A    
C56   H56   S    
N8    Ni8   S    
C26   H14   S    
C23   H7    S    
C93   N13   A    
C75   C88   S    
C12   N32   A    
C74   H74   S    
C68   H48   S    
C111  N23   A    
C36   N6    A    
C15   C33   S    
C37   C100  A    
C73   H77   S    
C81   H89   S    
C16   C111  A    
C31   C103  S    
C93   C103  A    
N20   Ni4   S    
C39   H22   S    
C6    H126  S    
