data_mof_unit_68551.cif
_audit_creation_date              2012-12-10T16:48:45-0500
_audit_creation_method            fapswitch 2.2
_symmetry_space_group_name_H-M    P1
_symmetry_Int_Tables_number       1
_space_group_crystal_system       triclinic
_cell_length_a                    7.90483
_cell_length_b                    8.597353
_cell_length_c                    10.769685
_cell_angle_alpha                 89.884379
_cell_angle_beta                  99.583806
_cell_angle_gamma                 91.784542
_cell_volume                      721.345423383

loop_
_atom_site_label
_atom_site_type_symbol
_atom_type_description
_atom_site_fract_x
_atom_site_fract_y
_atom_site_fract_z
_atom_type_partial_charge
C1    C     C_R   0.540920 0.793391 0.493361 0.862150
C2    C     C_2   0.454195 0.046892 0.529314 0.214756
C3    C     C_3   0.667919 0.797709 0.022032 -0.834615
C4    C     C_3   0.319504 0.237207 0.956480 -0.837595
C5    C     C_3   0.164735 0.696804 0.041026 -0.310472
C6    C     C_3   0.849946 0.332649 0.934081 -0.311188
C7    C     C_3   0.541970 0.015727 0.263823 -0.356623
C8    C     C_3   0.487988 0.007825 0.740148 -0.378737
C9    C     C_3   0.935935 0.361581 0.262095 -0.566474
C10   C     C_3   0.118458 0.759656 0.669141 -0.612709
C11   C     C_R   0.459412 0.207020 0.505482 0.882479
C12   C     C_R   0.571659 0.484513 0.735452 0.781482
C13   C     C_R   0.429081 0.519857 0.265429 0.791117
C14   C     C_2   0.615462 0.472540 0.871726 0.298387
C15   C     C_2   0.384539 0.550550 0.131892 0.240840
C16   C     C_2   0.487025 0.476034 0.938981 0.113927
C17   C     C_2   0.509672 0.560706 0.060672 0.115561
C18   C     C_2   0.549583 0.954396 0.470128 0.218259
H1    H     H_    0.685062 0.690419 0.192636 0.252058
H2    H     H_    0.184164 0.778825 0.122416 0.149844
H3    H     H_    0.026445 0.694246 0.000650 0.253356
H4    H     H_    0.851939 0.285258 0.838260 0.168581
H5    H     H_    0.983659 0.337831 0.984257 0.239220
H6    H     H_    0.775800 0.252118 0.987681 0.132782
H7    H     H_    0.483706 0.899443 0.233830 0.144423
H8    H     H_    0.621772 0.055809 0.193841 0.196321
H9    H     H_    0.439292 0.101427 0.263274 0.143361
H10   H     H_    0.528786 0.131080 0.762062 0.173159
H11   H     H_    0.602386 0.936076 0.738617 0.141414
H12   H     H_    0.783021 0.870551 0.060929 0.233771
H13   H     H_    0.422467 0.963017 0.816769 0.193356
H14   H     H_    0.974632 0.236208 0.426972 0.244717
H15   H     H_    0.013428 0.288222 0.209783 0.190370
H16   H     H_    0.949257 0.484297 0.231707 0.272328
H17   H     H_    0.800006 0.320308 0.239096 0.227177
H18   H     H_    0.893155 0.645096 0.628836 0.287281
H19   H     H_    0.070082 0.818967 0.747289 0.172238
H20   H     H_    0.105320 0.839487 0.587184 0.276807
H21   H     H_    0.253406 0.733092 0.703817 0.285223
H22   H     H_    0.551852 0.867248 0.021238 0.203651
H23   H     H_    0.678607 0.767212 0.923942 0.254192
H24   H     H_    0.222186 0.445686 0.874657 0.296851
H25   H     H_    0.219440 0.162685 0.898460 0.246370
H26   H     H_    0.282923 0.253242 0.050553 0.246682
H27   H     H_    0.443244 0.176741 0.968694 0.219353
H28   H     H_    0.235857 0.740234 0.966347 0.146536
N1    N     N_2   0.940600 0.458860 0.467170 0.005320
N2    N     N_2   0.059400 0.541140 0.532830 0.041159
N3    N     N_2   0.659159 0.659994 0.098905 -0.260981
N4    N     N_2   0.334033 0.385518 0.894489 -0.279992
N5    N     N_2   0.997936 0.346705 0.395103 -0.193623
N6    N     N_2   0.017597 0.619962 0.634639 -0.248204
O1    O     O_R   0.391630 0.738350 0.508060 -0.605392
O2    O     O_3   0.785435 0.483980 0.928663 -0.587469
O3    O     O_3   0.648075 0.008431 0.382605 -0.598827
O4    O     O_3   0.371555 0.995449 0.625921 -0.623181
O5    O     O_R   0.608370 0.261650 0.491940 -0.592221
O6    O     O_R   0.674540 0.711990 0.487010 -0.638674
O7    O     O_R   0.325460 0.288010 0.512990 -0.587458
O8    O     O_R   0.411370 0.508250 0.688780 -0.620054
O9    O     O_R   0.588630 0.491750 0.311220 -0.648998
O10   O     O_R   0.694270 0.481880 0.667740 -0.629840
O11   O     O_R   0.305730 0.518120 0.332260 -0.565827
O12   O     O_3   0.212267 0.545083 0.079530 -0.617791
Zn1   Zn    Zn3+2 0.311100 0.517600 0.514050 0.993168
Zn2   Zn    Zn3+2 0.688900 0.482400 0.485950 0.956922

loop_
_geom_bond_atom_site_label_1
_geom_bond_atom_site_label_2
_ccdc_geom_bond_type
O8    Zn1   S    
C3    H12   S    
N1    N5    S    
C15   O12   S    
O11   Zn1   S    
H14   N5    S    
C4    H25   S    
N2    Zn1   S    
C2    C18   D    
O1    Zn1   S    
C5    H28   S    
H1    N3    S    
N1    Zn2   S    
N1    N2    D    
H18   N6    S    
C7    O3    S    
O5    Zn2   S    
C10   H20   S    
C10   N6    S    
C8    O4    S    
C6    H4    S    
C3    N3    S    
C6    H6    S    
C5    H2    S    
C2    O4    S    
C1    O6    A    
O7    Zn1   S    
C9    H15   S    
C13   O9    A    
C1    C18   S    
C16   C17   S    
C7    H8    S    
C18   O3    S    
H24   N4    S    
C10   H19   S    
C11   O7    A    
C6    H5    S    
C14   O2    S    
C12   C14   S    
C3    H22   S    
C6    O2    S    
C13   O11   A    
C13   C15   S    
C7    H7    S    
C9    H16   S    
C8    H10   S    
C14   C16   D    
C12   O10   A    
C2    C11   S    
C17   N3    S    
C4    H27   S    
C12   O8    A    
N2    N6    S    
C7    H9    S    
C9    H17   S    
C8    H11   S    
C15   C17   D    
O10   Zn2   S    
C3    H23   S    
C1    O1    A    
C4    H26   S    
C11   O5    A    
C8    H13   S    
O9    Zn2   S    
O6    Zn2   S    
C4    N4    S    
C5    O12   S    
C16   N4    S    
C10   H21   S    
C5    H3    S    
C9    N5    S    
