data_mof_unit_30043.cif
_audit_creation_date              2012-12-10T17:27:03-0500
_audit_creation_method            fapswitch 2.2
_symmetry_space_group_name_H-M    P1
_symmetry_Int_Tables_number       1
_space_group_crystal_system       triclinic
_cell_length_a                    18.247593
_cell_length_b                    18.221577
_cell_length_c                    12.038758
_cell_angle_alpha                 90.000104
_cell_angle_beta                  86.082523
_cell_angle_gamma                 89.933183
_cell_volume                      3993.53055322

loop_
_atom_site_label
_atom_site_type_symbol
_atom_type_description
_atom_site_fract_x
_atom_site_fract_y
_atom_site_fract_z
_atom_type_partial_charge
C1    C     C_R   0.400788 0.100953 0.521473 0.907654
C2    C     C_R   0.599212 0.899047 0.478527 0.907654
C3    C     C_R   0.599204 0.100991 0.478560 0.908680
C4    C     C_R   0.400796 0.899009 0.521440 0.908680
C5    C     C_R   0.900788 0.600953 0.521473 0.907654
C6    C     C_R   0.099212 0.399047 0.478527 0.907654
C7    C     C_R   0.099204 0.600991 0.478560 0.908680
C8    C     C_R   0.900796 0.399009 0.521440 0.908680
C9    C     C_R   0.464727 0.000108 0.978999 -0.037416
C10   C     C_R   0.535273 0.999892 0.021001 -0.037416
C11   C     C_R   0.964727 0.500108 0.978999 -0.037416
C12   C     C_R   0.035273 0.499892 0.021001 -0.037416
C13   C     C_R   0.588293 0.998965 0.829674 0.367726
C14   C     C_R   0.411707 0.001035 0.170326 0.367726
C15   C     C_R   0.088293 0.498965 0.829674 0.367726
C16   C     C_R   0.911707 0.501035 0.170326 0.367726
C17   C     C_R   0.597716 0.999536 0.945288 -0.175486
C18   C     C_R   0.402284 0.000463 0.054711 -0.175486
C19   C     C_R   0.097716 0.499536 0.945288 -0.175485
C20   C     C_R   0.902284 0.500463 0.054711 -0.175486
C21   C     C_R   0.458631 0.001016 0.862115 -0.053359
C22   C     C_R   0.541369 0.998984 0.137885 -0.053359
C23   C     C_R   0.958631 0.501016 0.862115 -0.053359
C24   C     C_R   0.041369 0.498984 0.137885 -0.053359
C25   C     C_R   0.654808 0.156500 0.465445 -0.084672
C26   C     C_R   0.345192 0.843500 0.534555 -0.084672
C27   C     C_R   0.344895 0.156140 0.534804 -0.080596
C28   C     C_R   0.655105 0.843860 0.465196 -0.080596
C29   C     C_R   0.154808 0.656500 0.465445 -0.084672
C30   C     C_R   0.845191 0.343500 0.534555 -0.084672
C31   C     C_R   0.844895 0.656140 0.534803 -0.080596
C32   C     C_R   0.155105 0.343860 0.465196 -0.080596
C33   C     C_R   0.257560 0.774413 0.651079 -0.031825
C34   C     C_R   0.742440 0.225586 0.348921 -0.031824
C35   C     C_R   0.748140 0.780393 0.350370 -0.027935
C36   C     C_R   0.251860 0.219607 0.649630 -0.027935
C37   C     C_R   0.757560 0.274414 0.651079 -0.031824
C38   C     C_R   0.242440 0.725586 0.348921 -0.031824
C39   C     C_R   0.248140 0.280393 0.350370 -0.027935
C40   C     C_R   0.751860 0.719607 0.649630 -0.027935
C41   C     C_R   0.312314 0.827186 0.639582 -0.222375
C42   C     C_R   0.687686 0.172813 0.360418 -0.222375
C43   C     C_R   0.692165 0.832016 0.361663 -0.221492
C44   C     C_R   0.307835 0.167984 0.638337 -0.221492
C45   C     C_R   0.812313 0.327187 0.639582 -0.222375
C46   C     C_R   0.187686 0.672813 0.360418 -0.222375
C47   C     C_R   0.192165 0.332016 0.361663 -0.221492
C48   C     C_R   0.807835 0.667984 0.638337 -0.221492
C49   C     C_R   0.324506 0.807720 0.439805 -0.182378
C50   C     C_R   0.675494 0.192280 0.560195 -0.182378
C51   C     C_R   0.672315 0.804464 0.558547 -0.181449
C52   C     C_R   0.327685 0.195536 0.441453 -0.181450
C53   C     C_R   0.824506 0.307720 0.439805 -0.182378
C54   C     C_R   0.175494 0.692280 0.560195 -0.182378
C55   C     C_R   0.172315 0.304464 0.558547 -0.181450
C56   C     C_R   0.827685 0.695536 0.441453 -0.181450
C57   C     C_R   0.266721 0.758727 0.446422 0.088125
C58   C     C_R   0.733279 0.241273 0.553578 0.088125
C59   C     C_R   0.730992 0.756365 0.552853 0.089282
C60   C     C_R   0.269008 0.243635 0.447146 0.089283
C61   C     C_R   0.766721 0.258727 0.446422 0.088125
C62   C     C_R   0.233279 0.741272 0.553578 0.088125
C63   C     C_R   0.230992 0.256365 0.552853 0.089283
C64   C     C_R   0.769008 0.743635 0.447146 0.089283
H1    H     H_    0.594246 0.997056 0.173061 0.165135
H2    H     H_    0.405754 0.002944 0.826939 0.165135
H3    H     H_    0.094246 0.497056 0.173061 0.165135
H4    H     H_    0.905754 0.502944 0.826939 0.165135
H5    H     H_    0.645687 0.181699 0.639200 0.198178
H6    H     H_    0.354313 0.818301 0.360800 0.198178
H7    H     H_    0.360876 0.188249 0.364426 0.195855
H8    H     H_    0.639124 0.811751 0.635574 0.195854
H9    H     H_    0.145687 0.681699 0.639200 0.198178
H10   H     H_    0.854313 0.318301 0.360800 0.198178
H11   H     H_    0.860876 0.688249 0.364426 0.195854
H12   H     H_    0.139124 0.311751 0.635574 0.195855
H13   H     H_    0.669704 0.145447 0.287049 0.205730
H14   H     H_    0.330296 0.854552 0.712951 0.205731
H15   H     H_    0.323200 0.137650 0.710726 0.188329
H16   H     H_    0.676800 0.862350 0.289274 0.188329
H17   H     H_    0.169704 0.645447 0.287049 0.205730
H18   H     H_    0.830296 0.354553 0.712951 0.205730
H19   H     H_    0.823200 0.637650 0.710726 0.188329
H20   H     H_    0.176800 0.362350 0.289274 0.188330
N1    N     N_R   0.480750 0.000000 0.209750 -0.142283
N2    N     N_R   0.519250 0.000000 0.790250 -0.142283
N3    N     N_R   0.980750 0.500000 0.209750 -0.142283
N4    N     N_R   0.019250 0.500000 0.790250 -0.142283
O1    O     O_R   0.418020 0.076820 0.422210 -0.585484
O2    O     O_R   0.581980 0.923180 0.577790 -0.585484
O3    O     O_R   0.581980 0.076820 0.577790 -0.590357
O4    O     O_R   0.418020 0.923180 0.422210 -0.590358
O5    O     O_R   0.918020 0.576820 0.422210 -0.585484
O6    O     O_R   0.081980 0.423180 0.577790 -0.585484
O7    O     O_R   0.081980 0.576820 0.577790 -0.590357
O8    O     O_R   0.918020 0.423180 0.422210 -0.590357
O9    O     O_R   0.430370 0.076830 0.608590 -0.637786
O10   O     O_R   0.569630 0.923170 0.391410 -0.637786
O11   O     O_R   0.569630 0.076830 0.391410 -0.631207
O12   O     O_R   0.430370 0.923170 0.608590 -0.631207
O13   O     O_R   0.930370 0.576830 0.608590 -0.637786
O14   O     O_R   0.069630 0.423170 0.391410 -0.637786
O15   O     O_R   0.069630 0.576830 0.391410 -0.631207
O16   O     O_R   0.930370 0.423170 0.608590 -0.631207
Zn1   Zn    Zn3+2 0.491750 0.000000 0.375560 1.003508
Zn2   Zn    Zn3+2 0.508250 0.000000 0.624440 1.003508
Zn3   Zn    Zn3+2 0.991750 0.500000 0.375560 1.003508
Zn4   Zn    Zn3+2 0.008250 0.500000 0.624440 1.003508
Br1   Br    Br    0.325126 0.999979 0.271352 -0.342885
Br2   Br    Br    0.674874 0.000021 0.728647 -0.342885
Br3   Br    Br    0.825126 0.499979 0.271352 -0.342884
Br4   Br    Br    0.174874 0.500020 0.728647 -0.342884
C65   C     C_2   0.729194 0.254418 0.765767 0.916958
O17   O     O_2   0.715992 0.302561 0.835076 -0.586328
O18   O     O_R   0.720913 0.180664 0.796162 -0.764781
H21   H     H_    0.701893 0.174297 0.876691 0.380851
C66   C     C_2   0.270805 0.745583 0.234233 0.916957
O19   O     O_2   0.284007 0.697439 0.164923 -0.586327
O20   O     O_R   0.279087 0.819337 0.203838 -0.764780
H22   H     H_    0.298106 0.825703 0.123309 0.380852
C67   C     C_2   0.281617 0.265717 0.236454 0.906242
O21   O     O_2   0.295698 0.316866 0.172751 -0.575030
O22   O     O_R   0.293748 0.193574 0.199993 -0.748244
H23   H     H_    0.316273 0.191017 0.120736 0.377214
C68   C     C_2   0.718383 0.734283 0.763546 0.906242
O23   O     O_2   0.704302 0.683134 0.827249 -0.575031
O24   O     O_R   0.706252 0.806426 0.800007 -0.748244
H24   H     H_    0.683727 0.808983 0.879263 0.377214
C69   C     C_2   0.229196 0.754417 0.765767 0.916957
O25   O     O_2   0.215995 0.802560 0.835078 -0.586327
O26   O     O_R   0.220913 0.680663 0.796162 -0.764781
H25   H     H_    0.201895 0.674296 0.876691 0.380852
C70   C     C_2   0.770805 0.245582 0.234233 0.916957
O27   O     O_2   0.784007 0.197439 0.164924 -0.586328
O28   O     O_R   0.779087 0.319336 0.203838 -0.764781
H26   H     H_    0.798107 0.325703 0.123309 0.380851
C71   C     C_2   0.781617 0.765717 0.236454 0.906242
O29   O     O_2   0.795698 0.816866 0.172751 -0.575031
O30   O     O_R   0.793748 0.693574 0.199993 -0.748244
H27   H     H_    0.816273 0.691017 0.120736 0.377214
C72   C     C_2   0.218383 0.234283 0.763546 0.906241
O31   O     O_2   0.204302 0.183134 0.827249 -0.575030
O32   O     O_R   0.206252 0.306426 0.800007 -0.748244
H28   H     H_    0.183727 0.308983 0.879263 0.377214
C73   C     C_2   0.672659 0.001294 0.985936 0.949435
O33   O     O_2   0.715651 0.951124 0.963254 -0.534705
O34   O     O_R   0.693718 0.060354 0.050635 -0.793373
H29   H     H_    0.745815 0.055190 0.073954 0.382543
C74   C     C_2   0.327340 0.998706 0.014063 0.949435
O35   O     O_2   0.284349 0.048875 0.036746 -0.534705
O36   O     O_R   0.306282 0.939645 0.949365 -0.793373
H30   H     H_    0.254185 0.944810 0.926046 0.382543
C75   C     C_2   0.172659 0.501294 0.985936 0.949435
O37   O     O_2   0.215651 0.451124 0.963254 -0.534705
O38   O     O_R   0.193718 0.560354 0.050635 -0.793374
H31   H     H_    0.245815 0.555190 0.073954 0.382543
C76   C     C_2   0.827341 0.498706 0.014063 0.949435
O39   O     O_2   0.784349 0.548875 0.036746 -0.534705
O40   O     O_R   0.806282 0.439645 0.949365 -0.793374
H32   H     H_    0.754185 0.444810 0.926046 0.382543

loop_
_geom_bond_atom_site_label_1
_geom_bond_atom_site_label_2
_ccdc_geom_bond_type
C14   Br1   S    
C6    C32   S    
C76   O39   D    
C7    C29   S    
C21   H2    S    
C14   C18   A    
C30   C45   A    
O34   H29   S    
C8    O8    A    
C73   O33   D    
O22   H23   S    
C10   C22   A    
C15   C19   A    
C71   O30   S    
O6    Zn4   S    
C59   C64   A    
O10   Zn1   S    
C60   C63   A    
C26   C41   A    
C50   H5    S    
C69   O25   D    
C66   O20   S    
N4    Zn4   S    
C28   C51   A    
C37   C65   S    
C29   C54   A    
C39   C60   A    
C10   C17   A    
O18   H21   S    
C54   H9    S    
C49   C57   A    
C3    O3    A    
C22   N1    A    
C2    O2    A    
C25   C50   A    
C5    C31   S    
C52   C60   A    
C24   H3    S    
C38   C66   S    
C53   C61   A    
C27   C44   A    
C45   H18   S    
C33   C62   A    
C6    O6    A    
C55   C63   A    
C13   N2    A    
C16   N3    A    
O36   H30   S    
C56   C64   A    
C35   C64   A    
C31   C56   A    
C75   O38   S    
C36   C63   A    
C35   C43   A    
C9    C10   A    
C32   C55   A    
C37   C58   A    
C1    C27   S    
O13   Zn4   S    
O28   H26   S    
C76   O40   S    
C40   C59   A    
C7    O15   A    
O3    Zn2   S    
N2    Zn2   S    
C72   O31   D    
N1    Zn1   S    
C73   O34   S    
O11   Zn1   S    
C30   C53   A    
C5    O13   A    
C11   C20   A    
C34   C42   A    
C38   C46   A    
C50   C58   A    
C57   C62   A    
O2    Zn2   S    
C26   C49   A    
C1    O9    A    
C41   H14   S    
C54   C62   A    
C34   C70   S    
C43   H16   S    
C34   C61   A    
C72   O32   S    
C23   H4    S    
C17   C73   S    
C36   C72   S    
C22   H1    S    
C13   Br2   S    
C46   H17   S    
O4    Zn1   S    
C4    C26   S    
O40   H32   S    
C3    C25   S    
C16   C20   A    
O14   Zn3   S    
C47   H20   S    
C69   O26   S    
C68   O24   S    
C8    O16   A    
C2    O10   A    
C67   O21   D    
C55   H12   S    
O8    Zn3   S    
C49   H6    S    
C23   N4    A    
C4    O12   A    
C68   O23   D    
C19   C75   S    
C32   C47   A    
C36   C44   A    
C51   C59   A    
C51   H8    S    
O9    Zn2   S    
C37   C45   A    
O24   H24   S    
C18   C74   S    
O16   Zn4   S    
C27   C52   A    
O30   H27   S    
C39   C47   A    
C65   O17   D    
C33   C69   S    
C40   C48   A    
C21   N2    A    
C1    O1    A    
C15   Br4   S    
C44   H15   S    
C14   N1    A    
C25   C42   A    
C5    O5    A    
O20   H22   S    
C7    O7    A    
C71   O29   D    
C12   C24   A    
C28   C43   A    
O12   Zn2   S    
C39   C67   S    
C48   H19   S    
C13   C17   A    
C29   C46   A    
C31   C48   A    
O15   Zn3   S    
C8    C30   S    
C74   O36   S    
C33   C41   A    
C52   H7    S    
C74   O35   D    
O5    Zn3   S    
C9    C21   A    
C70   O27   D    
C38   C57   A    
C58   C61   A    
C20   C76   S    
C40   C68   S    
C12   C19   A    
C11   C23   A    
C6    O14   A    
O26   H25   S    
C24   N3    A    
C67   O22   S    
C56   H11   S    
O7    Zn4   S    
C3    O11   A    
C9    C18   A    
N3    Zn3   S    
C16   Br3   S    
C42   H13   S    
O1    Zn1   S    
O38   H31   S    
C70   O28   S    
C2    C28   S    
C65   O18   S    
C75   O37   D    
C66   O19   D    
C35   C71   S    
O32   H28   S    
C11   C12   A    
C15   N4    A    
C4    O4    A    
C53   H10   S    
