data_mof_unit_51160.cif
_audit_creation_date              2012-12-11T16:43:15-0500
_audit_creation_method            fapswitch 2.2
_symmetry_space_group_name_H-M    P1
_symmetry_Int_Tables_number       1
_space_group_crystal_system       triclinic
_cell_length_a                    6.910074
_cell_length_b                    23.374178
_cell_length_c                    25.78085
_cell_angle_alpha                 104.854362
_cell_angle_beta                  90.83251
_cell_angle_gamma                 89.952781
_cell_volume                      4024.450071

loop_
_atom_site_label
_atom_site_type_symbol
_atom_type_description
_atom_site_fract_x
_atom_site_fract_y
_atom_site_fract_z
_atom_type_partial_charge
O1    O     O_R   0.505750 0.453350 0.547660 -0.528955
O2    O     O_R   0.170990 0.432220 0.437590 -0.545656
O3    O     O_R   0.005600 0.546650 0.452340 -0.539837
C1    C     C_R   0.340633 0.413469 0.419054 0.702659
O4    O     O_R   0.175720 0.446240 0.546340 -0.545811
O5    O     O_R   0.010370 0.560770 0.561860 -0.537468
C2    C     C_R   0.346324 0.435563 0.563976 0.725249
O6    O     O_R   0.500990 0.439230 0.438140 -0.540126
O7    O     O_3   0.340820 0.537560 0.504970 -0.368963
V1    V     V_3+5 0.064050 0.493030 0.499080 1.394547
O8    O     O_R   0.680940 0.567780 0.562410 -0.539041
C3    C     C_R   0.850898 0.584366 0.582690 0.742032
O9    O     O_R   0.676210 0.553760 0.453660 -0.543204
C4    C     C_R   0.844132 0.565829 0.437113 0.687887
V2    V     V_3+5 0.564640 0.506970 0.500920 1.413037
O10   O     O_3   0.837740 0.462440 0.495030 -0.377809
C5    C     C_R   0.788720 0.894564 0.129926 -0.193055
H1    H     H_    0.671082 0.924278 0.127024 0.123693
C6    C     C_R   0.771146 0.859624 0.166235 -0.157923
H2    H     H_    0.641413 0.863314 0.189932 0.111434
C7    C     C_R   0.921051 0.821751 0.173113 0.071779
C8    C     C_R   0.087094 0.818424 0.141779 -0.164149
H3    H     H_    0.200791 0.787876 0.145941 0.102279
C9    C     C_R   0.106759 0.852453 0.104150 0.077149
C10   C     C_R   0.955730 0.892507 0.098695 -0.072768
C11   C     C_R   0.065171 0.780146 0.245793 -0.152519
H4    H     H_    0.199384 0.803173 0.243382 0.107308
C12   C     C_R   0.052858 0.745679 0.282728 -0.151056
H5    H     H_    0.177999 0.743617 0.307918 0.103557
C13   C     C_R   0.881167 0.715101 0.287563 0.084254
C14   C     C_R   0.720990 0.721027 0.254857 -0.149328
H6    H     H_    0.587179 0.697604 0.256606 0.107103
C15   C     C_R   0.732834 0.756081 0.218266 -0.150000
H7    H     H_    0.607907 0.758951 0.193199 0.104161
C16   C     C_R   0.905666 0.785662 0.212967 0.091510
C17   C     C_R   0.697097 0.670904 0.352313 -0.140673
H8    H     H_    0.568337 0.694700 0.345823 0.099148
C18   C     C_R   0.688021 0.634872 0.388135 -0.162284
H9    H     H_    0.552125 0.631440 0.407545 0.121257
C19   C     C_R   0.852648 0.604278 0.399180 -0.054426
C20   C     C_R   0.026044 0.610344 0.373148 -0.159954
H10   H     H_    0.155385 0.587067 0.380208 0.122030
C21   C     C_R   0.034611 0.645790 0.336947 -0.141398
H11   H     H_    0.169834 0.647987 0.316867 0.103190
C22   C     C_R   0.870595 0.676881 0.326080 0.094641
C23   C     C_R   0.714059 0.644048 0.669572 -0.201938
C24   C     C_R   0.864731 0.633589 0.632138 -0.087069
C25   C     C_R   0.031680 0.669434 0.642797 -0.220408
C26   C     C_R   0.048229 0.715489 0.689875 0.092212
C27   C     C_R   0.897801 0.725175 0.727550 0.053084
C28   C     C_R   0.730646 0.689102 0.717501 0.084955
C29   C     C_R   0.212710 0.752072 0.699974 -0.191247
C30   C     C_R   0.229656 0.797281 0.747391 -0.185575
C31   C     C_R   0.082521 0.806720 0.785572 0.085843
C32   C     C_R   0.914646 0.771017 0.775358 0.054108
C33   C     C_R   0.763363 0.781217 0.812780 0.091794
C34   C     C_R   0.599403 0.744395 0.802845 -0.189463
C35   C     C_R   0.583587 0.698602 0.755750 -0.173446
C36   C     C_R   0.099389 0.851663 0.833439 -0.222261
C37   C     C_R   0.945792 0.863828 0.869888 -0.078888
C38   C     C_R   0.778272 0.828229 0.859244 -0.226176
H12   H     H_    0.585698 0.616328 0.661914 0.133794
H13   H     H_    0.148224 0.661834 0.614135 0.127050
H14   H     H_    0.329215 0.745426 0.671371 0.132682
H15   H     H_    0.358515 0.824745 0.754299 0.135434
H16   H     H_    0.229499 0.878529 0.841352 0.122637
H17   H     H_    0.660087 0.836827 0.887347 0.126810
H18   H     H_    0.482384 0.751321 0.831296 0.132339
H19   H     H_    0.455004 0.671024 0.748961 0.140764
C39   C     C_R   0.291865 0.171620 0.139135 -0.196211
C40   C     C_R   0.456444 0.135010 0.131054 -0.079415
C41   C     C_R   0.601611 0.144526 0.170794 -0.219674
C42   C     C_R   0.581254 0.188886 0.218781 0.149474
C43   C     C_R   0.414337 0.224890 0.227449 0.025891
C44   C     C_R   0.267185 0.216427 0.187225 -0.013390
C45   C     C_R   0.726865 0.197955 0.258142 -0.170860
C46   C     C_R   0.707402 0.241111 0.306359 -0.197880
C47   C     C_R   0.538820 0.276353 0.317532 0.086127
C48   C     C_R   0.395506 0.269491 0.276331 0.024179
C49   C     C_R   0.233412 0.307139 0.283713 0.012312
C50   C     C_R   0.090635 0.299498 0.243402 -0.167516
C51   C     C_R   0.102047 0.253946 0.196215 0.341353
C52   C     C_R   0.509678 0.318592 0.367910 0.037641
C53   C     C_R   0.355292 0.360415 0.372328 -0.098206
C54   C     C_R   0.217176 0.352920 0.330720 -0.231835
H20   H     H_    0.186047 0.164909 0.106865 0.129268
H21   H     H_    0.728799 0.116509 0.164849 0.110600
H22   H     H_    0.858316 0.171901 0.251403 0.118850
H23   H     H_    0.831614 0.247427 0.332953 0.123785
H24   H     H_    0.096908 0.383527 0.334750 0.129527
H25   H     H_    0.965293 0.328270 0.249120 0.153451
C55   C     C_R   0.279281 0.110494 0.868153 0.083268
C56   C     C_R   0.280548 0.149543 0.834719 -0.163672
H26   H     H_    0.155220 0.151330 0.809425 0.103401
C57   C     C_R   0.441185 0.184803 0.831621 0.071623
C58   C     C_R   0.606429 0.180224 0.862488 -0.149915
H27   H     H_    0.732876 0.207194 0.861374 0.110868
C59   C     C_R   0.609446 0.141543 0.895993 -0.192145
H28   H     H_    0.738661 0.140392 0.919937 0.129215
C60   C     C_R   0.448467 0.105698 0.899567 -0.073859
C61   C     C_R   0.593615 0.231859 0.764219 -0.151018
H29   H     H_    0.728014 0.209105 0.767522 0.104269
C62   C     C_R   0.579659 0.266214 0.727047 -0.153826
H30   H     H_    0.704364 0.269367 0.702955 0.102795
C63   C     C_R   0.405138 0.294648 0.719881 0.104491
C64   C     C_R   0.246416 0.288923 0.751583 -0.145751
H31   H     H_    0.111384 0.311221 0.747919 0.112222
C65   C     C_R   0.260663 0.254961 0.788903 -0.154591
H32   H     H_    0.135541 0.251975 0.812892 0.107591
C66   C     C_R   0.433418 0.225182 0.795176 0.093441
C67   C     C_R   0.221814 0.328719 0.647854 -0.142474
H33   H     H_    0.101529 0.300297 0.651250 0.114759
C68   C     C_R   0.208624 0.362714 0.610374 -0.208310
H34   H     H_    0.078090 0.359771 0.586060 0.130921
C69   C     C_R   0.362815 0.399377 0.603822 -0.114938
C70   C     C_R   0.531487 0.401499 0.636489 0.333136
C71   C     C_R   0.542324 0.367717 0.674042 -0.161961
H35   H     H_    0.671058 0.371127 0.699160 0.130993
C72   C     C_R   0.389372 0.330644 0.679935 0.023940
O11   O     O_R   0.308350 0.060850 0.061810 -0.538247
O12   O     O_R   0.633860 0.053770 0.953650 -0.541681
O13   O     O_R   0.798960 0.939210 0.938150 -0.542127
C73   C     C_R   0.462932 0.065546 0.936581 0.690612
O14   O     O_R   0.638360 0.067800 0.062400 -0.538734
O15   O     O_R   0.803500 0.953330 0.047670 -0.540353
C74   C     C_R   0.469541 0.085030 0.082164 0.714036
O16   O     O_R   0.303810 0.046730 0.952290 -0.540675
O17   O     O_3   0.468430 0.962490 0.995010 -0.371969
V3    V     V_3+5 0.745300 0.006960 0.000930 1.380012
O18   O     O_R   0.132880 0.946160 0.046390 -0.540690
C75   C     C_R   0.965016 0.932714 0.061861 0.683805
O19   O     O_R   0.128380 0.932130 0.937650 -0.541834
C76   C     C_R   0.958403 0.914477 0.918233 0.709483
V4    V     V_3+5 0.244670 0.992930 0.999140 1.380959
O20   O     O_3   0.971670 0.037510 0.005000 -0.367472
C77   C     C_3   0.625960 0.315303 0.418180 -0.366503
C78   C     C_3   0.496322 0.298281 0.459878 -0.297114
C79   C     C_3   0.615011 0.290493 0.508016 -0.777685
H36   H     H_    0.695619 0.331784 0.526934 0.218584
H37   H     H_    0.517214 0.280009 0.538136 0.224689
H38   H     H_    0.719551 0.253616 0.495272 0.225530
H39   H     H_    0.385232 0.332644 0.474468 0.173091
H40   H     H_    0.420317 0.255971 0.441092 0.196055
H41   H     H_    0.741300 0.281838 0.409897 0.166009
H42   H     H_    0.702887 0.357416 0.435817 0.203697
O21   O     O_3   0.949496 0.248661 0.160164 -0.634807
H43   H     H_    0.931075 0.206430 0.141640 0.284699
C80   C     C_3   0.095422 0.074349 0.865942 -0.355492
C81   C     C_3   0.118241 0.011678 0.829590 -0.304233
C82   C     C_3   0.921020 0.983386 0.811555 -0.762739
H44   H     H_    0.832257 0.982257 0.846802 0.229519
H45   H     H_    0.842202 0.008982 0.787120 0.224633
H46   H     H_    0.940691 0.937601 0.786413 0.225133
H47   H     H_    0.200258 0.013110 0.793137 0.195562
H48   H     H_    0.200504 0.984085 0.851365 0.189550
H49   H     H_    0.044128 0.073834 0.906269 0.195467
H50   H     H_    0.975312 0.096227 0.849274 0.168319
O22   O     O_3   0.684042 0.438455 0.634506 -0.640870
H51   H     H_    0.753980 0.419588 0.601216 0.285786
C83   C     C_3   0.287911 0.842795 0.070309 -0.360507
C84   C     C_3   0.242012 0.810169 0.011725 -0.274863
C85   C     C_3   0.424596 0.800893 0.977988 -0.750220
H52   H     H_    0.492547 0.844095 0.978695 0.238086
H53   H     H_    0.530285 0.773358 0.993629 0.222613
H54   H     H_    0.386689 0.777942 0.935781 0.206543
H55   H     H_    0.177160 0.766271 0.010318 0.189015
H56   H     H_    0.135955 0.835335 0.993623 0.186815
H57   H     H_    0.363799 0.885271 0.073275 0.192806
H58   H     H_    0.394171 0.815576 0.086281 0.165225

loop_
_geom_bond_atom_site_label_1
_geom_bond_atom_site_label_2
_ccdc_geom_bond_type
C32   C33   A    
C61   H29   S    
C55   C80   S    
C42   C43   A    
C13   C22   S    
C57   C58   A    
O16   V4    S    
C1    O6    A    
O17   V3    S    
C84   C85   S    
C46   C47   A    
C70   C71   A    
C46   H23   S    
C11   H4    S    
C56   H26   S    
C23   H12   S    
C52   C53   A    
C8    C9    A    
C7    C8    A    
C17   H8    S    
C6    C7    A    
C85   H52   S    
C71   C72   A    
C36   H16   S    
O5    C3    A    
C18   H9    S    
O11   C74   A    
C64   H31   S    
V2    O10   S    
C65   H32   S    
C67   C72   A    
C20   H10   S    
C2    C69   S    
O15   C75   A    
C68   H34   S    
C5    C6    A    
V3    O20   S    
O8    V2    S    
C47   C52   A    
C67   H33   S    
C65   C66   A    
O19   C76   A    
C82   H46   S    
C58   C59   A    
C83   H58   S    
C14   C15   A    
C40   C74   S    
C39   C40   A    
O1    V2    S    
C30   H15   S    
O7    V1    S    
C45   H22   S    
O13   V3    S    
C84   H55   S    
C78   H40   S    
C36   C37   A    
C61   C62   A    
O1    C2    A    
O9    C4    A    
C20   C21   A    
O18   V4    S    
C3    C24   S    
C51   O21   S    
C27   C28   A    
C85   H53   S    
C31   C36   A    
C78   H39   S    
C43   C44   A    
C53   C54   A    
C9    C10   A    
C62   C63   A    
C29   H14   S    
O4    C2    A    
C47   C48   A    
C41   C42   A    
C25   H13   S    
C61   C66   A    
C30   C31   A    
C23   C28   A    
C79   H38   S    
C50   C51   A    
C37   C38   A    
O2    C1    A    
C81   H47   S    
O13   C76   A    
C70   O22   S    
C49   C54   A    
O17   V4    S    
C85   H54   S    
C38   H17   S    
C73   O16   A    
C24   C25   A    
C1    C53   S    
C54   H24   S    
C26   C29   A    
C58   H27   S    
C5    H1    S    
C17   C22   A    
C67   C68   A    
C28   C35   A    
C23   C24   A    
C45   C46   A    
C21   C22   A    
C52   C77   S    
C84   H56   S    
O3    C4    A    
C79   H37   S    
C39   H20   S    
O19   V4    S    
C19   C20   A    
C26   C27   A    
O6    V2    S    
C59   C60   A    
C43   C48   A    
O9    V2    S    
C21   H11   S    
O22   H51   S    
C42   C45   A    
C82   H45   S    
C33   C34   A    
C34   H18   S    
O2    V1    S    
C62   H30   S    
C41   H21   S    
C29   C30   A    
C55   C60   A    
O14   C74   A    
O21   H43   S    
C63   C64   A    
C31   C32   A    
C12   H5    S    
C8    H3    S    
C14   H6    S    
C77   H42   S    
O12   V3    S    
C49   C50   A    
C57   C66   S    
O5    V1    S    
O8    C3    A    
C9    C83   S    
C35   H19   S    
V4    O20   S    
C7    C16   S    
C78   C79   S    
C11   C12   A    
C27   C32   A    
C82   H44   S    
C60   C73   S    
C5    C10   A    
C83   C84   S    
C6    H2    S    
C17   C18   A    
O18   C75   A    
C81   H48   S    
O4    V1    S    
C77   H41   S    
O3    V1    S    
V1    O10   S    
C81   C82   S    
C18   C19   A    
C34   C35   A    
C13   C14   A    
C64   C65   A    
C25   C26   A    
C37   C76   S    
C12   C13   A    
C55   C56   A    
C15   C16   A    
C15   H7    S    
O14   V3    S    
O11   V4    S    
C80   H50   S    
C83   H57   S    
O7    V2    S    
O12   C73   A    
C79   H36   S    
C4    C19   S    
C48   C49   A    
C50   H25   S    
O15   V3    S    
C11   C16   A    
C40   C41   A    
C56   C57   A    
C59   H28   S    
C44   C51   A    
C39   C44   A    
C33   C38   A    
C63   C72   S    
C80   H49   S    
C71   H35   S    
C80   C81   S    
C77   C78   S    
C69   C70   A    
C68   C69   A    
C10   C75   S    
