data_mof_unit_42511.cif
_audit_creation_date              2012-10-26T20:21:44-0400
_audit_creation_method            fapswitch 2.2
_symmetry_space_group_name_H-M    P1
_symmetry_Int_Tables_number       1
_space_group_crystal_system       triclinic
_cell_length_a                    16.075627
_cell_length_b                    14.806486
_cell_length_c                    9.64815
_cell_angle_alpha                 91.282967
_cell_angle_beta                  89.999245
_cell_angle_gamma                 89.999861
_cell_volume                      2295.91116923

loop_
_atom_site_label
_atom_site_type_symbol
_atom_type_description
_atom_site_fract_x
_atom_site_fract_y
_atom_site_fract_z
_atom_type_partial_charge
C1    C     C_R   0.122808 0.386316 0.499463 0.536226
C2    C     C_R   0.003471 0.579793 0.928538 0.151937
C3    C     C_R   0.996578 0.579699 0.076950 0.153853
C4    C     C_R   0.996575 0.420301 0.923050 0.153849
C5    C     C_R   0.503470 0.920206 0.071462 0.151937
C6    C     C_R   0.503475 0.079793 0.928538 0.151950
C7    C     C_R   0.496580 0.079699 0.076950 0.153862
C8    C     C_R   0.496576 0.920301 0.923050 0.153848
C9    C     C_R   0.783762 0.276030 0.370526 -0.054545
C10   C     C_R   0.223422 0.715619 0.625194 -0.051701
C11   C     C_R   0.230771 0.701403 0.373748 -0.052609
C12   C     C_R   0.878187 0.615267 0.501144 0.536909
C13   C     C_R   0.771763 0.293508 0.622013 -0.043940
C14   C     C_R   0.230779 0.298610 0.626246 -0.052607
C15   C     C_R   0.771760 0.706487 0.377986 -0.043937
C16   C     C_R   0.783782 0.723999 0.629469 -0.054544
C17   C     C_R   0.223422 0.284380 0.374801 -0.051704
C18   C     C_R   0.283781 0.776005 0.370531 -0.054543
C19   C     C_R   0.723428 0.215613 0.625185 -0.051700
C20   C     C_R   0.730748 0.201433 0.373735 -0.052610
C21   C     C_R   0.271760 0.793511 0.622014 -0.043940
C22   C     C_R   0.730774 0.798603 0.626249 -0.052607
C23   C     C_R   0.878185 0.384736 0.498857 0.536913
C24   C     C_R   0.271762 0.206489 0.377985 -0.043941
C25   C     C_R   0.283788 0.224007 0.629467 -0.054542
C26   C     C_R   0.723423 0.784380 0.374804 -0.051702
C27   C     C_R   0.194821 0.675499 0.500414 -0.040504
C28   C     C_R   0.808524 0.319706 0.496166 -0.037997
C29   C     C_R   0.808530 0.680302 0.503834 -0.037990
C30   C     C_R   0.194825 0.324506 0.499581 -0.040501
C31   C     C_R   0.694815 0.175508 0.500404 -0.040510
C32   C     C_R   0.308530 0.819698 0.496167 -0.037991
C33   C     C_R   0.308532 0.180306 0.503833 -0.037987
C34   C     C_R   0.122807 0.613685 0.500535 0.536222
C35   C     C_R   0.694823 0.824504 0.499584 -0.040505
C36   C     C_2   0.016625 0.332918 0.142280 0.318835
C37   C     C_2   0.016633 0.667080 0.857719 0.318858
C38   C     C_2   0.981640 0.666494 0.153342 0.333805
C39   C     C_2   0.981634 0.333507 0.846659 0.333814
C40   C     C_2   0.516633 0.832920 0.142279 0.318855
C41   C     C_2   0.516646 0.167076 0.857720 0.318897
C42   C     C_2   0.481645 0.166497 0.153339 0.333780
C43   C     C_2   0.481638 0.833506 0.846659 0.333804
C44   C     C_1   0.805367 0.310883 0.235945 0.254458
C45   C     C_R   0.622807 0.886315 0.499464 0.536225
C46   C     C_1   0.215476 0.669902 0.755433 0.295697
C47   C     C_1   0.220474 0.646494 0.248246 0.258371
C48   C     C_1   0.774921 0.351025 0.745754 0.296576
C49   C     C_1   0.220488 0.353528 0.751740 0.258367
C50   C     C_1   0.774922 0.648963 0.254251 0.296555
C51   C     C_1   0.805392 0.689164 0.764057 0.254437
C52   C     C_1   0.215466 0.330085 0.244554 0.295683
C53   C     C_1   0.305391 0.810844 0.235944 0.254442
C54   C     C_1   0.715502 0.169877 0.755407 0.295712
C55   C     C_1   0.720424 0.146554 0.248212 0.258387
C56   C     C_R   0.378187 0.115268 0.501144 0.536908
C57   C     C_1   0.274921 0.851033 0.745752 0.296556
C58   C     C_1   0.720479 0.853516 0.751748 0.258374
C59   C     C_1   0.274927 0.148965 0.254249 0.296537
C60   C     C_1   0.305401 0.189177 0.764057 0.254430
C61   C     C_1   0.715476 0.830093 0.244562 0.295694
C62   C     C_R   0.378187 0.884733 0.498857 0.536912
C63   C     C_R   0.622805 0.113688 0.500533 0.536217
C64   C     C_R   0.003468 0.420206 0.071462 0.151933
Cu1   Cu    Cu3+1 0.000000 0.500000 0.640660 0.970925
Cu2   Cu    Cu3+1 1.000000 0.500000 0.359340 0.970922
Cu3   Cu    Cu3+1 0.500000 0.000000 0.640660 0.970932
Cu4   Cu    Cu3+1 0.500000 0.000000 0.359340 0.970922
H1    H     H_    0.993333 0.321262 0.244403 0.155117
H2    H     H_    0.993332 0.678742 0.755605 0.155106
H3    H     H_    0.012844 0.683397 0.248798 0.147846
H4    H     H_    0.012845 0.316600 0.751208 0.147839
H5    H     H_    0.493334 0.821258 0.244397 0.155104
H6    H     H_    0.493330 0.178748 0.755618 0.155089
H7    H     H_    0.512834 0.183392 0.248807 0.147860
H8    H     H_    0.512841 0.816603 0.751202 0.147847
N1    N     N_R   1.000000 0.500000 0.852070 -0.310221
N2    N     N_1   0.776547 0.602326 0.156431 -0.188158
N3    N     N_1   0.821212 0.661310 0.871886 -0.200560
N4    N     N_1   0.210816 0.367700 0.141179 -0.180294
N5    N     N_1   0.321211 0.838701 0.128117 -0.200559
N6    N     N_1   0.710875 0.132233 0.858757 -0.180242
N7    N     N_1   0.712426 0.101858 0.149305 -0.202079
N8    N     N_1   0.276546 0.897668 0.843574 -0.188158
N9    N     N_1   0.712505 0.898241 0.850635 -0.202066
N10   N     N_1   0.276555 0.102330 0.156427 -0.188173
N11   N     N_1   0.321224 0.161327 0.871887 -0.200575
N12   N     N_R   0.000000 0.500000 0.147930 -0.310218
N13   N     N_1   0.710832 0.867716 0.141193 -0.180289
N14   N     N_R   0.500000 0.000000 0.852070 -0.310223
N15   N     N_R   0.500000 0.000000 0.147930 -0.310219
N16   N     N_1   0.821184 0.338752 0.128125 -0.200552
N17   N     N_1   0.210834 0.632277 0.858799 -0.180274
N18   N     N_1   0.212498 0.601773 0.149357 -0.202073
N19   N     N_1   0.776543 0.397658 0.843578 -0.188139
N20   N     N_1   0.212517 0.398256 0.850623 -0.202073
O1    O     O_R   0.090170 0.409820 0.618740 -0.529113
O2    O     O_R   0.409830 0.090180 0.381260 -0.511890
O3    O     O_R   0.409830 0.090180 0.618740 -0.527745
O4    O     O_R   0.590170 0.909820 0.381260 -0.520282
O5    O     O_R   0.409830 0.909820 0.381260 -0.527752
O6    O     O_R   0.590170 0.090180 0.618740 -0.520270
O7    O     O_R   0.590170 0.090180 0.381260 -0.529119
O8    O     O_R   0.409830 0.909820 0.618740 -0.511879
O9    O     O_2   0.055963 0.271563 0.086596 -0.485312
O10   O     O_2   0.055984 0.728427 0.913394 -0.485315
O11   O     O_2   0.932229 0.721517 0.109254 -0.473610
O12   O     O_R   0.909830 0.590180 0.381260 -0.511879
O13   O     O_2   0.932212 0.278492 0.890743 -0.473608
O14   O     O_2   0.555985 0.771573 0.086599 -0.485311
O15   O     O_2   0.556023 0.228406 0.913381 -0.485318
O16   O     O_2   0.432252 0.221530 0.109235 -0.473630
O17   O     O_2   0.432227 0.778483 0.890750 -0.473610
O18   O     O_R   0.909830 0.590180 0.618740 -0.527754
O19   O     O_R   0.090170 0.409820 0.381260 -0.520286
O20   O     O_R   0.909830 0.409820 0.381260 -0.527760
O21   O     O_R   0.090170 0.590180 0.618740 -0.520283
O22   O     O_R   0.090170 0.590180 0.381260 -0.529116
O23   O     O_R   0.909830 0.409820 0.618740 -0.511875
O24   O     O_R   0.590170 0.909820 0.618740 -0.529116

loop_
_geom_bond_atom_site_label_1
_geom_bond_atom_site_label_2
_ccdc_geom_bond_type
C10   C27   A    
C34   O22   A    
C11   C18   A    
C48   N19   T    
C12   C29   S    
Cu1   O18   S    
C11   C47   S    
C8    C43   S    
C56   O2    A    
C19   C31   A    
C22   C35   A    
C42   H7    S    
Cu2   O20   S    
C26   C61   S    
C20   C55   S    
C23   O23   A    
C7    C42   S    
C14   C49   S    
Cu4   N15   S    
C40   H5    S    
C53   N5    T    
C15   C50   S    
C38   O11   D    
C42   O16   D    
C18   C53   S    
C41   H6    S    
C3    C38   S    
C9    C44   S    
C6    C41   S    
C10   C46   S    
C39   H4    S    
Cu4   O7    S    
C13   C28   A    
C25   C60   S    
Cu3   O24   S    
C62   O8    A    
C44   N16   T    
Cu3   O3    S    
C62   O5    A    
C33   C56   S    
C23   O20   A    
C10   C21   A    
C37   H2    S    
C17   C30   A    
C14   C30   A    
C63   O6    A    
C50   N2    T    
C17   C52   S    
C60   N11   T    
C61   N13   T    
Cu3   O8    S    
C15   C29   A    
C12   O18   A    
C27   C34   S    
C21   C32   A    
C17   C24   A    
Cu1   N1    S    
Cu2   O19   S    
C13   C19   A    
Cu3   Cu4   S    
C31   C63   S    
Cu4   O5    S    
C63   O7    A    
C1    O1    A    
C12   O12   A    
C15   C26   A    
C40   O14   D    
C16   C29   A    
C6    N14   A    
Cu3   N14   S    
Cu4   O4    S    
C21   C57   S    
C37   O10   D    
C5    C8    A    
C9    C20   A    
C4    C39   S    
C11   C27   A    
C7    N15   A    
Cu1   O23   S    
C57   N8    T    
C23   C28   S    
C51   N3    T    
C5    N15   A    
C49   N20   T    
C19   C54   S    
C41   O15   D    
C8    N14   A    
C36   O9    D    
C55   N7    T    
C35   C45   S    
C58   N9    T    
C54   N6    T    
C36   H1    S    
C45   O24   A    
C43   H8    S    
C38   H3    S    
C16   C51   S    
C16   C22   A    
C3    N12   A    
Cu2   O12   S    
C45   O4    A    
C22   C58   S    
C13   C48   S    
C6    C7    A    
C4    C64   A    
C24   C33   A    
C2    C3    A    
C59   N10   T    
Cu1   O1    S    
C4    N1    A    
C2    N1    A    
C52   N4    T    
C43   O17   D    
Cu2   N12   S    
C2    C37   S    
C46   N17   T    
C34   O21   A    
C24   C59   S    
C1    C30   S    
C47   N18   T    
C14   C25   A    
Cu4   O2    S    
C32   C62   S    
C26   C35   A    
C39   O13   D    
C18   C32   A    
Cu3   O6    S    
Cu1   Cu2   S    
Cu2   O22   S    
C5    C40   S    
Cu1   O21   S    
C1    O19   A    
C56   O3    A    
C36   C64   S    
C64   N12   A    
C9    C28   A    
C25   C33   A    
C20   C31   A    
