data_mof_unit_46323.cif
_audit_creation_date              2012-10-26T21:08:08-0400
_audit_creation_method            fapswitch 2.2
_symmetry_space_group_name_H-M    P1
_symmetry_Int_Tables_number       1
_space_group_crystal_system       triclinic
_cell_length_a                    15.849117
_cell_length_b                    10.77829
_cell_length_c                    9.668076
_cell_angle_alpha                 88.89321
_cell_angle_beta                  89.852255
_cell_angle_gamma                 94.427619
_cell_volume                      1646.31265116

loop_
_atom_site_label
_atom_site_type_symbol
_atom_type_description
_atom_site_fract_x
_atom_site_fract_y
_atom_site_fract_z
_atom_type_partial_charge
C1    C     C_R   0.496152 0.262933 0.501141 0.528189
C2    C     C_R   0.276992 0.036781 0.654252 0.169842
C3    C     C_R   0.278840 0.906363 0.657404 0.108511
C4    C     C_R   0.340096 0.498131 0.500181 0.528425
C5    C     C_R   0.349390 0.851572 0.606348 -0.104006
C6    C     C_R   0.420360 0.924813 0.553991 -0.003122
C7    C     C_R   0.419858 0.055934 0.554631 -0.015494
C8    C     C_R   0.491403 0.128999 0.503072 0.017745
C9    C     C_R   0.560671 0.074135 0.449973 -0.136181
C10   C     C_R   0.561009 0.946637 0.449199 -0.160812
C11   C     C_R   0.491866 0.871048 0.499356 0.013627
C12   C     C_3   0.082697 0.485135 0.499595 0.063462
C13   C     C_R   0.640610 0.634792 0.129062 0.177939
C14   C     C_R   0.711432 0.668617 0.043826 -0.113239
C15   C     C_R   0.702445 0.677589 0.903584 -0.192152
C16   C     C_R   0.497833 0.737204 0.499322 0.530211
C17   C     C_R   0.625940 0.640681 0.846062 -0.084984
C18   C     C_R   0.563364 0.568439 0.921494 0.133523
C19   C     C_R   0.566512 0.566931 0.070701 0.158144
C20   C     C_R   0.438768 0.435715 0.075426 0.003189
C21   C     C_R   0.439274 0.434867 0.928195 0.009593
C22   C     C_R   0.659446 0.494506 0.500322 0.545445
C23   C     C_3   0.974074 0.566351 0.593869 -0.091422
C24   C     C_3   0.965458 0.367354 0.534711 -0.087137
C25   C     C_3   0.023657 0.401770 0.407757 0.096965
C26   C     C_1   0.250279 0.493937 0.500619 0.010477
C27   C     C_1   0.748707 0.486779 0.501305 -0.025869
C28   C     C_3   0.024888 0.452624 0.623885 0.133358
C29   C     C_3   0.712903 0.741706 0.325085 -0.301748
C30   C     C_3   0.014588 0.818450 0.430545 -0.265772
C31   C     C_3   0.991617 0.374240 0.857019 -0.273217
C32   C     C_3   0.213789 0.166996 0.821238 -0.275998
C33   C     C_3   0.915719 0.481977 0.500497 -0.018374
C34   C     C_3   0.031163 0.596194 0.466149 0.143511
C35   C     C_3   0.972222 0.514994 0.372596 0.118759
C36   C     C_1   0.174583 0.489744 0.500500 0.027365
C37   C     C_1   0.824060 0.482804 0.501346 -0.036395
C38   C     C_R   0.347447 0.110335 0.603038 -0.089503
Cu1   Cu    Cu3+1 0.499990 0.499990 0.640660 0.932622
Cu2   Cu    Cu3+1 0.500010 0.500010 0.359340 0.978514
H1    H     H_    0.347900 0.751206 0.608325 0.158890
H2    H     H_    0.615570 0.130594 0.411048 0.125762
H3    H     H_    0.344332 0.210310 0.599098 0.132213
H4    H     H_    0.600885 0.782305 0.229166 0.246787
H5    H     H_    0.698424 0.748263 0.436866 0.128442
H6    H     H_    0.741618 0.833344 0.286758 0.115830
H7    H     H_    0.759884 0.671420 0.314540 0.174290
H8    H     H_    0.106094 0.717613 0.338876 0.279597
H9    H     H_    0.051109 0.907429 0.402210 0.178260
H10   H     H_    0.988361 0.827352 0.536162 0.158623
H11   H     H_    0.961999 0.801988 0.355862 0.163896
H12   H     H_    0.617031 0.908310 0.412779 0.109562
H13   H     H_    0.098894 0.486196 0.798033 0.287942
H14   H     H_    0.021485 0.352748 0.957398 0.200839
H15   H     H_    0.957364 0.287603 0.819720 0.154221
H16   H     H_    0.946050 0.446015 0.872865 0.183027
H17   H     H_    0.147539 0.040984 0.693391 0.285896
H18   H     H_    0.228371 0.105521 0.910195 0.169459
H19   H     H_    0.154137 0.210536 0.843719 0.182287
H20   H     H_    0.265064 0.242427 0.808190 0.140974
H21   H     H_    0.388464 0.382517 0.131155 0.128102
H22   H     H_    0.769484 0.712796 0.084168 0.155873
H23   H     H_    0.752743 0.723067 0.840428 0.126416
H24   H     H_    0.619166 0.670165 0.741504 0.186649
H25   H     H_    0.389449 0.380850 0.875151 0.110448
H26   H     H_    0.937369 0.272840 0.563539 0.129877
H27   H     H_    0.953412 0.632391 0.671482 0.132045
I1    I     I_    0.065196 0.268151 0.267366 -0.418453
I2    I     I_    0.179454 0.786100 0.744463 -0.426250
I3    I     I_    0.929774 0.565310 0.171066 -0.466110
N1    N     N_R   0.500800 0.501210 0.147910 -0.235732
N2    N     N_R   0.500830 0.501290 0.852040 -0.239753
N3    N     N_2   0.635450 0.706876 0.249446 -0.442562
N4    N     N_2   0.069932 0.718031 0.427623 -0.482003
N5    N     N_2   0.056220 0.419019 0.758722 -0.517645
N6    N     N_2   0.203840 0.095334 0.696609 -0.500346
O1    O     O_R   0.499990 0.319640 0.618810 -0.500344
O2    O     O_R   0.500000 0.319660 0.381240 -0.498950
O3    O     O_R   0.379070 0.499980 0.618770 -0.507559
O4    O     O_R   0.379080 0.500000 0.381190 -0.494647
O5    O     O_R   0.500000 0.680340 0.618760 -0.526141
O6    O     O_R   0.500010 0.680360 0.381190 -0.474107
O7    O     O_R   0.620920 0.500000 0.618810 -0.517176
O8    O     O_R   0.620930 0.500020 0.381230 -0.452420

loop_
_geom_bond_atom_site_label_1
_geom_bond_atom_site_label_2
_ccdc_geom_bond_type
C30   H11   S    
Cu2   N1    S    
C1    C8    S    
C1    O1    A    
Cu2   O8    S    
C19   N1    A    
C32   H18   S    
C10   H12   S    
C7    C8    A    
C9    H2    S    
C29   H7    S    
Cu1   O1    S    
H17   N6    S    
C3    I2    S    
C4    O4    A    
C17   H24   S    
C5    C6    A    
C30   N4    S    
C29   N3    S    
C14   H22   S    
C34   C35   S    
C23   H27   S    
C20   H21   S    
C35   I3    S    
C8    C9    A    
C23   C33   S    
Cu1   N2    S    
Cu2   O4    S    
C20   N1    A    
C31   H16   S    
C12   C36   S    
C9    C10   A    
C24   H26   S    
C30   H10   S    
C13   C14   A    
C1    O2    A    
H13   N5    S    
C25   I1    S    
C18   N2    A    
C13   C19   A    
C21   N2    A    
H8    N4    S    
C24   C25   S    
Cu1   O5    S    
C4    O3    A    
C6    C11   A    
C18   C19   A    
C33   C37   S    
C29   H5    S    
Cu1   O3    S    
Cu2   O6    S    
C11   C16   S    
C2    C38   A    
C31   N5    S    
C23   C34   S    
C16   O6    A    
C17   C18   A    
C23   C28   S    
C34   N4    S    
C26   C36   T    
C30   H9    S    
C25   C35   S    
C22   C27   S    
Cu2   O2    S    
C32   H20   S    
C12   C34   S    
Cu1   Cu2   S    
C2    N6    S    
C15   C17   A    
C5    H1    S    
C21   H25   S    
C24   C28   S    
C13   N3    S    
C3    C5    A    
C32   N6    S    
C4    C26   S    
C6    C7    A    
C12   C25   S    
C24   C33   S    
C29   H6    S    
C22   O7    A    
C2    C3    A    
Cu1   O7    S    
C38   H3    S    
C27   C37   T    
C16   O5    A    
C33   C35   S    
C7    C38   A    
C31   H14   S    
H4    N3    S    
C10   C11   A    
C20   C21   A    
C12   C28   S    
C15   H23   S    
C14   C15   A    
C32   H19   S    
C31   H15   S    
C28   N5    S    
C22   O8    A    
