data_mof_unit_8259.cif
_audit_creation_date              2012-12-11T15:50:33-0500
_audit_creation_method            fapswitch 2.2
_symmetry_space_group_name_H-M    P1
_symmetry_Int_Tables_number       1
_space_group_crystal_system       monoclinic
_cell_length_a                    6.964485
_cell_length_b                    14.666991
_cell_length_c                    16.070592
_cell_angle_alpha                 90.0
_cell_angle_beta                  90.0
_cell_angle_gamma                 90.113146
_cell_volume                      1641.57625454

loop_
_atom_site_label
_atom_site_type_symbol
_atom_type_description
_atom_site_fract_x
_atom_site_fract_y
_atom_site_fract_z
_atom_type_partial_charge
O1    O     O_R   0.638140 0.833910 0.163320 -0.543882
O2    O     O_R   0.361860 0.166090 0.836680 -0.536207
O3    O     O_R   0.361860 0.166090 0.663320 -0.543882
O4    O     O_R   0.638140 0.833910 0.336680 -0.536207
O5    O     O_R   0.138140 0.666090 0.336680 -0.533169
O6    O     O_R   0.861860 0.333910 0.663320 -0.534024
O7    O     O_R   0.861860 0.333910 0.836680 -0.533169
O8    O     O_R   0.138140 0.666090 0.163320 -0.534024
O9    O     O_R   0.308390 0.844930 0.336080 -0.541592
O10   O     O_R   0.691610 0.155070 0.663920 -0.520689
O11   O     O_R   0.691610 0.155070 0.836080 -0.541592
O12   O     O_R   0.308390 0.844930 0.163920 -0.520690
O13   O     O_R   0.808390 0.655070 0.163920 -0.542979
O14   O     O_R   0.191610 0.344930 0.836080 -0.539706
O15   O     O_R   0.191610 0.344930 0.663920 -0.542979
O16   O     O_R   0.808390 0.655070 0.336080 -0.539706
C1    C     C_R   0.477661 0.864889 0.366606 0.736648
C2    C     C_R   0.521912 0.133780 0.634458 0.695212
C3    C     C_R   0.522339 0.135111 0.866606 0.736648
C4    C     C_R   0.478088 0.866219 0.134458 0.695212
C5    C     C_R   0.977276 0.635515 0.133352 0.772027
C6    C     C_R   0.021099 0.370134 0.862670 0.703886
C7    C     C_R   0.022724 0.364485 0.633352 0.772027
C8    C     C_R   0.978901 0.629866 0.362670 0.703886
O17   O     O_3   0.471620 0.691320 0.250000 -0.381842
O18   O     O_3   0.528380 0.308680 0.750000 -0.381842
O19   O     O_3   0.971620 0.808680 0.250000 -0.371152
O20   O     O_3   0.028380 0.191320 0.750000 -0.371152
V1    V     V_3+5 0.196770 0.760880 0.250000 1.538522
V2    V     V_3+5 0.803230 0.239120 0.750000 1.538522
V3    V     V_3+5 0.696770 0.739120 0.250000 1.515905
V4    V     V_3+5 0.303230 0.260880 0.750000 1.515905
C9    C     C_R   0.842758 0.498441 0.444997 -0.120510
C10   C     C_R   0.168628 0.485846 0.544293 -0.141369
C11   C     C_R   0.157242 0.501558 0.944997 -0.120510
C12   C     C_R   0.831372 0.514154 0.044293 -0.141368
C13   C     C_R   0.352198 0.002782 0.059333 -0.136595
C14   C     C_R   0.648307 0.999017 0.942334 -0.135429
C15   C     C_R   0.647802 0.997218 0.559333 -0.136595
C16   C     C_R   0.351693 0.000983 0.442334 -0.135429
H1    H     H_    0.725280 0.496797 0.402454 0.147623
H2    H     H_    0.299383 0.479620 0.580405 0.162907
H3    H     H_    0.274720 0.503203 0.902455 0.147622
H4    H     H_    0.700617 0.520380 0.080405 0.162908
H5    H     H_    0.240767 0.006545 0.106248 0.134464
H6    H     H_    0.762538 0.995770 0.896569 0.132795
H7    H     H_    0.759233 0.993455 0.606248 0.134464
H8    H     H_    0.237462 0.004230 0.396569 0.132794
C17   C     C_R   0.851946 0.431296 0.507055 -0.005410
C18   C     C_R   0.167098 0.543480 0.474714 -0.001945
C19   C     C_R   0.148054 0.568704 0.007055 -0.005409
C20   C     C_R   0.832902 0.456520 0.974714 -0.001946
C21   C     C_R   0.360317 0.070134 0.997040 -0.003146
C22   C     C_R   0.640634 0.932561 0.005189 -0.110399
C23   C     C_R   0.639683 0.929866 0.497040 -0.003146
C24   C     C_R   0.359366 0.067439 0.505189 -0.110399
C25   C     C_R   0.011651 0.428971 0.561828 -0.120339
C26   C     C_R   0.995243 0.558084 0.429480 -0.154059
C27   C     C_R   0.988349 0.571029 0.061828 -0.120339
C28   C     C_R   0.004756 0.441915 0.929480 -0.154058
C29   C     C_R   0.510092 0.068325 0.936823 -0.109336
C30   C     C_R   0.491285 0.934164 0.065242 -0.140686
C31   C     C_R   0.489908 0.931675 0.436823 -0.109336
C32   C     C_R   0.508715 0.065836 0.565242 -0.140686
C33   C     C_2   0.707855 0.357170 0.503481 0.785782
O21   O     O_2   0.538179 0.374873 0.493104 -0.556158
O22   O     O_R   0.768684 0.266589 0.505005 -0.620595
H9    H     H_    0.660578 0.222470 0.492467 0.303867
C34   C     C_2   0.352728 0.565649 0.437248 0.830167
O23   O     O_2   0.472634 0.609938 0.475283 -0.547744
O24   O     O_R   0.388486 0.532789 0.357012 -0.648624
H10   H     H_    0.509378 0.557622 0.331219 0.298184
C35   C     C_2   0.292145 0.642830 0.003481 0.785781
O25   O     O_2   0.461822 0.625126 0.993105 -0.556158
O26   O     O_R   0.231316 0.733411 0.005004 -0.620594
H11   H     H_    0.339422 0.777530 0.992467 0.303867
C36   C     C_2   0.647272 0.434351 0.937248 0.830167
O27   O     O_2   0.527366 0.390061 0.975284 -0.547744
O28   O     O_R   0.611514 0.467211 0.857013 -0.648624
H12   H     H_    0.490622 0.442377 0.831219 0.298184
C37   C     C_2   0.217614 0.144571 0.001469 0.754205
O29   O     O_2   0.048940 0.126993 0.015574 -0.570001
O30   O     O_R   0.277466 0.235098 0.994244 -0.627166
H13   H     H_    0.169240 0.279704 0.004666 0.303355
C38   C     C_2   0.789587 0.861031 0.004552 0.839816
O31   O     O_2   0.774956 0.796778 0.956718 -0.509580
O32   O     O_R   0.949211 0.866980 0.056777 -0.615583
H14   H     H_    0.945716 0.923135 0.093442 0.264551
C39   C     C_2   0.782385 0.855428 0.501469 0.754205
O33   O     O_2   0.951059 0.873007 0.515574 -0.570001
O34   O     O_R   0.722534 0.764902 0.494244 -0.627166
H15   H     H_    0.830760 0.720296 0.504667 0.303355
C40   C     C_2   0.210413 0.138969 0.504552 0.839816
O35   O     O_2   0.225044 0.203222 0.456718 -0.509581
O36   O     O_R   0.050789 0.133020 0.556777 -0.615583
H16   H     H_    0.054284 0.076865 0.593442 0.264551

loop_
_geom_bond_atom_site_label_1
_geom_bond_atom_site_label_2
_ccdc_geom_bond_type
O17   V3    S    
O32   H14   S    
O18   V4    S    
C40   O35   D    
O12   V1    S    
O19   V1    S    
C35   O25   D    
O16   C8    A    
O36   H16   S    
C10   H2    S    
C12   C27   A    
C37   O29   D    
O15   V4    S    
C38   O31   D    
O16   V3    S    
C15   C32   A    
O11   C3    A    
C9    C26   A    
C16   C31   A    
C17   C33   S    
O8    V1    S    
C21   C37   S    
C18   C34   S    
C3    C29   S    
C5    C27   S    
C6    C28   S    
C9    C17   A    
O1    V3    S    
C17   C25   A    
O3    C2    A    
O2    V4    S    
C34   O24   S    
C16   H8    S    
C20   C28   A    
C21   C29   A    
C15   C23   A    
O11   V2    S    
C33   O22   S    
C23   C31   A    
C10   C25   A    
C24   C32   A    
C39   O34   S    
C11   H3    S    
C12   C20   A    
O9    V1    S    
C14   C29   A    
C13   C21   A    
O15   C7    A    
C40   O36   S    
O7    V2    S    
C35   O26   S    
O3    V4    S    
C37   O30   S    
C13   C30   A    
O5    V1    S    
C36   O28   S    
O17   V1    S    
C24   C40   S    
C10   C18   A    
C38   O32   S    
O19   V3    S    
O22   H9    S    
C18   C26   A    
O20   V4    S    
O34   H15   S    
C22   C30   A    
C16   C24   A    
C36   O27   D    
C11   C28   A    
O26   H11   S    
O10   V2    S    
O30   H13   S    
C14   C22   A    
O12   C4    A    
O8    C5    A    
O13   C5    A    
O4    C1    A    
O9    C1    A    
O6    V2    S    
O18   V2    S    
C11   C19   A    
C12   H4    S    
C19   C27   A    
C13   H5    S    
C20   C36   S    
C15   H7    S    
C7    C25   S    
O1    C4    A    
O2    C3    A    
O13   V3    S    
C19   C35   S    
O14   V4    S    
C22   C38   S    
O7    C6    A    
C9    H1    S    
O14   C6    A    
O20   V2    S    
O24   H10   S    
C23   C39   S    
C1    C31   S    
C2    C32   S    
O5    C8    A    
O10   C2    A    
O6    C7    A    
C4    C30   S    
C34   O23   D    
C14   H6    S    
O4    V3    S    
O28   H12   S    
C8    C26   S    
C33   O21   D    
C39   O33   D    
