data_mof_unit_8211.cif
_audit_creation_date              2012-12-10T17:28:33-0500
_audit_creation_method            fapswitch 2.2
_symmetry_space_group_name_H-M    P1
_symmetry_Int_Tables_number       1
_space_group_crystal_system       triclinic
_cell_length_a                    10.404153
_cell_length_b                    12.129521
_cell_length_c                    12.933897
_cell_angle_alpha                 93.649564
_cell_angle_beta                  88.507984
_cell_angle_gamma                 90.913938
_cell_volume                      1628.19459166

loop_
_atom_site_label
_atom_site_type_symbol
_atom_type_description
_atom_site_fract_x
_atom_site_fract_y
_atom_site_fract_z
_atom_type_partial_charge
C1    C     C_R   0.493391 0.522818 0.700692 0.952680
C2    C     C_R   0.547603 0.553185 0.129820 0.045305
C3    C     C_R   0.488625 0.448282 0.973186 0.037968
C4    C     C_R   0.511401 0.551723 0.026814 0.038004
C5    C     C_R   0.397670 0.944581 0.391692 0.407294
C6    C     C_R   0.602345 0.055419 0.608300 0.407306
C7    C     C_R   0.399835 0.831472 0.407829 0.361885
C8    C     C_R   0.600177 0.168528 0.592162 0.361909
C9    C     C_R   0.553002 0.862357 0.539712 0.583415
C10   C     C_R   0.446998 0.137642 0.460289 0.583395
C11   C     C_R   0.539593 0.979033 0.538019 -0.238094
C12   C     C_R   0.506614 0.477183 0.299308 0.952701
C13   C     C_R   0.460417 0.020966 0.461977 -0.238096
C14   C     C_R   0.741322 0.502892 0.485549 0.909715
C15   C     C_R   0.258678 0.497109 0.514453 0.909696
C16   C     C_R   0.888882 0.314691 0.393998 0.315791
C17   C     C_R   0.111117 0.685313 0.606008 0.315792
C18   C     C_R   0.904045 0.210774 0.432349 0.295365
C19   C     C_R   0.095935 0.789231 0.567670 0.295373
C20   C     C_R   0.985316 0.200844 0.516028 0.352825
C21   C     C_R   0.014678 0.799159 0.483980 0.352816
C22   C     C_R   0.068821 0.288874 0.546464 0.355604
C23   C     C_R   0.518714 0.460652 0.186241 -0.182602
C24   C     C_R   0.931172 0.711131 0.453547 0.355602
C25   C     C_R   0.050233 0.394463 0.508827 -0.119352
C26   C     C_R   0.949762 0.605541 0.491183 -0.119363
C27   C     C_R   0.943487 0.407933 0.447584 -0.138543
C28   C     C_R   0.056515 0.592071 0.552420 -0.138536
C29   C     C_R   0.120114 0.490321 0.542064 -0.003425
C30   C     C_R   0.879887 0.509682 0.457941 -0.003441
C31   C     C_3   0.647276 0.636134 0.169616 -0.648514
C32   C     C_3   0.352747 0.363871 0.830387 -0.648462
C33   C     C_3   0.473569 0.760742 0.035208 -0.612760
C34   C     C_R   0.481301 0.539351 0.813760 -0.182602
C35   C     C_3   0.526419 0.239260 0.964787 -0.612747
C36   C     C_R   0.496905 0.650514 0.975993 0.034829
C37   C     C_R   0.503109 0.349490 0.024007 0.034860
C38   C     C_R   0.494553 0.644253 0.867697 0.422318
C39   C     C_R   0.505452 0.355751 0.132303 0.422303
C40   C     C_R   0.452422 0.446819 0.870180 0.045279
Cl1   Cl    Cl    0.032374 0.912995 0.406753 -0.306948
Cl2   Cl    Cl    0.823489 0.731094 0.354525 -0.519771
Cl3   Cl    Cl    0.500838 0.230129 0.194899 -0.415544
Cl4   Cl    Cl    0.499124 0.769874 0.805103 -0.415548
Cl5   Cl    Cl    0.319353 0.196677 0.397772 -0.420419
Cl6   Cl    Cl    0.680634 0.803316 0.602240 -0.420400
Cl7   Cl    Cl    0.695347 0.259708 0.670728 -0.505516
Cl8   Cl    Cl    0.304669 0.740292 0.329260 -0.505502
Cl9   Cl    Cl    0.967640 0.086997 0.593245 -0.306916
Cl10  Cl    Cl    0.332078 0.982108 0.273940 -0.349402
Cl11  Cl    Cl    0.667936 0.017897 0.726053 -0.349420
Cl12  Cl    Cl    0.794892 0.330716 0.284652 -0.497594
Cl13  Cl    Cl    0.205106 0.669288 0.715351 -0.497573
Cl14  Cl    Cl    0.808787 0.098321 0.384234 -0.390204
Cl15  Cl    Cl    0.191151 0.901679 0.615812 -0.390139
Cl16  Cl    Cl    0.176449 0.268935 0.645530 -0.519754
H1    H     H_    0.721637 0.591468 0.209644 0.269796
H2    H     H_    0.607842 0.196821 0.998385 0.287640
H3    H     H_    0.439094 0.185737 0.968581 0.262247
H4    H     H_    0.555988 0.248897 0.882964 0.259907
H5    H     H_    0.698739 0.676275 0.105446 0.252761
H6    H     H_    0.603621 0.700935 0.223131 0.275760
H7    H     H_    0.278416 0.408536 0.790322 0.269794
H8    H     H_    0.396410 0.299043 0.776903 0.275741
H9    H     H_    0.301243 0.323768 0.894561 0.252751
H10   H     H_    0.392062 0.803105 0.001666 0.287623
H11   H     H_    0.444123 0.751129 0.117054 0.259877
H12   H     H_    0.560831 0.814319 0.031327 0.262292
N1    N     N_R   0.523130 0.207800 0.519340 -0.188788
N2    N     N_R   0.476870 0.792200 0.480660 -0.188787
O1    O     O_R   0.506170 0.421700 0.658830 -0.584982
O2    O     O_R   0.493830 0.578300 0.341170 -0.584979
O3    O     O_R   0.491330 0.609310 0.646410 -0.528972
O4    O     O_R   0.508670 0.390690 0.353590 -0.528971
O5    O     O_R   0.690650 0.406190 0.506220 -0.578460
O6    O     O_R   0.309350 0.593810 0.493780 -0.578458
O7    O     O_R   0.675800 0.593810 0.493800 -0.561288
O8    O     O_R   0.324200 0.406190 0.506200 -0.561304
Zn1   Zn    Zn3+2 0.509910 0.374730 0.508290 1.107974
Zn2   Zn    Zn3+2 0.490090 0.625270 0.491710 1.107978

loop_
_geom_bond_atom_site_label_1
_geom_bond_atom_site_label_2
_ccdc_geom_bond_type
C4    C36   A    
C12   O4    A    
C24   Cl2   S    
C31   H5    S    
C7    N2    A    
O1    Zn1   S    
C12   C23   S    
C8    N1    A    
C1    O1    A    
C35   H2    S    
C34   C40   A    
C28   C29   A    
C35   C37   S    
C24   C26   A    
C15   O8    A    
C33   C36   S    
C35   H3    S    
C14   O7    A    
C22   C25   A    
C1    C34   S    
C6    Cl11  S    
C5    C13   A    
C16   C27   A    
C15   O6    A    
C12   O2    A    
C9    Cl6   S    
C27   C30   A    
C31   H6    S    
C14   C30   S    
C33   H10   S    
C15   C29   S    
C25   C29   A    
N2    Zn2   S    
O6    Zn2   S    
C9    N2    A    
C32   H8    S    
C6    C11   A    
C5    C7    A    
O8    Zn1   S    
C22   Cl16  S    
C39   Cl3   S    
O2    Zn2   S    
C2    C31   S    
C2    C4    A    
C38   Cl4   S    
C20   Cl9   S    
C10   Cl5   S    
C9    C11   A    
C21   Cl1   S    
C20   C22   A    
C3    C40   A    
C26   C30   A    
O4    Zn1   S    
C5    Cl10  S    
N1    Zn1   S    
C3    C4    A    
C17   Cl13  S    
C33   H11   S    
O7    Zn2   S    
C19   Cl15  S    
C19   C21   A    
C34   C38   A    
C17   C28   A    
C16   Cl12  S    
C32   H7    S    
C10   C13   A    
C6    C8    A    
C25   C27   A    
C26   C28   A    
C1    O3    A    
C7    Cl8   S    
C31   H1    S    
C36   C38   A    
C8    Cl7   S    
C37   C39   A    
C14   O5    A    
C11   C13   A    
C23   C39   A    
C17   C19   A    
O3    Zn2   S    
C18   C20   A    
C32   C40   S    
C18   Cl14  S    
C10   N1    A    
C3    C37   A    
C16   C18   A    
C21   C24   A    
C2    C23   A    
C35   H4    S    
O5    Zn1   S    
C33   H12   S    
C32   H9    S    
