data_mof_unit_6657.cif
_audit_creation_date              2012-12-11T17:47:26-0500
_audit_creation_method            fapswitch 2.2
_symmetry_space_group_name_H-M    P1
_symmetry_Int_Tables_number       1
_space_group_crystal_system       triclinic
_cell_length_a                    15.296537
_cell_length_b                    15.256695
_cell_length_c                    15.49673
_cell_angle_alpha                 110.817728
_cell_angle_beta                  110.529718
_cell_angle_gamma                 108.602897
_cell_volume                      2729.04858738

loop_
_atom_site_label
_atom_site_type_symbol
_atom_type_description
_atom_site_fract_x
_atom_site_fract_y
_atom_site_fract_z
_atom_type_partial_charge
C1    C     C_R   0.958032 0.231103 0.042499 -0.104949
C2    C     C_R   0.005388 0.075057 0.089148 0.484472
C3    C     C_R   0.211536 0.079467 0.819821 -0.339329
C4    C     C_R   0.788427 0.920514 0.180137 -0.339300
C5    C     C_R   0.120584 0.045191 0.829215 0.634603
C6    C     C_R   0.879378 0.954778 0.170738 0.634641
C7    C     C_R   0.644933 0.180197 0.147449 -0.228547
C8    C     C_R   0.355144 0.819889 0.852620 -0.228525
C9    C     C_R   0.719618 0.275015 0.249195 -0.130475
C10   C     C_R   0.280496 0.725053 0.750881 -0.130423
C11   C     C_R   0.825809 0.297616 0.306208 -0.122536
C12   C     C_R   0.041942 0.768867 0.957469 -0.104927
C13   C     C_R   0.174286 0.702393 0.693834 -0.122548
C14   C     C_R   0.854105 0.218925 0.264973 0.421994
C15   C     C_R   0.145934 0.781046 0.735029 0.422007
C16   C     C_R   0.314101 0.767483 0.231836 -0.048295
C17   C     C_R   0.685899 0.232519 0.768163 -0.048309
C18   C     C_R   0.780266 0.128646 0.159733 -0.227415
C19   C     C_R   0.219741 0.871349 0.840259 -0.227428
C20   C     C_R   0.676914 0.109702 0.099535 0.498283
C21   C     C_R   0.323113 0.890350 0.900490 0.498310
C22   C     C_R   0.932929 0.414372 0.500924 -0.304889
C23   C     C_R   0.321019 0.799315 0.332423 0.089440
C24   C     C_R   0.067218 0.585613 0.499119 -0.304801
C25   C     C_R   0.025441 0.505320 0.597096 0.093498
C26   C     C_R   0.974700 0.494669 0.402950 0.093446
C27   C     C_R   0.091209 0.594132 0.596536 0.115667
C28   C     C_R   0.908929 0.405860 0.403510 0.115667
C29   C     C_R   0.136229 0.076968 0.932549 -0.089643
C30   C     C_R   0.863730 0.922995 0.067402 -0.089664
C31   C     C_R   0.331014 0.173175 0.014827 0.642762
C32   C     C_R   0.668945 0.826803 0.985131 0.642701
C33   C     C_R   0.135621 0.924391 0.476378 0.397009
C34   C     C_R   0.678983 0.200688 0.667576 0.089433
C35   C     C_R   0.864345 0.075587 0.523544 0.397010
C36   C     C_R   0.218387 0.958217 0.455428 -0.182250
C37   C     C_R   0.781594 0.041769 0.544515 -0.182199
C38   C     C_R   0.317615 0.967449 0.516594 0.014063
C39   C     C_R   0.682370 0.032561 0.483380 0.014032
C40   C     C_R   0.226117 0.412096 0.946156 -0.117316
C41   C     C_R   0.773880 0.587902 0.053837 -0.117321
C42   C     C_R   0.335122 0.949619 0.603162 0.252755
C43   C     C_R   0.664850 0.050405 0.396819 0.252746
C44   C     C_R   0.253532 0.920586 0.625421 -0.206210
C45   C     C_R   0.325736 0.506737 0.003728 0.071672
C46   C     C_R   0.746429 0.079441 0.374546 -0.206165
C47   C     C_R   0.153520 0.905469 0.560881 -0.200043
C48   C     C_R   0.846440 0.094541 0.439061 -0.200244
C49   C     C_R   0.485382 0.088682 0.540754 0.211830
C50   C     C_R   0.514620 0.911326 0.459243 0.211817
C51   C     C_R   0.587520 0.104783 0.564756 -0.043074
C52   C     C_R   0.412481 0.895224 0.435241 -0.043073
C53   C     C_R   0.600875 0.016331 0.515097 -0.027649
C54   C     C_R   0.399124 0.983678 0.484895 -0.027645
C55   C     C_R   0.315531 0.139424 0.911150 -0.331615
C56   C     C_R   0.674260 0.493262 0.996260 0.071662
C57   C     C_R   0.684432 0.860562 0.088810 -0.331630
C58   C     C_R   0.954629 0.965064 0.053166 0.077656
C59   C     C_R   0.045327 0.034892 0.946779 0.077678
C60   C     C_R   0.241103 0.141754 0.024714 -0.285177
C61   C     C_R   0.758854 0.858212 0.975239 -0.285173
C62   C     C_R   0.962381 0.892922 0.973574 -0.280841
C63   C     C_R   0.037573 0.107032 0.026370 -0.280865
C64   C     C_R   0.002182 0.586964 0.300445 0.511115
C65   C     C_R   0.997881 0.413035 0.699588 0.511071
C66   C     C_3   0.459308 0.405071 0.910211 0.264582
C67   C     C_R   0.957557 0.494818 0.305530 -0.071776
C68   C     C_3   0.540686 0.594928 0.089773 0.264582
C69   C     C_3   0.436874 0.496692 0.912285 0.263306
C70   C     C_3   0.563120 0.503306 0.087699 0.263309
C71   C     C_3   0.420752 0.508671 0.006723 -0.055762
C72   C     C_3   0.579243 0.491327 0.993262 -0.055768
C73   C     C_3   0.442241 0.417138 0.005247 -0.357189
C74   C     C_3   0.557754 0.582860 0.994737 -0.357168
C75   C     C_R   0.312083 0.595013 0.030138 0.221205
C76   C     C_R   0.687914 0.404986 0.969855 0.221212
C77   C     C_R   0.919893 0.406339 0.208833 -0.133341
C78   C     C_R   0.042553 0.505178 0.694515 -0.071708
C79   C     C_R   0.080177 0.593658 0.791193 -0.133379
C80   C     C_R   0.218774 0.754630 0.313736 -0.127140
C81   C     C_R   0.781229 0.245370 0.686264 -0.127092
C82   C     C_R   0.049590 0.233703 0.955053 -0.066113
C83   C     C_R   0.950390 0.766277 0.044922 -0.066111
C84   C     C_R   0.024193 0.194677 0.016668 0.109055
C85   C     C_R   0.975773 0.805287 0.983291 0.109060
C86   C     C_R   0.994573 0.924899 0.910799 0.484455
H1    H     H_    0.914137 0.206776 0.078841 0.149579
H2    H     H_    0.194857 0.924194 0.877968 0.191052
H3    H     H_    0.878702 0.347479 0.500244 0.170025
H4    H     H_    0.121439 0.652506 0.499793 0.170024
H5    H     H_    0.392501 0.353592 0.013083 0.185704
H6    H     H_    0.607495 0.646405 0.986901 0.185711
H7    H     H_    0.381500 0.795435 0.221702 0.173702
H8    H     H_    0.618499 0.204569 0.778295 0.173706
H9    H     H_    0.253131 0.165648 0.104569 0.195460
H10   H     H_    0.746823 0.834313 0.895383 0.195460
H11   H     H_    0.088687 0.876025 0.574748 0.169355
H12   H     H_    0.085821 0.793173 0.921106 0.149606
H13   H     H_    0.911262 0.123978 0.425179 0.169376
H14   H     H_    0.202713 0.968529 0.386945 0.177579
H15   H     H_    0.797275 0.031435 0.612985 0.177584
H16   H     H_    0.267160 0.906835 0.691283 0.164953
H17   H     H_    0.732790 0.093202 0.308690 0.164946
H18   H     H_    0.207610 0.329723 0.899425 0.147679
H19   H     H_    0.792385 0.670274 0.100567 0.147693
H20   H     H_    0.870540 0.321847 0.174958 0.143358
H21   H     H_    0.129574 0.678148 0.825088 0.143383
H22   H     H_    0.194969 0.761648 0.372319 0.160322
H23   H     H_    0.201974 0.059365 0.742043 0.210230
H24   H     H_    0.805040 0.238354 0.627683 0.160286
H25   H     H_    0.090210 0.214591 0.913567 0.114623
H26   H     H_    0.909764 0.785387 0.086401 0.114633
H27   H     H_    0.383571 0.160356 0.900944 0.217468
H28   H     H_    0.616395 0.839641 0.099021 0.217471
H29   H     H_    0.485764 0.264731 0.087953 0.329633
H30   H     H_    0.514194 0.735258 0.912010 0.329636
H31   H     H_    0.547203 0.030584 0.957975 0.348587
H32   H     H_    0.452814 0.969532 0.042071 0.348571
H33   H     H_    0.997343 0.294222 0.394774 0.331648
H34   H     H_    0.797992 0.940624 0.257917 0.210227
H35   H     H_    0.002694 0.705675 0.605206 0.331630
H36   H     H_    0.020578 0.947765 0.674185 0.349979
H37   H     H_    0.979389 0.052189 0.325771 0.349989
H38   H     H_    0.924120 0.778158 0.789585 0.341468
H39   H     H_    0.075849 0.221803 0.210361 0.341462
H40   H     H_    0.982743 0.679757 0.404828 0.334078
H41   H     H_    0.017369 0.320232 0.595263 0.334111
H42   H     H_    0.563952 0.164337 0.103369 0.211713
H43   H     H_    0.436138 0.835790 0.896729 0.211731
H44   H     H_    0.695861 0.332391 0.281829 0.208386
H45   H     H_    0.304296 0.667708 0.718279 0.208417
H46   H     H_    0.805111 0.075775 0.121990 0.191037
I1    I     I_    0.976949 0.881446 0.371691 -0.362820
I2    I     I_    0.626285 0.745680 0.239277 -0.321516
I3    I     I_    0.396279 0.739455 0.038328 -0.492771
I4    I     I_    0.603708 0.260545 0.961662 -0.492721
I5    I     I_    0.023001 0.118432 0.628152 -0.362813
I6    I     I_    0.478789 0.956269 0.699412 -0.358859
I7    I     I_    0.521174 0.043755 0.300590 -0.358851
I8    I     I_    0.460387 0.222566 0.567951 -0.248931
I9    I     I_    0.539618 0.777445 0.432045 -0.248950
I10   I     I_    0.333344 0.491587 0.772320 -0.309210
I11   I     I_    0.666645 0.508406 0.227664 -0.309132
I12   I     I_    0.373707 0.254319 0.760706 -0.321524
N1    N     N_R   0.947560 0.293820 0.002910 -0.050612
N2    N     N_R   0.789450 0.443190 0.997090 -0.072872
N3    N     N_R   0.945970 0.443180 0.152110 -0.076934
N4    N     N_R   0.054030 0.556820 0.847890 -0.076938
N5    N     N_R   0.151530 0.706170 0.208880 -0.050137
N6    N     N_R   0.848470 0.293830 0.791120 -0.050136
N7    N     N_R   0.004980 0.293810 0.946140 -0.053239
N8    N     N_R   0.995020 0.706190 0.053860 -0.053236
N9    N     N_R   0.052440 0.706180 0.997090 -0.050613
N10   N     N_R   0.208960 0.706170 0.152110 -0.050609
N11   N     N_R   0.791040 0.293830 0.847890 -0.050611
N12   N     N_R   0.154330 0.443160 0.946140 -0.057519
N13   N     N_R   0.845670 0.556840 0.053860 -0.057515
N14   N     N_R   0.002190 0.556820 0.208880 -0.075441
N15   N     N_R   0.997810 0.443180 0.791120 -0.075450
N16   N     N_R   0.210550 0.556810 0.002910 -0.072875
Ni1   Ni    Ni4+2 0.869690 0.369690 0.000000 0.253373
Ni2   Ni    Ni4+2 0.130310 0.630310 0.000000 0.253354
Ni3   Ni    Ni4+2 0.001390 0.369680 0.869810 0.272725
Ni4   Ni    Ni4+2 0.998610 0.630320 0.130190 0.272725
O1    O     O_3   0.432219 0.238410 0.107677 -0.711017
O2    O     O_3   0.016583 0.148560 0.181471 -0.679813
O3    O     O_3   0.015717 0.686275 0.360972 -0.775337
O4    O     O_3   0.984360 0.313721 0.639093 -0.775318
O5    O     O_3   0.567738 0.761571 0.892283 -0.711051
O6    O     O_3   0.610815 0.024185 0.993419 -0.726954
O7    O     O_3   0.389183 0.975892 0.006596 -0.726927
O8    O     O_3   0.954852 0.231642 0.319495 -0.701482
O9    O     O_3   0.045165 0.768272 0.680474 -0.701494
O10   O     O_3   0.016713 0.978981 0.739764 -0.670077
O11   O     O_3   0.983251 0.020982 0.260187 -0.670049
O12   O     O_3   0.983397 0.851401 0.818487 -0.679850

loop_
_geom_bond_atom_site_label_1
_geom_bond_atom_site_label_2
_ccdc_geom_bond_type
C75   N16   A    
C1    H1    S    
C20   O6    S    
C32   O5    S    
C58   C62   A    
C56   C76   A    
C45   C71   S    
C5    O10   S    
C14   C18   A    
C1    N1    A    
C67   C77   A    
C24   C27   A    
C12   N9    A    
C65   N15   A    
C76   I4    S    
C61   H10   S    
N2    N13   A    
C9    H44   S    
N11   Ni1   S    
C1    C84   A    
C15   C19   A    
N6    Ni3   S    
C62   C86   A    
C65   O4    S    
C70   I11   S    
C41   H19   S    
C12   C85   A    
C26   C67   S    
C11   C28   S    
C77   H20   S    
C19   C21   A    
C24   C26   A    
C32   C61   A    
C38   C42   A    
C64   O3    S    
C11   C14   A    
C75   I3    S    
C66   C69   S    
C42   I6    S    
C6    O11   S    
C68   C74   S    
C81   N6    A    
C33   C36   A    
C74   H6    S    
C69   C71   S    
C10   H45   S    
C18   H46   S    
H31   O6    S    
C66   C72   S    
C31   O1    S    
N12   Ni3   S    
H41   O4    S    
C49   C51   A    
C22   C25   A    
C4    C57   A    
C50   C52   A    
C43   I7    S    
C34   C81   A    
C7    H42   S    
H29   O1    S    
C44   C47   A    
C2    O2    S    
C12   H12   S    
C82   N7    A    
C50   I9    S    
N14   Ni4   S    
H33   O8    S    
N7    Ni3   S    
C76   N2    A    
C22   C28   A    
C86   O12   S    
C80   N5    A    
C42   C44   A    
C32   C57   A    
C35   C48   A    
C26   C28   A    
N2    Ni1   S    
C52   C54   A    
C5    C29   A    
C40   C45   A    
C62   C85   S    
H35   O9    S    
C50   C53   A    
C15   O9    S    
C25   C78   S    
C64   C67   A    
C29   C59   S    
N12   N16   A    
C73   H5    S    
C14   O8    S    
H40   O3    S    
N3    Ni1   S    
C63   C84   S    
C71   C73   S    
C44   H16   S    
C78   C79   A    
C39   C43   A    
C55   H27   S    
C56   C72   S    
C69   I10   S    
H36   O10   S    
C66   C73   S    
C51   C53   A    
N4    N15   A    
N16   Ni2   S    
C31   C60   A    
N5    N10   A    
C60   H9    S    
C41   C56   A    
C40   H18   S    
C40   N12   A    
C38   C54   S    
C29   C60   A    
C70   C73   S    
C8    C21   A    
C34   C51   S    
C79   H21   S    
C69   C74   S    
C36   H14   S    
N5    Ni4   S    
N1    N7    A    
N8    N9    A    
C9    C11   A    
N13   Ni4   S    
N8    Ni4   S    
C41   N13   A    
C72   C74   S    
C83   C85   A    
C19   H2    S    
C16   C23   A    
C82   C84   A    
N6    N11   A    
C13   C15   A    
C16   N10   A    
C23   C80   A    
N15   Ni3   S    
C30   C61   A    
C4    C6    A    
C17   C34   A    
C17   N11   A    
C2    C63   A    
C35   C37   A    
C83   N8    A    
C7    C9    A    
C48   H13   S    
C77   N3    A    
C65   C78   A    
C6    C30   A    
C59   C63   A    
N10   Ni2   S    
C8    C10   A    
C13   C27   S    
C3    C5    A    
C10   C13   A    
C24   H4    S    
H37   O11   S    
C2    C58   A    
C79   N4    A    
H38   O12   S    
C25   C27   A    
C46   H17   S    
C80   H22   S    
C3    C55   A    
C47   H11   S    
N9    Ni2   S    
C45   C75   A    
C16   H7    S    
C82   H25   S    
C68   I2    S    
H39   O2    S    
C59   C86   A    
N4    Ni2   S    
C37   C39   A    
C21   O7    S    
C35   I5    S    
C37   H15   S    
C23   C52   S    
C39   C53   S    
C57   H28   S    
N1    Ni1   S    
H32   O7    S    
C3    H23   S    
C68   C71   S    
C33   C47   A    
C30   C58   S    
C36   C38   A    
C22   H3    S    
H30   O5    S    
C18   C20   A    
C43   C46   A    
C46   C48   A    
C33   I1    S    
C66   I12   S    
C81   H24   S    
C68   C70   S    
C7    C20   A    
C49   I8    S    
C64   N14   A    
C8    H43   S    
C83   H26   S    
C4    H34   S    
C70   C72   S    
C17   H8    S    
C31   C55   A    
N3    N14   A    
C49   C54   A    
