data_mof_unit_49595.cif
_audit_creation_date              2012-12-10T17:33:01-0500
_audit_creation_method            fapswitch 2.2
_symmetry_space_group_name_H-M    P1
_symmetry_Int_Tables_number       1
_space_group_crystal_system       triclinic
_cell_length_a                    12.381338
_cell_length_b                    13.253528
_cell_length_c                    14.081962
_cell_angle_alpha                 94.092471
_cell_angle_beta                  107.025664
_cell_angle_gamma                 117.478052
_cell_volume                      1901.31704929

loop_
_atom_site_label
_atom_site_type_symbol
_atom_type_description
_atom_site_fract_x
_atom_site_fract_y
_atom_site_fract_z
_atom_type_partial_charge
C1    C     C_R   0.653081 0.715642 0.512148 0.770002
C2    C     C_R   0.844200 0.499518 0.924346 0.064292
C3    C     C_R   0.816612 0.544408 0.003106 0.094864
C4    C     C_R   0.937400 0.461827 0.949024 0.083108
C5    C     C_R   0.019106 0.488033 0.052862 0.077058
C6    C     C_R   0.992843 0.536492 0.129730 -0.219779
C7    C     C_R   0.892435 0.561579 0.105405 -0.247282
C8    C     C_R   0.946850 0.393694 0.873295 -0.221199
C9    C     C_R   0.039000 0.358771 0.897964 -0.241689
C10   C     C_R   0.127703 0.393464 0.997960 0.134126
C11   C     C_R   0.120288 0.459662 0.076405 0.085464
C12   C     C_R   0.618455 0.517534 0.687808 0.802302
C13   C     C_R   0.221253 0.358976 0.020148 -0.235461
C14   C     C_R   0.306465 0.384566 0.120779 0.169544
C15   C     C_R   0.213505 0.494087 0.175807 -0.303204
C16   C     C_R   0.127639 0.964196 0.351462 -0.188025
C17   C     C_R   0.245479 0.160793 0.459242 -0.053340
C18   C     C_R   0.745071 0.929672 0.591679 0.152877
C19   C     C_R   0.830728 0.047889 0.599738 -0.134192
C20   C     C_R   0.920266 0.079531 0.551893 -0.258297
C21   C     C_R   0.925608 0.994036 0.491269 0.088960
C22   C     C_R   0.823415 0.876315 0.464699 0.050080
C23   C     C_R   0.344380 0.284695 0.483916 0.799664
C24   C     C_R   0.030312 0.022139 0.456816 0.081666
C25   C     C_R   0.022901 0.936938 0.384493 0.153353
C26   C     C_R   0.911053 0.826007 0.346335 -0.250613
C27   C     C_R   0.811842 0.796261 0.384909 -0.181592
C28   C     C_R   0.145207 0.131412 0.496470 -0.248372
C29   C     C_R   0.238490 0.076193 0.388319 -0.202895
C30   C     C_R   0.738645 0.841900 0.520685 -0.183850
C31   C     C_R   0.247375 0.654596 0.685331 0.058162
C32   C     C_R   0.654436 0.338819 0.364599 0.024796
C33   C     C_R   0.731623 0.304538 0.331866 0.116594
C34   C     C_R   0.378651 0.478040 0.311555 0.799768
C35   C     C_R   0.868125 0.368763 0.381509 -0.224768
C36   C     C_R   0.928543 0.465564 0.465467 -0.033010
C37   C     C_R   0.844496 0.496459 0.495476 0.230331
C38   C     C_R   0.068186 0.528999 0.523453 -0.075856
C39   C     C_R   0.118868 0.615440 0.614967 0.080183
C40   C     C_R   0.038916 0.657654 0.633606 0.080391
C41   C     C_R   0.903706 0.593560 0.578418 -0.183460
C42   C     C_R   0.160326 0.508725 0.496239 0.012015
C43   C     C_R   0.334013 0.637575 0.650523 0.040061
C44   C     C_R   0.683140 0.525754 0.796843 -0.110133
C45   C     C_R   0.302425 0.453576 0.200754 -0.089907
C46   C     C_R   0.714166 0.571115 0.977896 0.158586
C47   C     C_R   0.648287 0.560802 0.873886 -0.190762
C48   C     C_R   0.780745 0.496453 0.822959 -0.266143
Cu1   Cu    Cu3+1 0.416420 0.526630 0.522910 0.918777
Cu2   Cu    Cu3+1 0.583580 0.473370 0.477090 0.911699
H1    H     H_    0.877281 0.596686 0.168765 0.134790
H2    H     H_    0.223175 0.306138 0.958829 0.133741
H3    H     H_    0.316045 0.097671 0.358889 0.145308
H4    H     H_    0.901815 0.760999 0.288594 0.130956
H5    H     H_    0.122671 0.899701 0.295889 0.136280
H6    H     H_    0.983729 0.172376 0.562961 0.143104
H7    H     H_    0.833677 0.118072 0.646495 0.153003
H8    H     H_    0.433795 0.671219 0.701937 0.127861
H9    H     H_    0.218359 0.552670 0.236058 0.160997
H10   H     H_    0.130280 0.447171 0.426523 0.130878
H11   H     H_    0.549545 0.288987 0.327804 0.145737
H12   H     H_    0.924430 0.338777 0.355500 0.134819
H13   H     H_    0.847818 0.623992 0.602451 0.211765
H14   H     H_    0.041473 0.304889 0.837853 0.138788
H15   H     H_    0.571703 0.582229 0.852025 0.158372
H16   H     H_    0.809813 0.475185 0.762942 0.163769
H17   H     H_    0.044161 0.551055 0.210293 0.143750
H18   H     H_    0.879696 0.360766 0.794717 0.143512
N1    N     N_R   0.290690 0.566960 0.557640 -0.193191
N2    N     N_R   0.709100 0.433710 0.442970 -0.213066
O1    O     O_R   0.545970 0.684450 0.528810 -0.582049
O2    O     O_R   0.687130 0.639470 0.490120 -0.594263
O3    O     O_R   0.519670 0.535100 0.660030 -0.590803
O4    O     O_R   0.660830 0.490120 0.621340 -0.593408
O5    O     O_R   0.312870 0.360530 0.509880 -0.576388
O6    O     O_R   0.454030 0.315550 0.471190 -0.584183
O7    O     O_R   0.339170 0.509880 0.378660 -0.580748
O8    O     O_R   0.480330 0.464900 0.339970 -0.587054
H19   H     H_    0.159546 0.196225 0.557032 0.148552
C49   C     C_3   0.663388 0.897462 0.659561 -0.368388
C50   C     C_3   0.698666 0.997064 0.746196 -0.890019
H20   H     H_    0.804188 0.041174 0.795209 0.260051
H21   H     H_    0.674332 0.061667 0.714784 0.253357
H22   H     H_    0.640545 0.960379 0.794734 0.243174
H23   H     H_    0.558667 0.860048 0.610945 0.225139
H24   H     H_    0.675213 0.830178 0.696949 0.202694
H25   H     H_    0.726164 0.710068 0.350680 0.173221
C51   C     C_3   0.095737 0.776947 0.704522 -0.447818
C52   C     C_3   0.056081 0.856893 0.650157 -0.791920
H26   H     H_    0.073202 0.858536 0.577037 0.269575
H27   H     H_    0.951799 0.826472 0.635470 0.246141
H28   H     H_    0.114980 0.947561 0.699461 0.237398
H29   H     H_    0.062613 0.764752 0.770326 0.201931
H30   H     H_    0.204261 0.825681 0.734085 0.215707
C53   C     C_3   0.283740 0.683841 0.800551 -0.455246
C54   C     C_3   0.286069 0.582097 0.843270 -0.831752
H31   H     H_    0.190305 0.500546 0.803512 0.264348
H32   H     H_    0.363088 0.568165 0.831118 0.241724
H33   H     H_    0.304681 0.600530 0.926411 0.258458
H34   H     H_    0.380964 0.765052 0.837281 0.197716
H35   H     H_    0.211913 0.696188 0.823566 0.221571
C55   C     C_3   0.667646 0.198579 0.244332 -0.426508
C56   C     C_3   0.596166 0.085611 0.276180 -0.823915
H36   H     H_    0.665829 0.077818 0.341690 0.266322
H37   H     H_    0.516569 0.084118 0.298451 0.237462
H38   H     H_    0.552192 0.009056 0.211008 0.242636
H39   H     H_    0.597442 0.205427 0.178547 0.197834
H40   H     H_    0.741738 0.194038 0.217627 0.212387
C57   C     C_3   0.387253 0.325202 0.137672 -0.396012
C58   C     C_3   0.318668 0.212472 0.170825 -0.842900
H41   H     H_    0.373075 0.164721 0.176124 0.229125
H42   H     H_    0.312634 0.232681 0.246253 0.252041
H43   H     H_    0.217949 0.154063 0.113678 0.256221
H44   H     H_    0.398432 0.300873 0.065341 0.190619
H45   H     H_    0.488895 0.384601 0.191794 0.213076
C59   C     C_3   0.678561 0.610596 0.062969 -0.420083
C60   C     C_3   0.554191 0.617776 0.029214 -0.871425
H46   H     H_    0.565153 0.686976 0.986513 0.257584
H47   H     H_    0.469624 0.531049 0.982022 0.258443
H48   H     H_    0.535487 0.640973 0.097763 0.250916
H49   H     H_    0.664050 0.547298 0.112335 0.198119
H50   H     H_    0.761331 0.698175 0.110190 0.205273

loop_
_geom_bond_atom_site_label_1
_geom_bond_atom_site_label_2
_ccdc_geom_bond_type
C14   C57   S    
C12   O4    A    
C9    H14   S    
C17   C29   A    
C35   C36   A    
C23   O6    A    
C20   H6    S    
C50   H20   S    
C19   H7    S    
C26   C27   A    
C17   C23   S    
C31   C43   A    
C36   C37   A    
C32   H11   S    
C5    C11   A    
C3    C7    A    
Cu2   O4    S    
C34   O7    A    
C5    C6    A    
C54   H33   S    
Cu2   O8    S    
C59   C60   S    
C18   C19   A    
C28   H19   S    
Cu2   O2    S    
C58   H41   S    
C49   H24   S    
C43   H8    S    
C51   H29   S    
C11   C15   A    
C19   C20   A    
Cu1   O7    S    
C8    C9    A    
C54   H32   S    
Cu1   O5    S    
C55   H40   S    
C18   C30   A    
C13   C14   A    
C52   H27   S    
C9    C10   A    
C44   C47   A    
C4    C8    A    
C43   N1    A    
Cu1   N1    S    
C37   N2    A    
C37   C41   A    
C26   H4    S    
C12   O3    A    
C50   H21   S    
C14   C45   A    
C51   H30   S    
C1    O2    A    
C59   H49   S    
C33   C55   S    
C24   C25   A    
C60   H48   S    
C42   H10   S    
C39   C40   A    
C53   H34   S    
C49   C50   S    
C32   N2    A    
C2    C48   A    
C16   C29   A    
C42   N1    A    
C35   H12   S    
C2    C4    A    
C49   H23   S    
Cu2   O6    S    
C13   H2    S    
C54   H31   S    
C55   H39   S    
C56   H37   S    
C34   C45   S    
C1    O1    A    
C20   C21   A    
C52   H28   S    
C27   H25   S    
C58   H43   S    
C59   H50   S    
C57   H44   S    
C6    H17   S    
C8    H18   S    
C22   C27   A    
Cu1   O3    S    
C15   C45   A    
C50   H22   S    
C16   C25   A    
C46   C47   A    
C40   C41   A    
C22   C30   A    
C17   C28   A    
C15   H9    S    
C24   C28   A    
C23   O5    A    
C4    C5    A    
C10   C13   A    
C38   C42   A    
C6    C7    A    
C3    C46   A    
C46   C59   S    
C32   C33   A    
C40   C51   S    
C60   H47   S    
C2    C3    A    
C25   C26   A    
C16   H5    S    
C7    H1    S    
C12   C44   S    
C60   H46   S    
C34   O8    A    
C38   C39   A    
C29   H3    S    
C31   C53   S    
C36   C38   A    
C1    C30   S    
C33   C35   A    
C31   C39   A    
C56   H38   S    
Cu2   N2    S    
C55   C56   S    
C58   H42   S    
C10   C11   A    
C57   H45   S    
C44   C48   A    
C51   C52   S    
C18   C49   S    
Cu1   Cu2   S    
Cu1   O1    S    
C21   C24   A    
C57   C58   S    
C56   H36   S    
C41   H13   S    
C48   H16   S    
C52   H26   S    
C21   C22   A    
C47   H15   S    
C53   C54   S    
C53   H35   S    
