data_mof_unit_18554.cif
_audit_creation_date              2012-12-10T17:22:58-0500
_audit_creation_method            fapswitch 2.2
_symmetry_space_group_name_H-M    P1
_symmetry_Int_Tables_number       1
_space_group_crystal_system       triclinic
_cell_length_a                    10.162626
_cell_length_b                    10.57443
_cell_length_c                    10.932472
_cell_angle_alpha                 88.05422
_cell_angle_beta                  95.889613
_cell_angle_gamma                 80.587946
_cell_volume                      1151.37104923

loop_
_atom_site_label
_atom_site_type_symbol
_atom_type_description
_atom_site_fract_x
_atom_site_fract_y
_atom_site_fract_z
_atom_type_partial_charge
C1    C     C_R   0.442440 0.511314 0.267530 0.824329
C2    C     C_3   0.502583 0.122960 0.504737 -0.344927
C3    C     C_3   0.592675 0.936894 0.585804 0.201747
C4    C     C_3   0.407057 0.063335 0.413961 0.199918
C5    C     C_2   0.406756 0.511204 0.135086 0.130602
C6    C     C_2   0.593659 0.489721 0.864568 0.131141
C7    C     C_2   0.502567 0.525682 0.061567 0.380193
C8    C     C_2   0.498797 0.473807 0.938580 0.384758
C9    C     C_2   0.074540 0.486287 0.495968 0.063339
C10   C     C_2   0.925395 0.513950 0.503767 0.063715
C11   C     C_3   0.557626 0.021278 0.189093 -0.330629
C12   C     C_R   0.557601 0.488848 0.732388 0.825367
C13   C     C_3   0.416189 0.981976 0.803404 -0.328308
C14   C     C_3   0.840048 0.939318 0.445439 -0.184727
C15   C     C_3   0.158165 0.061564 0.549434 -0.205146
C16   C     C_3   0.424243 0.283757 0.930983 -0.201119
C17   C     C_3   0.580447 0.713909 0.074155 -0.192760
C18   C     C_3   0.830960 0.319971 0.291921 -0.042916
C19   C     C_3   0.169944 0.679625 0.708442 -0.044441
C20   C     C_R   0.501349 0.257523 0.503904 1.017447
C21   C     C_R   0.498649 0.742476 0.496153 1.013401
C22   C     C_3   0.622481 0.021004 0.478671 0.364919
C23   C     C_3   0.377112 0.979030 0.521273 0.359542
C24   C     C_3   0.526426 0.962918 0.387628 0.353134
C25   C     C_3   0.473272 0.037088 0.612314 0.352510
C26   C     C_3   0.497289 0.877051 0.495286 -0.345667
H1    H     H_    0.883726 0.594202 0.555007 0.156702
H2    H     H_    0.876691 0.891914 0.537565 0.209571
H3    H     H_    0.927882 0.965576 0.404492 0.176739
H4    H     H_    0.118457 0.102153 0.455444 0.210456
H5    H     H_    0.200333 0.135338 0.604228 0.186240
H6    H     H_    0.072376 0.037406 0.595223 0.179696
H7    H     H_    0.729141 0.930206 0.721553 0.351800
H8    H     H_    0.265293 0.071717 0.282697 0.343717
H9    H     H_    0.440825 0.267458 0.032811 0.136612
H10   H     H_    0.514721 0.238070 0.889647 0.170832
H11   H     H_    0.338436 0.236878 0.897500 0.222386
H12   H     H_    0.116145 0.406246 0.444437 0.156836
H13   H     H_    0.564499 0.733762 0.972720 0.139687
H14   H     H_    0.667102 0.758385 0.110002 0.224359
H15   H     H_    0.490240 0.758916 0.116286 0.167045
H16   H     H_    0.769195 0.534708 0.843727 0.359299
H17   H     H_    0.229726 0.469427 0.154745 0.359032
H18   H     H_    0.813107 0.409295 0.231461 0.191197
H19   H     H_    0.735940 0.285145 0.303569 0.192147
H20   H     H_    0.893413 0.245077 0.244453 0.124549
H21   H     H_    0.264087 0.715902 0.696165 0.193228
H22   H     H_    0.189470 0.589922 0.768460 0.191857
H23   H     H_    0.608007 0.097922 0.230795 0.188431
H24   H     H_    0.107266 0.753476 0.756867 0.123577
H25   H     H_    0.453815 0.061667 0.149372 0.189416
H26   H     H_    0.614006 0.986426 0.111891 0.161229
H27   H     H_    0.478112 0.886702 0.793495 0.190700
H28   H     H_    0.308290 0.975908 0.782836 0.193740
H29   H     H_    0.433225 0.004477 0.901475 0.152455
H30   H     H_    0.798075 0.870744 0.383832 0.191869
N1    N     N_2   0.157310 0.552180 0.551120 0.058531
N2    N     N_2   0.842690 0.447820 0.448880 0.058489
O1    O     O_R   0.568940 0.489500 0.307530 -0.603979
O2    O     O_3   0.450216 0.081413 0.729537 -0.619649
O3    O     O_3   0.747916 0.052447 0.456119 -0.597998
O4    O     O_3   0.251396 0.948035 0.543441 -0.599873
O5    O     O_3   0.687797 0.865718 0.674234 -0.767090
O6    O     O_3   0.311992 0.135335 0.326052 -0.768739
O7    O     O_3   0.391385 0.415440 0.895943 -0.585600
O8    O     O_3   0.611635 0.581299 0.105022 -0.588135
O9    O     O_3   0.717324 0.516270 0.912185 -0.737432
O10   O     O_3   0.282604 0.486567 0.086647 -0.738045
O11   O     O_3   0.900831 0.336242 0.406334 -0.571477
O12   O     O_R   0.431060 0.510500 0.692470 -0.605247
O13   O     O_3   0.099230 0.663407 0.594399 -0.571096
O14   O     O_R   0.348880 0.522990 0.340350 -0.629241
O15   O     O_R   0.651120 0.477010 0.659650 -0.628984
O16   O     O_R   0.610000 0.297210 0.483560 -0.589771
O17   O     O_R   0.390000 0.702790 0.516440 -0.589632
O18   O     O_R   0.389940 0.330700 0.516390 -0.608023
O19   O     O_R   0.610060 0.669300 0.483610 -0.608058
O20   O     O_3   0.556243 0.916832 0.272588 -0.624294
Zn1   Zn    Zn3+2 0.646930 0.477640 0.478080 1.017456
Zn2   Zn    Zn3+2 0.353070 0.522360 0.521920 1.017060

loop_
_geom_bond_atom_site_label_1
_geom_bond_atom_site_label_2
_ccdc_geom_bond_type
C10   H1    S    
C14   H30   S    
C21   C26   S    
C19   O13   S    
C7    C8    S    
C13   O2    S    
C17   O8    S    
C1    C5    S    
C10   N2    D    
C24   C26   S    
C1    O1    A    
C16   H9    S    
C6    C12   S    
C4    C24   S    
C19   H21   S    
C20   O18   A    
C17   H13   S    
C23   C26   S    
C12   O12   A    
C11   H26   S    
C23   O4    S    
H17   O10   S    
C2    C22   S    
C25   O2    S    
O17   Zn2   S    
C16   H11   S    
C18   O11   S    
C8    O7    S    
C12   O15   A    
N1    Zn2   S    
C5    O10   S    
C18   H20   S    
C13   H27   S    
O19   Zn1   S    
C1    O14   A    
O12   Zn2   S    
C3    C25   S    
O1    Zn1   S    
C5    C7    D    
C4    C23   S    
C19   H22   S    
C6    C8    D    
C14   O3    S    
C2    C20   S    
C17   H14   S    
C2    C4    S    
C11   H23   S    
C11   O20   S    
C18   H18   S    
H7    O5    S    
H8    O6    S    
O15   Zn1   S    
C20   O16   A    
N1    O13   S    
N2    Zn1   S    
C24   O20   S    
C6    O9    S    
O16   Zn1   S    
H16   O9    S    
C22   C24   S    
C14   H3    S    
C18   H19   S    
C15   H4    S    
C13   H28   S    
C9    C10   S    
C4    O6    S    
C3    C26   S    
O18   Zn2   S    
C15   H6    S    
N2    O11   S    
C15   H5    S    
C3    O5    S    
C21   O17   A    
O14   Zn2   S    
C16   H10   S    
C22   O3    S    
C19   H24   S    
C9    H12   S    
C15   O4    S    
C2    C25   S    
C9    N1    D    
C23   C25   S    
C17   H15   S    
C11   H25   S    
C21   O19   A    
C3    C22   S    
C16   O7    S    
C14   H2    S    
C13   H29   S    
C7    O8    S    
