data_mof_unit_40383.cif
_audit_creation_date              2013-03-05T16:06:00-0500
_audit_creation_method            fapswitch 2.2
_symmetry_space_group_name_H-M    P1
_symmetry_Int_Tables_number       1
_space_group_crystal_system       triclinic
_cell_length_a                    10.772224
_cell_length_b                    9.507305
_cell_length_c                    23.55935
_cell_angle_alpha                 90.07171
_cell_angle_beta                  90.140661
_cell_angle_gamma                 90.151987
_cell_volume                      2412.8088986

loop_
_atom_site_label
_atom_site_type_symbol
_atom_site_description
_atom_site_fract_x
_atom_site_fract_y
_atom_site_fract_z
_atom_type_partial_charge
O1    O     O_R   0.319640 0.618740 0.500000 -0.581722
O2    O     O_R   0.680360 0.381260 0.500000 -0.579977
O3    O     O_R   0.680360 0.618740 0.500000 -0.578466
O4    O     O_R   0.319640 0.381260 0.500000 -0.577951
C1    C     C_R   0.262567 0.499762 0.500161 0.832885
C2    C     C_R   0.737415 0.500213 0.499829 0.834229
O5    O     O_R   0.499960 0.618810 0.417880 -0.573838
O6    O     O_R   0.500040 0.381190 0.582120 -0.582446
O7    O     O_R   0.500040 0.618810 0.582120 -0.582360
O8    O     O_R   0.499960 0.381190 0.417880 -0.587131
C3    C     C_R   0.498661 0.499957 0.390821 0.809883
C4    C     C_R   0.501299 0.500147 0.609339 0.809405
Cu1   Cu    Cu3+1 0.500000 0.640660 0.500000 0.944215
Cu2   Cu    Cu3+1 0.500000 0.359340 0.500000 0.951310
C5    C     C_R   0.618372 0.486058 0.881480 0.634249
C6    C     C_R   0.396416 0.441775 0.119209 0.634327
N1    N     N_R   0.509547 0.467693 0.852522 -0.454255
N2    N     N_R   0.503916 0.468351 0.148161 -0.454803
C7    C     C_R   0.399444 0.446105 0.880033 0.644467
C8    C     C_R   0.613755 0.491988 0.120724 0.642888
C9    C     C_R   0.396310 0.435267 0.939834 -0.123637
C10   C     C_R   0.620047 0.483596 0.060900 -0.125759
C11   C     C_R   0.508050 0.459054 0.970348 -0.041806
C12   C     C_R   0.508296 0.459659 0.030380 -0.041198
C13   C     C_R   0.619597 0.483757 0.940906 -0.069155
C14   C     C_R   0.396235 0.437804 0.059799 -0.067925
C15   C     C_R   0.285707 0.405695 0.970285 0.336064
C16   C     C_R   0.732491 0.501850 0.030417 0.338778
C17   C     C_R   0.286619 0.410481 0.029567 -0.154468
C18   C     C_R   0.730316 0.504272 0.971136 -0.151510
O9    O     O_2   0.725037 0.506692 0.852670 -0.490033
O10   O     O_2   0.290054 0.419214 0.148021 -0.487412
O11   O     O_2   0.293777 0.439066 0.849359 -0.448603
O12   O     O_2   0.715019 0.526470 0.151527 -0.447304
H1    H     H_    0.200944 0.388982 0.052008 0.240064
H2    H     H_    0.816972 0.519688 0.948709 0.242657
C19   C     C_R   0.546481 0.362155 0.242142 0.380649
C20   C     C_R   0.495073 0.352444 0.758400 0.386485
C21   C     C_R   0.545749 0.375728 0.301296 -0.321686
C22   C     C_R   0.490630 0.365881 0.699296 -0.312369
H3    H     H_    0.580788 0.289733 0.326799 0.204878
H4    H     H_    0.478939 0.271475 0.674067 0.206868
C23   C     C_R   0.499804 0.497242 0.328039 -0.108168
C24   C     C_R   0.503348 0.497480 0.672417 -0.117526
C25   C     C_R   0.454213 0.609320 0.294269 0.140859
C26   C     C_R   0.519756 0.619695 0.706503 0.126547
C27   C     C_R   0.455656 0.595759 0.235073 -0.120229
C28   C     C_R   0.522429 0.605858 0.765689 -0.124020
H5    H     H_    0.421854 0.680541 0.208538 0.174130
H6    H     H_    0.533574 0.698021 0.792366 0.181307
C29   C     C_R   0.500961 0.474155 0.208969 0.187772
C30   C     C_R   0.510406 0.474478 0.791684 0.186287
C31   C     C_R   0.065570 0.463734 0.449780 0.113202
C32   C     C_R   0.934345 0.535511 0.550297 0.118875
C33   C     C_R   0.935026 0.465412 0.449095 0.121116
C34   C     C_R   0.064907 0.534238 0.550937 0.125164
C35   C     C_R   0.871393 0.500751 0.499523 -0.102612
C36   C     C_R   0.128560 0.499051 0.500491 -0.103262
C37   C     C_R   0.418314 0.074115 0.466876 -0.001428
C38   C     C_R   0.581975 0.925922 0.532957 -0.007816
C39   C     C_R   0.581726 0.074806 0.533101 -0.001857
C40   C     C_R   0.418109 0.925223 0.466991 -0.012146
H7    H     H_    0.353017 0.130003 0.440297 0.123367
H8    H     H_    0.647951 0.870106 0.559152 0.116371
H9    H     H_    0.647091 0.131256 0.559654 0.129082
H10   H     H_    0.352382 0.868827 0.440645 0.125593
N3    N     N_R   0.500000 0.852070 0.500000 -0.161039
N4    N     N_R   0.500000 0.147930 0.500000 -0.163458
N5    N     N_R   0.173063 0.363464 0.942412 0.173187
O13   O     O_R   0.171562 0.249099 0.912004 -0.245916
O14   O     O_R   0.068148 0.419972 0.957224 -0.290951
N6    N     N_R   0.850638 0.512498 0.058288 0.177112
O15   O     O_R   0.892178 0.406329 0.087444 -0.245564
O16   O     O_R   0.926848 0.613218 0.044597 -0.282698
N7    N     N_R   0.593054 0.234757 0.216734 0.147968
O17   O     O_R   0.553702 0.192797 0.167261 -0.318733
O18   O     O_R   0.668454 0.153886 0.244949 -0.325201
N8    N     N_R   0.484811 0.214915 0.783708 0.146864
O19   O     O_R   0.537552 0.187448 0.832173 -0.318220
O20   O     O_R   0.431109 0.112691 0.756154 -0.349170
C41   C     C_3   0.401815 0.742263 0.319550 -0.769048
H11   H     H_    0.325840 0.716311 0.349513 0.214639
H12   H     H_    0.476188 0.801621 0.341877 0.250680
H13   H     H_    0.362654 0.812720 0.286498 0.238144
C42   C     C_3   0.536020 0.764932 0.681907 -0.734545
H14   H     H_    0.549974 0.845702 0.715449 0.254616
H15   H     H_    0.619224 0.767360 0.654285 0.215366
H16   H     H_    0.451998 0.795222 0.657487 0.248534
C43   C     C_3   0.140519 0.426588 0.397112 -0.798916
H17   H     H_    0.197000 0.331346 0.405457 0.228862
H18   H     H_    0.084526 0.404168 0.358776 0.253744
H19   H     H_    0.203457 0.515143 0.386342 0.210055
C44   C     C_3   0.859294 0.571590 0.603069 -0.806952
H20   H     H_    0.802557 0.666707 0.594893 0.222057
H21   H     H_    0.796598 0.482562 0.613707 0.218899
H22   H     H_    0.915260 0.593878 0.641429 0.252113
C45   C     C_3   0.865063 0.432110 0.394531 -0.777045
H23   H     H_    0.763015 0.439858 0.398071 0.214415
H24   H     H_    0.892665 0.507563 0.360882 0.245723
H25   H     H_    0.886132 0.323036 0.380758 0.246131
C46   C     C_3   0.134853 0.567710 0.605483 -0.785281
H26   H     H_    0.236948 0.560595 0.601898 0.216925
H27   H     H_    0.113285 0.676605 0.619331 0.241324
H28   H     H_    0.107645 0.491959 0.639095 0.246286

loop_
_geom_bond_atom_site_label_1
_geom_bond_atom_site_label_2
_geom_bond_distance
_ccdc_geom_bond_type
C44   H20   1.109598 S    
C15   C17   1.397349 A    
O3    C2    1.285026 A    
C41   H13   1.110942 S    
C41   H11   1.109584 S    
C27   H5    1.083874 S    
O2    C2    1.285721 A    
C42   H14   1.110863 S    
O5    C3    1.296722 A    
C46   H26   1.105482 S    
C1    C36   1.443592 S    
O1    C1    1.286024 A    
C7    C9    1.413249 A    
C12   C14   1.408500 A    
C34   C46   1.520963 S    
C28   C30   1.397657 A    
C19   C29   1.409975 A    
N8    O20   1.301607 A    
C5    C13   1.400264 A    
C20   C30   1.408667 A    
C25   C27   1.400541 A    
N5    O14   1.300909 A    
O7    Cu1   1.946072 S    
C6    O10   1.349962 S    
C32   C44   1.523925 S    
C41   H12   1.109862 S    
C38   N3    1.366608 A    
C11   C12   1.414327 A    
C3    C23   1.479376 S    
C43   H18   1.105050 S    
C15   N5    1.434448 S    
C26   C42   1.508097 S    
C8    O12   1.348200 S    
C28   H6    1.083910 S    
C9    C15   1.419911 A    
C46   H27   1.110429 S    
C10   C16   1.420038 A    
Cu1   Cu2   2.674595 S    
C19   N7    1.442198 S    
C2    C35   1.443267 S    
C16   N6    1.433963 S    
N1    C30   1.434884 S    
C45   H24   1.110368 S    
C24   C26   1.422003 A    
N2    C29   1.434025 S    
C45   H23   1.105287 S    
C26   C28   1.400967 A    
C31   C33   1.406433 A    
C6    C14   1.400119 A    
C32   C34   1.406565 A    
C40   H10   1.081218 S    
C42   H15   1.109117 S    
C21   H3    1.083357 S    
C7    O11   1.348269 S    
N8    O19   1.301162 A    
O4    C1    1.284906 A    
C27   C29   1.398460 A    
C20   N8    1.441828 S    
C38   C39   1.415494 A    
N7    O17   1.301093 A    
C37   N4    1.366657 A    
N7    O18   1.301805 A    
C22   H4    1.082790 S    
C22   C24   1.409482 A    
O6    C4    1.299429 A    
C33   C45   1.521092 S    
C43   H19   1.109605 S    
C23   C25   1.418657 A    
C40   N3    1.366716 A    
N6    O16   1.301096 A    
C8    C10   1.413367 A    
C44   H22   1.105113 S    
C33   C35   1.413663 A    
C31   C43   1.523671 S    
C10   C12   1.418402 A    
O1    Cu1   1.953473 S    
C45   H25   1.110381 S    
Cu1   N3    2.009939 S    
C42   H16   1.110113 S    
C13   C18   1.400729 A    
C5    N1    1.365601 A    
C37   C40   1.415561 A    
O6    Cu2   1.945555 S    
C25   C41   1.508118 S    
N6    O15   1.301345 A    
O3    Cu1   1.954572 S    
C21   C23   1.406887 A    
C31   C36   1.412186 A    
C5    O9    1.349958 S    
C46   H28   1.110442 S    
C17   H1    1.083840 S    
C37   H7    1.081592 S    
C18   H2    1.083473 S    
C38   H8    1.080854 S    
C9    C11   1.417988 A    
C19   C21   1.399469 A    
C20   C22   1.399173 A    
C39   N4    1.366657 A    
C44   H21   1.110721 S    
C16   C18   1.396990 A    
N1    C7    1.368125 A    
C34   C36   1.413793 A    
N2    C8    1.367856 A    
C11   C13   1.408251 A    
O4    Cu2   1.954573 S    
N5    O13   1.301393 A    
O2    Cu2   1.953472 S    
O7    C4    1.298462 A    
O8    C3    1.297462 A    
C39   H9    1.081741 S    
O5    Cu1   1.945555 S    
C14   C17   1.401025 A    
C6    N2    1.365371 A    
Cu2   N4    2.009940 S    
C4    C24   1.486445 S    
C43   H17   1.109753 S    
O8    Cu2   1.946072 S    
C32   C35   1.412019 A    
