data_mof_unit_35487.cif
_audit_creation_date              2012-12-10T16:50:08-0500
_audit_creation_method            fapswitch 2.2
_symmetry_space_group_name_H-M    P1
_symmetry_Int_Tables_number       1
_space_group_crystal_system       triclinic
_cell_length_a                    7.831794
_cell_length_b                    8.554654
_cell_length_c                    10.592936
_cell_angle_alpha                 91.673639
_cell_angle_beta                  85.286097
_cell_angle_gamma                 93.588967
_cell_volume                      705.714210527

loop_
_atom_site_label
_atom_site_type_symbol
_atom_type_description
_atom_site_fract_x
_atom_site_fract_y
_atom_site_fract_z
_atom_type_partial_charge
C1    C     C_R   0.545504 0.794457 0.496937 0.917345
C2    C     C_R   0.454531 0.205542 0.503097 0.965986
C3    C     C_R   0.499409 0.502917 0.260876 0.860930
C4    C     C_R   0.420434 0.788663 0.879960 -0.179006
C5    C     C_R   0.377956 0.922220 0.951563 -0.135687
C6    C     C_R   0.374134 0.921101 0.083149 -0.123376
C7    C     C_R   0.412894 0.786455 0.143517 -0.165084
C8    C     C_R   0.455452 0.649803 0.072259 0.092111
C9    C     C_R   0.459165 0.650918 0.939886 0.095248
C10   C     C_R   0.505906 0.514201 0.871434 -0.081644
C11   C     C_R   0.553710 0.381885 0.929435 -0.208493
C12   C     C_R   0.550335 0.380841 0.058515 -0.190806
C13   C     C_R   0.499218 0.512118 0.128720 -0.078294
C14   C     C_2   0.569367 0.958045 0.494909 -0.376228
C15   C     C_2   0.430647 0.041931 0.504698 -0.394003
C16   C     C_R   0.501822 0.504006 0.739140 0.846761
H1    H     H_    0.590075 0.278358 0.874610 0.150095
H2    H     H_    0.987335 0.619385 0.594923 0.168517
H3    H     H_    0.424930 0.795132 0.777927 0.141447
H4    H     H_    0.349077 0.027144 0.904786 0.142352
H5    H     H_    0.342220 0.025135 0.138582 0.151482
H6    H     H_    0.411012 0.791254 0.245643 0.149108
H7    H     H_    0.585396 0.276880 0.104127 0.156011
H8    H     H_    0.700487 0.008879 0.485465 0.201050
H9    H     H_    0.299520 0.991094 0.514017 0.192085
I1    I     I_    0.037043 0.290614 0.334532 -0.257018
N1    N     N_2   0.950330 0.457950 0.466250 0.010887
N2    N     N_2   0.049670 0.542050 0.533750 -0.132222
O1    O     O_R   0.389250 0.738570 0.508280 -0.627505
O2    O     O_R   0.678390 0.711630 0.486650 -0.629023
O3    O     O_R   0.355400 0.513470 0.694050 -0.617568
O4    O     O_R   0.644540 0.486530 0.672420 -0.628304
O5    O     O_R   0.321610 0.288370 0.513350 -0.596789
O6    O     O_R   0.610750 0.261430 0.491720 -0.602870
O7    O     O_R   0.355460 0.513470 0.327580 -0.596093
O8    O     O_R   0.644600 0.486530 0.305950 -0.595060
Zn1   Zn    Zn3+2 0.306930 0.517990 0.514440 0.982083
Zn2   Zn    Zn3+2 0.693070 0.482010 0.485560 0.991576

loop_
_geom_bond_atom_site_label_1
_geom_bond_atom_site_label_2
_ccdc_geom_bond_type
C8    C9    A    
C11   C12   A    
C6    C7    A    
O4    Zn2   S    
C16   O4    A    
C7    H6    S    
C9    C10   A    
C3    C13   S    
C3    O7    A    
C2    O6    A    
O8    Zn2   S    
C7    C8    A    
C5    H4    S    
C10   C16   S    
C16   O3    A    
C2    C15   S    
C4    H3    S    
C12   H7    S    
I1    N1    S    
C8    C13   A    
C3    O8    A    
N2    Zn1   S    
C2    O5    A    
C1    O1    A    
C1    O2    A    
O7    Zn1   S    
C5    C6    A    
C15   H9    S    
C10   C11   A    
N1    Zn2   S    
O1    Zn1   S    
H2    N2    S    
C12   C13   A    
O2    Zn2   S    
C14   H8    S    
N1    N2    D    
C14   C15   D    
C11   H1    S    
C1    C14   S    
C4    C9    A    
O6    Zn2   S    
C6    H5    S    
O5    Zn1   S    
O3    Zn1   S    
C4    C5    A    
