data_mof_unit_22670.cif
_audit_creation_date              2012-12-10T19:24:04-0500
_audit_creation_method            fapswitch 2.2
_symmetry_space_group_name_H-M    P1
_symmetry_Int_Tables_number       1
_space_group_crystal_system       triclinic
_cell_length_a                    10.508231
_cell_length_b                    10.48567
_cell_length_c                    9.773979
_cell_angle_alpha                 90.430736
_cell_angle_beta                  90.222338
_cell_angle_gamma                 89.864516
_cell_volume                      1076.91263275

loop_
_atom_site_label
_atom_site_type_symbol
_atom_type_description
_atom_site_fract_x
_atom_site_fract_y
_atom_site_fract_z
_atom_type_partial_charge
C1    C     C_R   0.500012 0.257548 0.499407 0.903593
C2    C     C_R   0.499988 0.742452 0.500592 0.903594
C3    C     C_3   0.498794 0.960975 0.630774 -0.152848
C4    C     C_3   0.501206 0.039025 0.369226 -0.152849
C5    C     C_3   0.460769 0.391942 0.047563 -0.073588
C6    C     C_3   0.539231 0.608058 0.952437 -0.073588
C7    C     C_3   0.573782 0.411691 0.950901 -0.071333
C8    C     C_3   0.426218 0.588309 0.049099 -0.071332
C9    C     C_3   0.386883 0.480286 0.950886 -0.066612
C10   C     C_3   0.613116 0.519714 0.049114 -0.066613
C11   C     C_R   0.257738 0.501397 0.499673 0.929870
C12   C     C_R   0.742262 0.498603 0.500327 0.929866
C13   C     C_3   0.044987 0.398045 0.568434 -0.256859
C14   C     C_3   0.955013 0.601956 0.431565 -0.256858
C15   C     C_3   0.960842 0.393089 0.439361 0.034459
C16   C     C_3   0.039161 0.606909 0.560638 0.034453
C17   C     C_3   0.877105 0.497511 0.500825 -0.044006
C18   C     C_3   0.122898 0.502486 0.499175 -0.044005
C19   C     C_3   0.959247 0.503793 0.630822 -0.210963
C20   C     C_3   0.040755 0.496207 0.369176 -0.210956
C21   C     C_3   0.604208 0.042720 0.565961 -0.135559
C22   C     C_3   0.395792 0.957280 0.434039 -0.135556
C23   C     C_3   0.605296 0.956635 0.437126 -0.186495
C24   C     C_3   0.394704 0.043365 0.562874 -0.186494
C25   C     C_3   0.499894 0.877610 0.501755 0.026245
C26   C     C_3   0.500106 0.122390 0.498245 0.026244
H1    H     H_    0.085546 0.314900 0.623371 0.153295
H2    H     H_    0.914452 0.685100 0.376629 0.153295
H3    H     H_    0.923084 0.507298 0.737401 0.161396
H4    H     H_    0.076915 0.492704 0.262595 0.161394
H5    H     H_    0.690951 0.916397 0.386345 0.142452
H6    H     H_    0.309049 0.083603 0.613655 0.142452
H7    H     H_    0.688990 0.082495 0.619174 0.156692
H8    H     H_    0.311010 0.917505 0.380826 0.156692
H9    H     H_    0.497652 0.925049 0.737343 0.145840
H10   H     H_    0.502348 0.074951 0.262657 0.145840
H11   H     H_    0.635946 0.337324 0.904748 0.124934
H12   H     H_    0.364054 0.662676 0.095252 0.124934
H13   H     H_    0.427694 0.300871 0.092282 0.125796
H14   H     H_    0.572306 0.699129 0.907718 0.125795
H15   H     H_    0.291475 0.463681 0.905001 0.131306
H16   H     H_    0.708525 0.536319 0.094999 0.131306
N1    N     N_3   0.499910 0.500030 0.863290 -0.076571
N2    N     N_3   0.500090 0.499970 0.136710 -0.076571
O1    O     O_R   0.500010 0.313960 0.616610 -0.637575
O2    O     O_R   0.499990 0.686040 0.383390 -0.637575
O3    O     O_R   0.500060 0.313950 0.383350 -0.604289
O4    O     O_R   0.499940 0.686050 0.616650 -0.604288
O5    O     O_R   0.313930 0.499970 0.616610 -0.602755
O6    O     O_R   0.686070 0.500030 0.383390 -0.602753
O7    O     O_R   0.313980 0.499960 0.383350 -0.632413
O8    O     O_R   0.686020 0.500040 0.616650 -0.632412
Zn1   Zn    Zn3+2 0.499970 0.500010 0.655740 0.959933
Zn2   Zn    Zn3+2 0.500030 0.499990 0.344260 0.959933
C27   C     C_2   0.919567 0.271427 0.371159 0.874328
O9    O     O_2   0.999946 0.197615 0.327020 -0.635606
O10   O     O_R   0.790397 0.242643 0.358327 -0.818617
H17   H     H_    0.775167 0.158394 0.309523 0.335949
C28   C     C_2   0.080433 0.728573 0.628840 0.874319
O11   O     O_2   0.000054 0.802386 0.672977 -0.635603
O12   O     O_R   0.209605 0.757359 0.641673 -0.818614
H18   H     H_    0.224834 0.841609 0.690476 0.335951

loop_
_geom_bond_atom_site_label_1
_geom_bond_atom_site_label_2
_ccdc_geom_bond_type
C12   C17   S    
C6    C10   S    
C7    C10   S    
C4    C26   S    
C21   C26   S    
C4    H10   S    
C11   C18   S    
C5    C9    S    
C11   O5    A    
C14   C16   S    
C7    N1    S    
C8    C9    S    
C10   H16   S    
C4    C22   S    
C12   O6    A    
O12   H18   S    
C13   C15   S    
C3    H9    S    
C27   O9    D    
O7    Zn2   S    
C14   H2    S    
O2    Zn2   S    
C23   C25   S    
C7    H11   S    
O1    Zn1   S    
C28   O11   D    
O6    Zn2   S    
C2    O2    A    
C14   C17   S    
C1    O1    A    
O10   H17   S    
C1    C26   S    
C8    H12   S    
C13   C18   S    
C16   C19   S    
O5    Zn1   S    
C6    C8    S    
C11   O7    A    
C12   O8    A    
C5    N2    S    
C24   C26   S    
C4    C23   S    
C2    C25   S    
C18   C20   S    
C6    N1    S    
C27   O10   S    
C21   C23   S    
O4    Zn1   S    
C22   H8    S    
C22   C24   S    
C3    C21   S    
C9    N1    S    
C13   C19   S    
C10   N2    S    
C23   H5    S    
C19   H3    S    
C17   C19   S    
N2    Zn2   S    
C3    C25   S    
C6    H14   S    
C21   H7    S    
O8    Zn1   S    
C22   C25   S    
C14   C20   S    
C16   C18   S    
C28   O12   S    
C24   H6    S    
C15   C17   S    
C5    H13   S    
C5    C7    S    
C1    O3    A    
C20   H4    S    
C2    O4    A    
C9    H15   S    
N1    Zn1   S    
C13   H1    S    
C8    N2    S    
O3    Zn2   S    
C3    C24   S    
C15   C20   S    
C16   C28   S    
C15   C27   S    
