data_mof_unit_11257.cif
_audit_creation_date              2012-12-10T16:45:23-0500
_audit_creation_method            fapswitch 2.2
_symmetry_space_group_name_H-M    P1
_symmetry_Int_Tables_number       1
_space_group_crystal_system       triclinic
_cell_length_a                    7.530218
_cell_length_b                    8.683097
_cell_length_c                    15.709224
_cell_angle_alpha                 94.311087
_cell_angle_beta                  75.233536
_cell_angle_gamma                 103.318997
_cell_volume                      966.369827481

loop_
_atom_site_label
_atom_site_type_symbol
_atom_type_description
_atom_site_fract_x
_atom_site_fract_y
_atom_site_fract_z
_atom_type_partial_charge
C1    C     C_R   0.544967 0.799826 0.502684 0.851861
C2    C     C_R   0.454912 0.200172 0.497478 0.878011
C3    C     C_R   0.322350 0.373417 0.075706 -0.128683
C4    C     C_R   0.741117 0.566788 0.910185 -0.136648
C5    C     C_R   0.197324 0.312366 0.023911 -0.073610
C6    C     C_R   0.874682 0.595032 0.960275 -0.137307
C7    C     C_2   0.569722 0.968133 0.504036 -0.334140
C8    C     C_2   0.429988 0.031870 0.496356 -0.324964
C9    C     C_R   0.384146 0.484819 0.666201 0.853154
C10   C     C_R   0.616497 0.513461 0.333136 0.881036
C11   C     C_R   0.313871 0.459049 0.761982 -0.286403
C12   C     C_R   0.691109 0.530664 0.235802 -0.210049
C13   C     C_R   0.102613 0.304341 0.886346 0.341946
C14   C     C_R   0.948662 0.589201 0.103258 0.349433
C15   C     C_R   0.146868 0.346478 0.797012 0.219037
C16   C     C_R   0.882626 0.544742 0.192995 0.207980
C17   C     C_R   0.433354 0.530545 0.816952 0.305369
C18   C     C_R   0.569588 0.544367 0.184513 0.293500
C19   C     C_R   0.408626 0.466290 0.899986 0.006942
C20   C     C_R   0.625894 0.529761 0.092223 -0.120753
C21   C     C_R   0.235831 0.360193 0.936568 -0.001632
C22   C     C_R   0.818299 0.572634 0.051484 0.040459
C23   C     C_R   0.547951 0.508045 0.949463 0.139234
C24   C     C_R   0.495209 0.476030 0.040448 0.081197
Cu1   Cu    Cu3+1 0.322120 0.483240 0.490330 1.044769
Cu2   Cu    Cu3+1 0.677880 0.516760 0.509670 1.023933
H1    H     H_    0.067716 0.230669 0.053720 0.199156
H2    H     H_    0.022168 0.631117 0.926982 0.188640
H3    H     H_    0.288181 0.331947 0.142390 0.210500
H4    H     H_    0.794240 0.577484 0.839737 0.216322
H5    H     H_    0.704097 0.039889 0.511294 0.194003
H6    H     H_    0.295589 0.960117 0.489135 0.188989
H7    H     H_    0.003713 0.617523 0.568388 0.234753
H8    H     H_    0.995824 0.381622 0.432093 0.260335
N1    N     N_2   0.945180 0.542040 0.524240 -0.192442
N2    N     N_2   0.054820 0.457960 0.475760 -0.174025
O1    O     O_R   0.384450 0.714270 0.493720 -0.585572
O2    O     O_R   0.615550 0.285730 0.506280 -0.586170
O3    O     O_R   0.684880 0.742590 0.510050 -0.581476
O4    O     O_R   0.315120 0.257410 0.489950 -0.570504
O5    O     O_R   0.265540 0.477900 0.617090 -0.541536
O6    O     O_R   0.734460 0.522100 0.382910 -0.545545
O7    O     O_R   0.565970 0.506210 0.633420 -0.559376
O8    O     O_R   0.434030 0.493790 0.366580 -0.511058
O9    O     O_3   0.413201 0.601646 0.223982 -0.641686
H9    H     H_    0.400221 0.676403 0.182654 0.340349
O10   O     O_3   0.567778 0.668376 0.792822 -0.705629
H10   H     H_    0.532998 0.723632 0.748591 0.333960
Cl1   Cl    Cl    0.033416 0.491154 0.247717 -0.619564
Cl2   Cl    Cl    0.999742 0.247682 0.728761 -0.599549
O11   O     O_3   0.934494 0.204049 0.925578 -0.713393
H11   H     H_    0.839928 0.202841 0.891778 0.374672
O12   O     O_3   0.136586 0.644602 0.064809 -0.726374
H12   H     H_    0.197384 0.694766 0.111644 0.348552

loop_
_geom_bond_atom_site_label_1
_geom_bond_atom_site_label_2
_ccdc_geom_bond_type
O9    H9    S    
C19   C23   A    
C23   C24   A    
C2    O4    A    
C10   O6    A    
C2    O2    A    
C9    O5    A    
O10   H10   S    
C10   O8    A    
C1    O1    A    
C3    C5    A    
C14   C22   A    
C6    C22   A    
C13   C21   A    
C7    C8    D    
C5    H1    S    
O12   H12   S    
C9    C11   S    
C3    C24   A    
C10   C12   S    
C6    H2    S    
Cu1   O8    S    
C17   C19   A    
C20   C22   A    
Cu2   O7    S    
H8    N2    S    
C13   C15   A    
Cu1   O4    S    
C13   O11   S    
H7    N1    S    
C14   C16   A    
Cu2   O3    S    
C9    O7    A    
C7    H5    S    
C1    O3    A    
Cu1   N2    S    
Cu1   O5    S    
O11   H11   S    
C8    H6    S    
C18   O9    S    
C12   C16   A    
Cu2   N1    S    
C14   O12   S    
C5    C21   A    
C16   Cl1   S    
Cu2   O6    S    
C18   C20   A    
C4    C6    A    
C15   Cl2   S    
C12   C18   A    
C3    H3    S    
C4    C23   A    
C20   C24   A    
Cu2   O2    S    
C2    C8    S    
Cu1   O1    S    
Cu1   Cu2   S    
C1    C7    S    
C11   C15   A    
C4    H4    S    
C17   O10   S    
C19   C21   A    
N1    N2    D    
C11   C17   A    
