data_mof_unit_22848.cif
_audit_creation_date              2012-12-10T17:12:01-0500
_audit_creation_method            fapswitch 2.2
_symmetry_space_group_name_H-M    P1
_symmetry_Int_Tables_number       1
_space_group_crystal_system       triclinic
_cell_length_a                    11.677427
_cell_length_b                    13.015678
_cell_length_c                    15.795545
_cell_angle_alpha                 91.912601
_cell_angle_beta                  73.831356
_cell_angle_gamma                 100.220998
_cell_volume                      2268.88172924

loop_
_atom_site_label
_atom_site_type_symbol
_atom_type_description
_atom_site_fract_x
_atom_site_fract_y
_atom_site_fract_z
_atom_type_partial_charge
C1    C     C_R   0.522545 0.700838 0.498084 0.889872
C2    C     C_R   0.477205 0.299274 0.502344 0.868751
C3    C     C_R   0.354407 0.456303 0.087221 0.615297
C4    C     C_R   0.645567 0.532492 0.912153 0.625120
C5    C     C_R   0.274350 0.423482 0.037343 -0.136939
C6    C     C_R   0.725742 0.566010 0.961746 -0.146640
C7    C     C_R   0.463224 0.185761 0.503466 -0.146312
C8    C     C_R   0.535221 0.814415 0.498809 -0.160812
C9    C     C_R   0.603326 0.974784 0.565222 -0.110015
C10   C     C_R   0.391861 0.024583 0.440122 -0.074028
C11   C     C_R   0.602220 0.869179 0.551850 -0.217066
C12   C     C_R   0.394242 0.130347 0.452072 -0.220846
C13   C     C_R   0.476355 0.868042 0.451979 0.371343
C14   C     C_R   0.521256 0.132619 0.551363 0.287316
C15   C     C_R   0.466102 0.972904 0.473547 0.000943
C16   C     C_R   0.530104 0.027062 0.531171 -0.001182
C17   C     C_R   0.940945 0.596162 0.581989 0.543372
C18   C     C_R   0.058985 0.403706 0.418117 0.535577
C19   C     C_R   0.822636 0.587028 0.574096 0.757949
C20   C     C_R   0.177317 0.412880 0.425979 0.751026
C21   C     C_R   0.859245 0.458456 0.464748 0.035737
C22   C     C_R   0.140749 0.541534 0.535258 0.033639
C23   C     C_R   0.426500 0.494294 0.668247 0.858397
C24   C     C_R   0.573410 0.504402 0.331747 0.872307
C25   C     C_R   0.979332 0.465009 0.470281 -0.238261
C26   C     C_R   0.020627 0.534914 0.529777 -0.234241
C27   C     C_R   0.381413 0.480064 0.764248 -0.129040
C28   C     C_R   0.618538 0.516061 0.235569 -0.176192
C29   C     C_R   0.228134 0.403182 0.894531 0.414528
C30   C     C_R   0.771211 0.591300 0.104471 0.459417
C31   C     C_R   0.265440 0.425408 0.803915 -0.206606
C32   C     C_R   0.734152 0.570975 0.195333 -0.173556
C33   C     C_R   0.461212 0.511799 0.814888 -0.073662
C34   C     C_R   0.538994 0.481778 0.185193 -0.122911
C35   C     C_R   0.432356 0.481920 0.903926 0.055128
C36   C     C_R   0.567577 0.509582 0.095681 0.047189
C37   C     C_R   0.311037 0.434147 0.945584 -0.077738
C38   C     C_R   0.688704 0.557661 0.053627 -0.090384
C39   C     C_R   0.519705 0.501733 0.953084 -0.102799
C40   C     C_R   0.480233 0.488203 0.046506 -0.103574
Cu1   Cu    Cu3+1 0.386820 0.492450 0.493500 1.064403
Cu2   Cu    Cu3+1 0.613180 0.507550 0.506500 1.077456
H1    H     H_    0.181057 0.395466 0.072705 0.245423
H2    H     H_    0.819264 0.593026 0.926269 0.240363
H3    H     H_    0.456171 0.430783 0.217574 0.253962
H4    H     H_    0.544513 0.562787 0.783304 0.239975
H5    H     H_    0.794402 0.599621 0.235310 0.214359
H6    H     H_    0.205056 0.398597 0.763654 0.188768
H7    H     H_    0.343555 0.169471 0.419218 0.225291
H8    H     H_    0.652654 0.829664 0.584628 0.226419
H9    H     H_    0.661787 0.013902 0.602953 0.205215
H10   H     H_    0.332240 0.984810 0.403437 0.224021
H11   H     H_    0.173875 0.594817 0.580676 0.210946
H12   H     H_    0.826116 0.405168 0.419334 0.208100
N1    N     N_R   0.216750 0.481110 0.483710 -0.286309
N2    N     N_R   0.783250 0.518890 0.516290 -0.280460
O1    O     O_R   0.419950 0.645670 0.495380 -0.546833
O2    O     O_R   0.580050 0.354330 0.504620 -0.550979
O3    O     O_R   0.611110 0.658410 0.506370 -0.558916
O4    O     O_R   0.388890 0.341590 0.493630 -0.558375
O5    O     O_R   0.350820 0.490050 0.621260 -0.612632
O6    O     O_R   0.649180 0.509950 0.378740 -0.603472
O7    O     O_R   0.541970 0.502800 0.632250 -0.498850
O8    O     O_R   0.458030 0.497200 0.367750 -0.510307
F1    F     F_    0.252717 0.352777 0.375407 -0.610885
F2    F     F_    0.747205 0.647070 0.624722 -0.614053
F3    F     F_    0.977023 0.664521 0.640235 -0.595790
F4    F     F_    0.022861 0.335259 0.359945 -0.597984
S1    S     S_3+6 0.081285 0.329140 0.939519 0.071784
O9    O     O_2   0.092798 0.231053 0.981639 -0.188860
O10   O     O_2   0.006126 0.390498 0.008678 -0.250507
O11   O     O_3   0.010331 0.296157 0.860735 -0.467224
H13   H     H_    0.980761 0.359859 0.849707 0.365700
S2    S     S_3+6 0.916988 0.666707 0.058805 0.049591
O12   O     O_2   0.994489 0.602819 0.993826 -0.259265
O13   O     O_2   0.904159 0.760965 0.012081 -0.229731
O14   O     O_3   0.984585 0.706073 0.138356 -0.502299
H14   H     H_    0.065089 0.745672 0.106905 0.401479
F5    F     F_    0.303629 0.463297 0.175089 -0.627839
F6    F     F_    0.695911 0.523676 0.824393 -0.621442
S3    S     S_3+6 0.569125 0.194705 0.641797 0.058412
O15   O     O_2   0.494057 0.276400 0.679752 -0.255901
O16   O     O_2   0.554099 0.117402 0.714382 -0.231365
O17   O     O_3   0.715313 0.252263 0.606667 -0.476038
H15   H     H_    0.756262 0.201682 0.566441 0.332627
S4    S     S_3+6 0.430269 0.808634 0.360201 0.030539
O18   O     O_2   0.298768 0.759472 0.390534 -0.266761
O19   O     O_2   0.448196 0.888470 0.288893 -0.259487
O20   O     O_3   0.513142 0.717098 0.316515 -0.543473
H16   H     H_    0.485115 0.692194 0.264506 0.391097

loop_
_geom_bond_atom_site_label_1
_geom_bond_atom_site_label_2
_ccdc_geom_bond_type
C19   N2    A    
C8    C13   A    
C5    C37   A    
C1    C8    S    
Cu1   Cu2   S    
C2    C7    S    
C9    H9    S    
Cu1   O5    S    
C3    F5    S    
Cu2   O2    S    
C12   H7    S    
O14   H14   S    
C27   C33   A    
S2    O13   D    
C17   C26   A    
C35   C37   A    
C9    C16   A    
C4    F6    S    
C10   C15   A    
C1    O3    A    
C21   H12   S    
C30   S2    S    
C2    O4    A    
C18   F4    S    
C15   C16   A    
C30   C38   A    
C19   F2    S    
S1    O10   D    
Cu1   N1    S    
Cu2   N2    S    
C7    C14   A    
S2    O14   S    
C13   S4    S    
C6    C38   A    
C23   C27   S    
Cu2   O6    S    
C34   C36   A    
C23   O7    A    
C5    H1    S    
C28   C34   A    
C24   O8    A    
C6    H2    S    
C33   H4    S    
C18   C25   A    
C20   N1    A    
S3    O16   D    
S3    O15   D    
C22   H11   S    
C29   S1    S    
C7    C12   A    
C17   F3    S    
S2    O12   D    
S4    O19   D    
C27   C31   A    
C20   F1    S    
C28   C32   A    
O17   H15   S    
C4    C6    A    
C39   C40   A    
S4    O18   D    
C25   C26   A    
S1    O11   S    
C35   C39   A    
C1    O1    A    
C10   H10   S    
C4    C39   A    
C36   C40   A    
C34   H3    S    
C9    C11   A    
C10   C12   A    
C3    C40   A    
C31   H6    S    
C13   C15   A    
C32   H5    S    
C14   C16   A    
S3    O17   S    
C21   C25   A    
C24   O6    A    
C24   C28   S    
Cu1   O4    S    
O11   H13   S    
C3    C5    A    
S4    O20   S    
Cu2   O3    S    
C21   N2    A    
C2    O2    A    
C22   N1    A    
C14   S3    S    
C36   C38   A    
Cu1   O1    S    
C29   C31   A    
C11   H8    S    
C30   C32   A    
C33   C35   A    
C8    C11   A    
C17   C19   A    
C18   C20   A    
S1    O9    D    
C23   O5    A    
C22   C26   A    
C29   C37   A    
Cu1   O8    S    
O20   H16   S    
Cu2   O7    S    
