data_mof_unit_38449.cif
_audit_creation_date              2012-12-10T17:03:44-0500
_audit_creation_method            fapswitch 2.2
_symmetry_space_group_name_H-M    P1
_symmetry_Int_Tables_number       1
_space_group_crystal_system       triclinic
_cell_length_a                    10.023795
_cell_length_b                    10.579058
_cell_length_c                    13.106004
_cell_angle_alpha                 90.559461
_cell_angle_beta                  71.579209
_cell_angle_gamma                 93.023251
_cell_volume                      1316.70987675

loop_
_atom_site_label
_atom_site_type_symbol
_atom_type_description
_atom_site_fract_x
_atom_site_fract_y
_atom_site_fract_z
_atom_type_partial_charge
C1    C     C_R   0.504713 0.738436 0.498685 1.023744
C2    C     C_R   0.381436 0.430543 0.812708 -0.139818
C3    C     C_2   0.624709 0.071071 0.408405 -0.112114
C4    C     C_R   0.423993 0.479184 0.701407 0.886133
C5    C     C_2   0.504129 0.133945 0.444801 -0.345978
C6    C     C_2   0.613268 0.932601 0.405651 0.557107
C7    C     C_2   0.521644 0.872828 0.491889 -0.456471
C8    C     C_2   0.104226 0.452875 0.422727 -0.090464
C9    C     C_2   0.956486 0.462385 0.419052 -0.074037
C10   C     C_R   0.501726 0.262560 0.486283 0.818159
C11   C     C_R   0.576515 0.496884 0.296422 0.956130
C12   C     C_R   0.443458 0.403780 0.976240 0.095558
C13   C     C_R   0.794590 0.503661 0.004369 -0.027847
C14   C     C_R   0.620245 0.482251 0.180690 -0.088827
C15   C     C_R   0.238512 0.413961 0.871537 -0.146170
C16   C     C_R   0.197387 0.388173 0.981274 -0.063170
C17   C     C_R   0.297746 0.388647 0.034500 -0.157477
C18   C     C_2   0.366399 0.077377 0.438422 0.445179
C19   C     C_2   0.931627 0.562380 0.936469 0.363609
C20   C     C_2   0.768023 0.134497 0.378002 0.532585
C21   C     C_R   0.483596 0.405518 0.863252 0.082111
C22   C     C_R   0.550924 0.426480 0.024686 0.099609
C23   C     C_R   0.693721 0.448917 0.959324 0.081952
C24   C     C_R   0.730359 0.414348 0.851276 -0.260929
C25   C     C_R   0.625776 0.386199 0.805320 -0.160460
C26   C     C_R   0.519163 0.437525 0.135223 -0.222682
C27   C     C_R   0.756776 0.516659 0.116144 -0.127912
H1    H     H_    0.831818 0.557384 0.152919 0.216408
H2    H     H_    0.257389 0.377299 0.120563 0.127981
H3    H     H_    0.086649 0.374854 0.026471 0.152645
H4    H     H_    0.658394 0.352885 0.723357 0.181113
H5    H     H_    0.267901 0.106602 0.494361 0.091641
H6    H     H_    0.835897 0.908870 0.125360 0.393715
H7    H     H_    0.961029 0.561937 0.849567 0.058554
H8    H     H_    0.785901 0.231146 0.348120 0.057463
H9    H     H_    0.461874 0.924688 0.562026 0.102512
H10   H     H_    0.178591 0.407279 0.355689 0.153833
H11   H     H_    0.080529 0.549007 0.558720 0.165025
H12   H     H_    0.936211 0.434442 0.345274 0.149862
H13   H     H_    0.869569 0.516820 0.570943 0.158611
H14   H     H_    0.838843 0.408562 0.801573 0.126470
H15   H     H_    0.415094 0.412656 0.188083 0.150404
H16   H     H_    0.158861 0.422036 0.832689 0.145704
N1    N     N_2   0.148270 0.498670 0.498870 -0.192516
N2    N     N_2   0.852610 0.498640 0.498840 -0.185887
O1    O     O_R   0.386950 0.680940 0.500020 -0.573005
O2    O     O_2   0.809901 0.770063 0.306296 -0.273771
O3    O     O_2   0.600453 0.775417 0.247781 -0.311264
O4    O     O_3   0.789417 0.960209 0.189079 -0.535033
O5    O     O_2   0.012176 0.617386 0.977203 -0.550400
O6    O     O_2   0.868471 0.077633 0.383476 -0.529047
O7    O     O_R   0.613110 0.680900 0.499980 -0.562340
O8    O     O_R   0.330780 0.500000 0.653640 -0.618880
O9    O     O_R   0.556930 0.499960 0.653610 -0.624378
O10   O     O_R   0.386890 0.319100 0.500020 -0.625945
O11   O     O_R   0.613050 0.319060 0.499980 -0.634912
O12   O     O_R   0.443070 0.500040 0.346390 -0.606506
O13   O     O_R   0.669220 0.500000 0.346360 -0.611999
O14   O     O_2   0.361894 0.001917 0.368270 -0.496296
S1    S     S_3+6 0.704766 0.853996 0.285491 0.076006
Zn1   Zn    Zn3+2 0.349000 0.500030 0.500020 0.975506
Zn2   Zn    Zn3+2 0.651000 0.499970 0.499980 0.981208

loop_
_geom_bond_atom_site_label_1
_geom_bond_atom_site_label_2
_ccdc_geom_bond_type
C12   C17   A    
O13   Zn2   S    
C2    C4    S    
C23   C24   A    
C16   H3    S    
H11   N1    S    
C6    C7    D    
C24   H14   S    
C6    S1    S    
N1    Zn1   S    
C11   O13   A    
C17   H2    S    
C7    H9    S    
C18   O14   D    
C9    H12   S    
C3    C6    S    
C2    C21   A    
C15   H16   S    
C5    C10   S    
O7    Zn2   S    
C14   C26   A    
O12   Zn1   S    
C2    C15   A    
C19   O5    D    
C13   C23   A    
C16   C17   A    
O4    S1    S    
C11   O12   A    
C9    N2    D    
O10   Zn1   S    
C11   C14   S    
O3    S1    D    
C20   O6    D    
C10   O10   A    
H13   N2    S    
C14   C27   A    
C1    O7    A    
O11   Zn2   S    
C1    O1    A    
C4    O8    A    
C18   H5    S    
C8    H10   S    
C13   C19   S    
O1    Zn1   S    
H6    O4    S    
C15   C16   A    
C12   C22   A    
N2    Zn2   S    
C3    C20   S    
C10   O11   A    
C24   C25   A    
C26   H15   S    
C25   H4    S    
C22   C26   A    
C27   H1    S    
C21   C25   A    
C22   C23   A    
C13   C27   A    
C5    C18   S    
O9    Zn2   S    
C4    O9    A    
O2    S1    D    
C1    C7    S    
C20   H8    S    
O8    Zn1   S    
C12   C21   A    
C8    N1    D    
C8    C9    S    
C3    C5    D    
C19   H7    S    
