data_mof_unit_56457.cif
_audit_creation_date              2012-12-10T19:12:29-0500
_audit_creation_method            fapswitch 2.2
_symmetry_space_group_name_H-M    P1
_symmetry_Int_Tables_number       1
_space_group_crystal_system       triclinic
_cell_length_a                    15.720883
_cell_length_b                    10.633257
_cell_length_c                    9.702533
_cell_angle_alpha                 89.948625
_cell_angle_beta                  90.048257
_cell_angle_gamma                 89.99275
_cell_volume                      1621.91482176

loop_
_atom_site_label
_atom_site_type_symbol
_atom_type_description
_atom_site_fract_x
_atom_site_fract_y
_atom_site_fract_z
_atom_type_partial_charge
C1    C     C_R   0.499692 0.257615 0.500348 0.844150
C2    C     C_3   0.082841 0.499207 0.499783 0.089554
C3    C     C_3   0.972059 0.557338 0.615631 -0.226954
C4    C     C_3   0.917303 0.501156 0.500143 0.124405
C5    C     C_3   0.028025 0.617229 0.503506 0.456819
C6    C     C_3   0.971788 0.563313 0.388082 -0.266607
C7    C     C_1   0.173687 0.498771 0.499676 0.027080
C8    C     C_1   0.826456 0.501183 0.500255 -0.042653
C9    C     C_3   0.497030 0.071089 0.651987 -0.396737
C10   C     C_3   0.496172 0.928367 0.651631 -0.395517
C11   C     C_3   0.418276 0.071673 0.421503 -0.154270
C12   C     C_R   0.337817 0.499858 0.499899 0.923341
C13   C     C_3   0.579503 0.072385 0.429293 -0.428237
C14   C     C_3   0.497880 0.121211 0.501226 0.132240
C15   C     C_3   0.498567 0.878700 0.500989 0.150651
C16   C     C_3   0.418597 0.926563 0.423467 -0.406316
C17   C     C_3   0.579820 0.928186 0.429062 -0.406741
C18   C     C_3   0.471219 0.375738 0.082375 -0.231460
C19   C     C_3   0.471573 0.373978 0.919858 -0.238422
C20   C     C_3   0.439522 0.595485 0.079859 -0.232936
C21   C     C_3   0.584029 0.526255 0.081319 -0.229890
C22   C     C_3   0.439938 0.593718 0.917336 -0.225144
C23   C     C_R   0.499530 0.742458 0.500187 0.851961
C24   C     C_3   0.584420 0.524524 0.919034 -0.230635
C25   C     C_R   0.662215 0.500255 0.500095 0.914143
C26   C     C_3   0.971318 0.381123 0.496371 -0.108023
C27   C     C_3   0.027741 0.443264 0.384617 -0.193154
C28   C     C_1   0.248956 0.499170 0.499724 -0.151457
C29   C     C_1   0.751145 0.500820 0.500243 -0.211009
C30   C     C_3   0.028010 0.437301 0.611544 -0.206994
H1    H     H_    0.052491 0.396381 0.290654 0.163193
H2    H     H_    0.437747 0.894528 0.704963 0.180934
H3    H     H_    0.360390 0.887925 0.473639 0.190751
H4    H     H_    0.582680 0.107101 0.321097 0.171390
H5    H     H_    0.637121 0.107626 0.483812 0.169523
H6    H     H_    0.637514 0.893133 0.483563 0.165795
H7    H     H_    0.582907 0.893795 0.320810 0.173198
H8    H     H_    0.421911 0.103480 0.312277 0.131305
H9    H     H_    0.418654 0.891424 0.315367 0.163997
H10   H     H_    0.406574 0.351980 0.121027 0.151434
H11   H     H_    0.945715 0.283858 0.493446 0.160552
H12   H     H_    0.514443 0.300740 0.120969 0.145353
H13   H     H_    0.514907 0.298274 0.883574 0.143702
H14   H     H_    0.407062 0.349690 0.880888 0.154033
H15   H     H_    0.373798 0.578577 0.117915 0.163339
H16   H     H_    0.374337 0.576246 0.878924 0.164229
H17   H     H_    0.606719 0.619232 0.118896 0.144830
H18   H     H_    0.630178 0.455274 0.120190 0.154364
H19   H     H_    0.630786 0.452897 0.882559 0.152923
H20   H     H_    0.607170 0.616783 0.879359 0.146783
H21   H     H_    0.457873 0.690665 0.116873 0.145563
H22   H     H_    0.947077 0.615864 0.297588 0.154621
H23   H     H_    0.458425 0.688192 0.878360 0.146370
H24   H     H_    0.947566 0.605065 0.709266 0.167207
H25   H     H_    0.052984 0.385545 0.702391 0.168020
H26   H     H_    0.440288 0.106355 0.708687 0.180386
H27   H     H_    0.554486 0.104325 0.708554 0.171176
H28   H     H_    0.552189 0.893340 0.710726 0.173028
N1    N     N_3   0.498170 0.499750 0.138610 -0.037444
N2    N     N_3   0.498850 0.496730 0.861320 -0.037871
O1    O     O_R   0.499980 0.314910 0.616040 -0.633307
O2    O     O_R   0.500040 0.314680 0.383960 -0.640894
O3    O     O_R   0.376750 0.500100 0.616020 -0.617985
O4    O     O_R   0.376810 0.499870 0.383940 -0.620041
O5    O     O_R   0.499960 0.685320 0.616040 -0.636909
O6    O     O_R   0.500020 0.685090 0.383960 -0.633671
O7    O     O_R   0.623190 0.500130 0.616060 -0.622855
O8    O     O_R   0.623250 0.499900 0.383980 -0.623860
Zn1   Zn    Zn3+2 0.499960 0.500150 0.654960 0.911208
Zn2   Zn    Zn3+2 0.500040 0.499850 0.345040 0.908963
C31   C     C_1   0.337647 0.121175 0.478189 0.170785
N3    N     N_1   0.274589 0.160001 0.522547 -0.174897
S1    S     S_3+6 0.067495 0.774278 0.508313 0.024107
O9    O     O_2   0.122280 0.790650 0.633965 -0.268623
O10   O     O_2   0.119606 0.799925 0.381603 -0.303818
O11   O     O_3   0.985665 0.875803 0.515529 -0.530443
H29   H     H_    0.950907 0.856980 0.432882 0.338367

loop_
_geom_bond_atom_site_label_1
_geom_bond_atom_site_label_2
_ccdc_geom_bond_type
C11   H8    S    
S1    O9    D    
C2    C7    S    
C25   O7    A    
C4    C8    S    
C1    O2    A    
C26   C27   S    
C12   C28   S    
C8    C29   T    
C23   O6    A    
C10   H28   S    
C21   N1    S    
C20   H21   S    
C10   C15   S    
C18   H12   S    
C22   N2    S    
C5    C6    S    
C12   O4    A    
C3    H24   S    
C11   C31   S    
C15   C16   S    
O2    Zn2   S    
C18   C19   S    
C18   H10   S    
O3    Zn1   S    
C2    C27   S    
C17   H6    S    
O4    Zn2   S    
C9    C10   S    
C20   H15   S    
C21   H18   S    
C15   C23   S    
C13   C14   S    
C24   H20   S    
S1    O10   D    
C25   O8    A    
C19   H13   S    
C22   H23   S    
C25   C29   S    
C27   H1    S    
O11   H29   S    
C4    C6    S    
C12   O3    A    
C16   H9    S    
C7    C28   T    
O7    Zn1   S    
C3    C30   S    
C9    C14   S    
C16   H3    S    
C11   C16   S    
C6    C27   S    
C24   N2    S    
C9    H26   S    
C17   H7    S    
C20   N1    S    
C22   H16   S    
C20   C22   S    
C26   C30   S    
S1    O11   S    
C2    C5    S    
C3    C4    S    
C19   H14   S    
O1    Zn1   S    
C24   H19   S    
C15   C17   S    
C3    C5    S    
C1    O1    A    
C4    C26   S    
C13   H5    S    
C19   N2    S    
C30   H25   S    
C13   C17   S    
C2    C30   S    
C23   O5    A    
C31   N3    T    
O6    Zn2   S    
N2    Zn1   S    
O5    Zn1   S    
C11   C14   S    
C9    H27   S    
C5    S1    S    
N1    Zn2   S    
C10   H2    S    
C18   N1    S    
C13   H4    S    
O8    Zn2   S    
C21   C24   S    
C1    C14   S    
C6    H22   S    
C26   H11   S    
C21   H17   S    
