data_mof_unit_10913.cif
_audit_creation_date              2012-12-11T14:07:42-0500
_audit_creation_method            fapswitch 2.2
_symmetry_space_group_name_H-M    P1
_symmetry_Int_Tables_number       1
_space_group_crystal_system       triclinic
_cell_length_a                    19.74782
_cell_length_b                    17.134104
_cell_length_c                    15.369774
_cell_angle_alpha                 90.000038
_cell_angle_beta                  53.466322
_cell_angle_gamma                 89.999921
_cell_volume                      4178.66690327

loop_
_atom_site_label
_atom_site_type_symbol
_atom_type_description
_atom_site_fract_x
_atom_site_fract_y
_atom_site_fract_z
_atom_type_partial_charge
C1    C     C_R   0.374819 0.196761 0.995666 -0.117627
C2    C     C_R   0.706132 0.848564 0.988975 0.159993
C3    C     C_R   0.206132 0.651436 0.988976 0.159993
C4    C     C_R   0.206132 0.348564 0.988975 0.159993
C5    C     C_R   0.611415 0.818000 0.695248 0.016837
C6    C     C_R   0.611414 0.182001 0.695249 0.016862
C7    C     C_R   0.111414 0.317999 0.695249 0.016852
C8    C     C_R   0.111416 0.682000 0.695248 0.016903
C9    C     C_3   0.200498 0.133506 0.520477 -0.403221
C10   C     C_3   0.200511 0.866493 0.520483 -0.403222
C11   C     C_3   0.700501 0.633508 0.520477 -0.403221
C12   C     C_R   0.374819 0.803240 0.995667 -0.117626
C13   C     C_3   0.700509 0.366492 0.520480 -0.403223
C14   C     C_3   0.148983 0.181152 0.625497 -0.397323
C15   C     C_3   0.149004 0.818846 0.625500 -0.397333
C16   C     C_3   0.648986 0.681153 0.625496 -0.397333
C17   C     C_3   0.648993 0.318847 0.625498 -0.397326
C18   C     C_3   0.308781 0.243146 0.440007 -0.405890
C19   C     C_3   0.308783 0.756843 0.439997 -0.405879
C20   C     C_3   0.808782 0.743147 0.440006 -0.405896
C21   C     C_3   0.808782 0.256846 0.440002 -0.405892
C22   C     C_3   0.694019 0.739623 0.413108 -0.440540
C23   C     C_R   0.874819 0.696761 0.995667 -0.117628
C24   C     C_3   0.694014 0.260385 0.413114 -0.440522
C25   C     C_3   0.194017 0.239623 0.413108 -0.440533
C26   C     C_3   0.194009 0.760391 0.413118 -0.440524
C27   C     C_3   0.255174 0.189394 0.421983 0.361041
C28   C     C_3   0.255177 0.810607 0.421985 0.361039
C29   C     C_3   0.755176 0.689395 0.421983 0.361044
C30   C     C_3   0.755177 0.310605 0.421985 0.361035
C31   C     C_3   0.658458 0.769589 0.597966 0.358605
C32   C     C_3   0.658458 0.230411 0.597968 0.358604
C33   C     C_3   0.158457 0.269589 0.597967 0.358600
C34   C     C_R   0.874819 0.303240 0.995667 -0.117626
C35   C     C_3   0.158460 0.730411 0.597967 0.358608
C36   C     C_3   0.751894 0.793078 0.540052 -0.476735
C37   C     C_3   0.751893 0.206916 0.540049 -0.476743
C38   C     C_3   0.251894 0.293076 0.540054 -0.476736
C39   C     C_3   0.251895 0.706910 0.540040 -0.476768
C40   C     C_R   0.353501 0.824622 0.219119 -0.145334
C41   C     C_R   0.353501 0.175378 0.219118 -0.145332
C42   C     C_R   0.853502 0.324620 0.219119 -0.145333
C43   C     C_R   0.853502 0.675379 0.219118 -0.145334
C44   C     C_3   0.633741 0.785474 0.519513 0.167533
C45   C     C_R   0.665088 0.911704 0.058796 -0.155739
C46   C     C_3   0.633738 0.214531 0.519517 0.167534
C47   C     C_3   0.133743 0.285477 0.519510 0.167519
C48   C     C_3   0.133734 0.714536 0.519521 0.167534
C49   C     C_2   0.278711 0.690138 0.969188 -0.205087
C50   C     C_2   0.278712 0.309862 0.969186 -0.205092
C51   C     C_2   0.778711 0.190138 0.969188 -0.205092
C52   C     C_2   0.778712 0.809863 0.969186 -0.205098
C53   C     C_2   0.808201 0.255171 0.909457 -0.207889
C54   C     C_2   0.808202 0.744829 0.909455 -0.207871
C55   C     C_2   0.308201 0.755171 0.909457 -0.207894
C56   C     C_R   0.665087 0.088297 0.058797 -0.155741
C57   C     C_2   0.308202 0.244829 0.909455 -0.207883
C58   C     C_R   0.364880 0.889539 0.897303 -0.157310
C59   C     C_R   0.364880 0.110461 0.897302 -0.157309
C60   C     C_R   0.864880 0.389539 0.897303 -0.157312
C61   C     C_R   0.864880 0.610461 0.897302 -0.157309
C62   C     C_R   0.365485 0.087262 0.316570 -0.135145
C63   C     C_R   0.365488 0.912737 0.316570 -0.135147
C64   C     C_R   0.865486 0.587263 0.316570 -0.135146
C65   C     C_R   0.865488 0.412737 0.316570 -0.135148
C66   C     C_R   0.346573 0.186158 0.934036 0.152135
C67   C     C_R   0.165088 0.411704 0.058796 -0.155739
C68   C     C_R   0.346572 0.813842 0.934037 0.152130
C69   C     C_R   0.846573 0.686158 0.934036 0.152143
C70   C     C_R   0.846572 0.313842 0.934037 0.152135
C71   C     C_R   0.315155 0.853823 0.322533 0.015592
C72   C     C_R   0.315153 0.146177 0.322531 0.015592
C73   C     C_R   0.815156 0.353821 0.322532 0.015592
C74   C     C_R   0.815154 0.646178 0.322532 0.015591
C75   C     C_R   0.657958 0.180027 0.958041 -0.125862
C76   C     C_R   0.657959 0.819973 0.958040 -0.125862
C77   C     C_R   0.157958 0.680027 0.958041 -0.125861
C78   C     C_R   0.165087 0.588297 0.058797 -0.155741
C79   C     C_R   0.157959 0.319973 0.958040 -0.125861
C80   C     C_R   0.601975 0.802131 0.790046 -0.143971
C81   C     C_R   0.601974 0.197869 0.790047 -0.143976
C82   C     C_R   0.101974 0.302131 0.790046 -0.143972
C83   C     C_R   0.101975 0.697868 0.790046 -0.143985
C84   C     C_R   0.594817 0.104155 0.694743 -0.155479
C85   C     C_R   0.594817 0.895845 0.694743 -0.155471
C86   C     C_R   0.094819 0.604154 0.694742 -0.155486
C87   C     C_R   0.094817 0.395845 0.694743 -0.155480
C88   C     C_3   0.540752 0.767186 0.570033 -1.048861
C89   C     C_R   0.706132 0.151436 0.988976 0.159994
C90   C     C_3   0.540748 0.232818 0.570040 -1.048908
C91   C     C_3   0.040753 0.267198 0.570028 -1.048803
C92   C     C_3   0.040743 0.732824 0.570050 -1.048939
H1    H     H_    0.384026 0.251513 0.022055 0.077987
H2    H     H_    0.581788 0.337080 0.675668 0.165172
H3    H     H_    0.081776 0.162924 0.675661 0.165173
H4    H     H_    0.081800 0.837084 0.675685 0.165150
H5    H     H_    0.173508 0.167975 0.672917 0.147546
H6    H     H_    0.173548 0.832009 0.672902 0.147554
H7    H     H_    0.673513 0.667978 0.672915 0.147549
H8    H     H_    0.673523 0.332017 0.672915 0.147546
H9    H     H_    0.350684 0.207628 0.450554 0.165847
H10   H     H_    0.350689 0.792354 0.450544 0.165851
H11   H     H_    0.850683 0.707630 0.450555 0.165849
H12   H     H_    0.384025 0.748487 0.022057 0.077987
H13   H     H_    0.850689 0.292358 0.450545 0.165850
H14   H     H_    0.770760 0.785801 0.595015 0.178795
H15   H     H_    0.770763 0.214191 0.595009 0.178796
H16   H     H_    0.270759 0.285795 0.595018 0.178794
H17   H     H_    0.270769 0.714175 0.594997 0.178799
H18   H     H_    0.729615 0.782621 0.346132 0.123428
H19   H     H_    0.729605 0.217389 0.346133 0.123424
H20   H     H_    0.229613 0.282619 0.346128 0.123426
H21   H     H_    0.229596 0.717396 0.346136 0.123423
H22   H     H_    0.658966 0.701500 0.393730 0.175398
H23   H     H_    0.884026 0.751513 0.022055 0.077987
H24   H     H_    0.658959 0.298514 0.393744 0.175400
H25   H     H_    0.158961 0.201499 0.393735 0.175398
H26   H     H_    0.158952 0.798524 0.393754 0.175403
H27   H     H_    0.643485 0.848301 0.497081 0.098313
H28   H     H_    0.643482 0.151705 0.497080 0.098319
H29   H     H_    0.143493 0.348303 0.497074 0.098313
H30   H     H_    0.143475 0.651711 0.497080 0.098326
H31   H     H_    0.349893 0.281803 0.368604 0.159408
H32   H     H_    0.349890 0.718189 0.368590 0.159406
H33   H     H_    0.849895 0.781803 0.368603 0.159410
H34   H     H_    0.884025 0.248487 0.022056 0.077987
H35   H     H_    0.849889 0.218189 0.368598 0.159408
H36   H     H_    0.336289 0.773724 0.195207 0.091754
H37   H     H_    0.336289 0.226275 0.195204 0.091756
H38   H     H_    0.836291 0.273723 0.195206 0.091755
H39   H     H_    0.836289 0.726276 0.195205 0.091756
H40   H     H_    0.761447 0.855686 0.515779 0.159936
H41   H     H_    0.761442 0.144308 0.515777 0.159935
H42   H     H_    0.261448 0.355685 0.515783 0.159937
H43   H     H_    0.261439 0.644303 0.515761 0.159935
H44   H     H_    0.297099 0.672298 0.020038 0.120201
H45   H     H_    0.157471 0.099025 0.511046 0.159653
H46   H     H_    0.297100 0.327702 0.020036 0.120202
H47   H     H_    0.797099 0.172298 0.020039 0.120202
H48   H     H_    0.797100 0.827703 0.020036 0.120202
H49   H     H_    0.791607 0.271965 0.856355 0.126024
H50   H     H_    0.791608 0.728035 0.856353 0.126021
H51   H     H_    0.291607 0.771965 0.856355 0.126024
H52   H     H_    0.291608 0.228035 0.856354 0.126023
H53   H     H_    0.360309 0.915518 0.836812 0.091900
H54   H     H_    0.360309 0.084482 0.836811 0.091898
H55   H     H_    0.860309 0.415518 0.836812 0.091897
H56   H     H_    0.157480 0.900979 0.511064 0.159664
H57   H     H_    0.860309 0.584482 0.836811 0.091894
H58   H     H_    0.363349 0.061711 0.382050 0.080127
H59   H     H_    0.363356 0.938288 0.382048 0.080128
H60   H     H_    0.863351 0.561711 0.382049 0.080128
H61   H     H_    0.863354 0.438289 0.382048 0.080128
H62   H     H_    0.667803 0.230939 0.910478 0.087559
H63   H     H_    0.667803 0.769061 0.910477 0.087559
H64   H     H_    0.167803 0.730939 0.910478 0.087559
H65   H     H_    0.167803 0.269061 0.910477 0.087559
H66   H     H_    0.604568 0.745989 0.819891 0.084189
H67   H     H_    0.657474 0.599026 0.511046 0.159653
H68   H     H_    0.604567 0.254011 0.819893 0.084190
H69   H     H_    0.104568 0.245989 0.819891 0.084188
H70   H     H_    0.104567 0.754011 0.819892 0.084191
H71   H     H_    0.591405 0.072681 0.636609 0.086856
H72   H     H_    0.591403 0.927320 0.636610 0.086860
H73   H     H_    0.091408 0.572680 0.636606 0.086847
H74   H     H_    0.091404 0.427320 0.636610 0.086860
H75   H     H_    0.682052 0.938297 0.106829 0.087485
H76   H     H_    0.682052 0.061704 0.106830 0.087486
H77   H     H_    0.182052 0.438297 0.106829 0.087485
H78   H     H_    0.657484 0.400981 0.511053 0.159657
H79   H     H_    0.182052 0.561704 0.106830 0.087486
H80   H     H_    0.239123 0.091092 0.528088 0.144095
H81   H     H_    0.239142 0.908905 0.528088 0.144090
H82   H     H_    0.739127 0.591093 0.528086 0.144096
H83   H     H_    0.739140 0.408900 0.528088 0.144096
H84   H     H_    0.498093 0.798527 0.648002 0.255324
H85   H     H_    0.525708 0.786679 0.514383 0.251220
H86   H     H_    0.527791 0.703661 0.584198 0.265918
H87   H     H_    0.498095 0.201446 0.647980 0.255326
H88   H     H_    0.527774 0.296337 0.584256 0.265928
H89   H     H_    0.581780 0.662925 0.675661 0.165185
H90   H     H_    0.525711 0.213359 0.514373 0.251232
H91   H     H_    0.998097 0.298565 0.647979 0.255307
H92   H     H_    0.025720 0.286673 0.514358 0.251213
H93   H     H_    0.027774 0.203675 0.584230 0.265908
H94   H     H_    0.998091 0.701404 0.647946 0.255318
H95   H     H_    0.027754 0.796334 0.584345 0.265940
H96   H     H_    0.025718 0.713424 0.514352 0.251246
N1    N     N_R   0.408680 0.130160 0.995800 -0.041655
N2    N     N_R   0.403730 0.078230 0.935950 -0.038098
N3    N     N_R   0.903730 0.421770 0.935950 -0.038098
N4    N     N_R   0.903730 0.578230 0.935950 -0.038098
N5    N     N_R   0.426630 0.075970 0.212960 -0.035114
N6    N     N_R   0.426630 0.924030 0.212960 -0.035113
N7    N     N_R   0.926630 0.575970 0.212960 -0.035114
N8    N     N_R   0.926630 0.424030 0.212960 -0.035113
N9    N     N_R   0.591320 0.134600 0.004200 -0.048492
N10   N     N_R   0.591320 0.865400 0.004200 -0.048492
N11   N     N_R   0.091320 0.634600 0.004200 -0.048491
N12   N     N_R   0.408680 0.869840 0.995800 -0.041655
N13   N     N_R   0.091320 0.365400 0.004200 -0.048492
N14   N     N_R   0.578320 0.867660 0.846880 -0.034036
N15   N     N_R   0.578320 0.132340 0.846880 -0.034037
N16   N     N_R   0.078320 0.367660 0.846880 -0.034036
N17   N     N_R   0.078320 0.632340 0.846880 -0.034037
N18   N     N_R   0.573370 0.074390 0.787040 -0.031523
N19   N     N_R   0.573370 0.925610 0.787040 -0.031524
N20   N     N_R   0.073370 0.574390 0.787040 -0.031523
N21   N     N_R   0.073370 0.425610 0.787040 -0.031523
N22   N     N_R   0.596270 0.927870 0.064040 -0.040784
N23   N     N_R   0.908680 0.630160 0.995800 -0.041655
N24   N     N_R   0.596270 0.072130 0.064040 -0.040783
N25   N     N_R   0.096270 0.427870 0.064040 -0.040783
N26   N     N_R   0.096270 0.572130 0.064040 -0.040783
N27   N     N_R   0.908680 0.369840 0.995800 -0.041655
N28   N     N_R   0.421680 0.867580 0.153120 -0.037599
N29   N     N_R   0.421680 0.132420 0.153120 -0.037599
N30   N     N_R   0.921680 0.367580 0.153120 -0.037598
N31   N     N_R   0.921680 0.632420 0.153120 -0.037599
N32   N     N_R   0.403730 0.921770 0.935950 -0.038098
Ni1   Ni    Ni4+2 0.500000 0.131190 0.000000 0.205138
Ni2   Ni    Ni4+2 0.500000 0.868810 0.000000 0.205137
Ni3   Ni    Ni4+2 1.000000 0.631190 0.000000 0.205139
Ni4   Ni    Ni4+2 0.000000 0.368810 0.000000 0.205138
Ni5   Ni    Ni4+2 0.488650 1.000000 0.862740 0.208305
Ni6   Ni    Ni4+2 0.988650 0.500000 0.862740 0.208304
Ni7   Ni    Ni4+2 0.511350 0.000000 0.137260 0.208282
Ni8   Ni    Ni4+2 0.011350 0.500000 0.137260 0.208282

loop_
_geom_bond_atom_site_label_1
_geom_bond_atom_site_label_2
_ccdc_geom_bond_type
C6    C32   S    
N8    Ni8   S    
C85   H72   S    
C40   C71   A    
C91   H91   S    
N2    Ni5   S    
C7    C33   S    
N22   Ni7   S    
N14   Ni2   S    
C57   C66   S    
N27   Ni4   S    
C78   N26   A    
C14   C33   S    
N7    N31   A    
C55   C68   S    
C3    C49   S    
C92   H95   S    
C11   H67   S    
C88   H85   S    
C81   N15   A    
C20   H11   S    
C39   H43   S    
C67   H77   S    
C16   C31   S    
N5    N29   A    
C12   C68   A    
C85   N19   A    
N13   N25   A    
C1    N1    A    
N7    Ni8   S    
C64   H60   S    
C19   C39   S    
C22   C29   S    
C37   H15   S    
N9    Ni1   S    
C34   N27   A    
C36   H40   S    
C59   C66   A    
C48   H30   S    
C19   H10   S    
N1    Ni1   S    
C47   H29   S    
C87   H74   S    
C53   C70   S    
C61   C69   A    
N11   N26   A    
C64   N7    A    
C65   C73   A    
N15   Ni1   S    
C21   C37   S    
C59   N2    A    
C23   C69   A    
C65   H61   S    
C25   H20   S    
N20   Ni6   S    
C86   H73   S    
N24   Ni7   S    
C9    H45   S    
N19   Ni5   S    
C80   N14   A    
C90   H90   S    
C79   N13   A    
N16   N21   A    
C61   N4    A    
C60   H55   S    
C21   H35   S    
N26   Ni8   S    
C34   C70   A    
C8    C86   A    
C26   C48   S    
C18   H31   S    
C65   N8    A    
N3    N27   A    
C43   C74   A    
N4    Ni6   S    
C91   H93   S    
C6    C81   A    
C91   H92   S    
N16   Ni4   S    
C87   N21   A    
C40   N28   A    
C24   H19   S    
C47   C91   S    
C35   C48   S    
C15   C35   S    
C52   C54   D    
C39   H17   S    
N28   Ni2   S    
C20   C29   S    
C75   N9    A    
C2    C45   A    
N29   Ni1   S    
C51   H47   S    
N15   N18   A    
C90   H88   S    
C19   H32   S    
C58   H53   S    
C6    C84   A    
C31   C44   S    
C36   H14   S    
C13   C30   S    
C62   N5    A    
C45   N22   A    
C55   H51   S    
N5    Ni7   S    
C4    C79   A    
C92   H94   S    
C86   N20   A    
C15   H4    S    
C30   C73   S    
C16   H89   S    
C29   C74   S    
C44   H27   S    
C22   H18   S    
C49   C55   D    
N31   Ni3   S    
N17   Ni3   S    
C4    C50   S    
C77   H64   S    
C51   C53   D    
C18   H9    S    
C20   C36   S    
N6    Ni7   S    
C35   C39   S    
C9    C14   S    
N4    N23   A    
N25   Ni8   S    
C45   H75   S    
C11   C16   S    
C80   H66   S    
C60   C70   A    
C34   H34   S    
N23   Ni3   S    
N12   Ni2   S    
C56   H76   S    
N18   Ni5   S    
C92   H96   S    
C1    C66   A    
C12   N12   A    
C63   N6    A    
C46   H28   S    
C42   H38   S    
C12   H12   S    
C32   C37   S    
C5    C80   A    
N30   Ni4   S    
C19   C28   S    
C77   N11   A    
C63   H59   S    
C84   H71   S    
C2    C52   S    
C41   C72   A    
C58   C68   A    
C13   H78   S    
C54   H50   S    
C83   H70   S    
C63   C71   A    
C24   H24   S    
N3    Ni6   S    
N14   N19   A    
N12   N32   A    
C37   H41   S    
C82   N16   A    
C28   C71   S    
N11   Ni3   S    
N21   Ni6   S    
C15   H6    S    
C3    C77   A    
C14   H3    S    
C2    C76   A    
C9    C27   S    
C14   H5    S    
N17   N20   A    
C10   C28   S    
C13   H83   S    
C25   C47   S    
C90   H87   S    
C56   C89   A    
C11   H82   S    
C22   C44   S    
C62   H58   S    
C57   H52   S    
N10   Ni2   S    
C50   C57   D    
C32   C46   S    
C49   H44   S    
C43   N31   A    
C18   C27   S    
C26   H26   S    
C8    C83   A    
C42   N30   A    
C25   H25   S    
C79   H65   S    
C4    C67   A    
N8    N30   A    
C50   H46   S    
C16   H7    S    
C56   N24   A    
C46   C90   S    
C82   H69   S    
C25   C27   S    
C21   C30   S    
C76   H63   S    
C26   C28   S    
C33   C38   S    
C88   H84   S    
C13   C17   S    
C10   C15   S    
C24   C46   S    
C43   H39   S    
C18   C38   S    
C26   H21   S    
C5    C85   A    
C20   H33   S    
C83   N17   A    
N9    N24   A    
C76   N10   A    
C51   C89   S    
C41   H37   S    
C75   H62   S    
C54   C69   S    
C23   N23   A    
C10   H81   S    
C60   N3    A    
C33   C47   S    
C78   H79   S    
C42   C73   A    
N32   Ni5   S    
C53   H49   S    
C38   H42   S    
C38   H16   S    
N1    N2    A    
N10   N22   A    
C17   H8    S    
C24   C30   S    
C62   C72   A    
C67   N25   A    
C75   C89   A    
C23   H23   S    
C52   H48   S    
C59   H54   S    
C84   N18   A    
C22   H22   S    
C7    C82   A    
C7    C87   A    
C11   C29   S    
C1    H1    S    
C48   C92   S    
C81   H68   S    
C17   C32   S    
C64   C74   A    
C31   C36   S    
C9    H80   S    
C17   H2    S    
N13   Ni4   S    
C44   C88   S    
C3    C78   A    
C61   H57   S    
C88   H86   S    
C8    C35   S    
C58   N32   A    
C21   H13   S    
C27   C72   S    
N6    N28   A    
C10   H56   S    
C41   N29   A    
C5    C31   S    
C40   H36   S    
