data_mof_unit_6343.cif
_audit_creation_date              2012-12-10T19:19:44-0500
_audit_creation_method            fapswitch 2.2
_symmetry_space_group_name_H-M    P1
_symmetry_Int_Tables_number       1
_space_group_crystal_system       triclinic
_cell_length_a                    24.473751
_cell_length_b                    24.47121
_cell_length_c                    39.66233
_cell_angle_alpha                 90.060556
_cell_angle_beta                  89.888695
_cell_angle_gamma                 89.960614
_cell_volume                      23753.7969341

loop_
_atom_site_label
_atom_site_type_symbol
_atom_type_description
_atom_site_fract_x
_atom_site_fract_y
_atom_site_fract_z
_atom_type_partial_charge
C1    C     C_R   0.268620 0.224667 0.247040 -0.115108
C2    C     C_R   0.733116 0.773914 0.751971 -0.103226
C3    C     C_R   0.771338 0.271929 0.250659 -0.138030
C4    C     C_R   0.233769 0.725304 0.747093 -0.123935
C5    C     C_R   0.732604 0.776930 0.248718 -0.102803
C6    C     C_R   0.268842 0.227182 0.751841 -0.165960
C7    C     C_R   0.227239 0.729322 0.248674 -0.141888
C8    C     C_R   0.766159 0.274474 0.746011 -0.118180
C9    C     C_R   0.276116 0.767945 0.747949 -0.121203
C10   C     C_R   0.728846 0.229530 0.250844 -0.137503
C11   C     C_R   0.775698 0.731621 0.751313 -0.111864
C12   C     C_R   0.225818 0.266752 0.246188 -0.115792
C13   C     C_R   0.724387 0.231266 0.747029 -0.108479
C14   C     C_R   0.269609 0.771862 0.248284 -0.152682
C15   C     C_R   0.226312 0.269565 0.751505 -0.142246
C16   C     C_R   0.774880 0.734266 0.247878 -0.116904
C17   C     C_R   0.333841 0.171302 0.279191 0.279250
C18   C     C_R   0.698982 0.861629 0.732651 0.259768
C19   C     C_R   0.839997 0.324823 0.280405 0.257063
C20   C     C_R   0.146016 0.692331 0.727000 0.272524
C21   C     C_R   0.661684 0.826026 0.279342 0.257283
C22   C     C_R   0.300203 0.137234 0.734906 0.293922
C23   C     C_R   0.160567 0.675360 0.279532 0.257004
C24   C     C_R   0.853044 0.308746 0.725407 0.290865
C25   C     C_R   0.334982 0.831269 0.718100 0.263283
C26   C     C_R   0.699450 0.137568 0.265108 0.260805
C27   C     C_R   0.832424 0.667792 0.719787 0.262219
C28   C     C_R   0.141554 0.303390 0.269227 0.292268
C29   C     C_R   0.657589 0.174371 0.718229 0.251484
C30   C     C_R   0.301076 0.861500 0.265791 0.268771
C31   C     C_R   0.159028 0.322757 0.720757 0.259116
C32   C     C_R   0.858901 0.696579 0.270303 0.290402
C33   C     C_R   0.834275 0.668663 0.781518 0.265605
C34   C     C_R   0.195184 0.356937 0.228994 0.273932
C35   C     C_R   0.331924 0.832123 0.779770 0.266680
C36   C     C_R   0.637902 0.199379 0.235123 0.260794
C37   C     C_R   0.174540 0.339837 0.780731 0.261190
C38   C     C_R   0.804985 0.644168 0.229723 0.274926
C39   C     C_R   0.672570 0.163959 0.778851 0.257005
C40   C     C_R   0.359866 0.802639 0.231485 0.286855
C41   C     C_R   0.825119 0.339260 0.220093 0.262090
C42   C     C_R   0.196751 0.640994 0.769525 0.286773
C43   C     C_R   0.325777 0.157907 0.218295 0.253314
C44   C     C_R   0.644272 0.805648 0.771031 0.268898
C45   C     C_R   0.172880 0.661664 0.218912 0.262437
C46   C     C_R   0.801946 0.359909 0.768090 0.263225
C47   C     C_R   0.676345 0.843335 0.219292 0.248612
C48   C     C_R   0.359555 0.197334 0.767941 0.293048
C49   C     C_R   0.351226 0.145748 0.249176 -0.354944
C50   C     C_R   0.649991 0.853402 0.751145 -0.367755
C51   C     C_R   0.852694 0.352409 0.250171 -0.359216
C52   C     C_R   0.149651 0.646901 0.748997 -0.389136
C53   C     C_R   0.647955 0.853652 0.249476 -0.331864
C54   C     C_R   0.351048 0.147032 0.750939 -0.421615
C55   C     C_R   0.146787 0.647990 0.249452 -0.361884
C56   C     C_R   0.849364 0.353938 0.747816 -0.383822
C57   C     C_R   0.353155 0.852341 0.749249 -0.360091
C58   C     C_R   0.648094 0.147884 0.250025 -0.376886
C59   C     C_R   0.852929 0.647500 0.750460 -0.355868
C60   C     C_R   0.148252 0.351508 0.249713 -0.386879
C61   C     C_R   0.646039 0.148192 0.748983 -0.337907
C62   C     C_R   0.351368 0.852546 0.249011 -0.400606
C63   C     C_R   0.146843 0.351933 0.750494 -0.368313
C64   C     C_R   0.851975 0.648874 0.250299 -0.385470
C65   C     C_R   0.969604 0.539654 0.431315 0.351833
C66   C     C_R   0.036457 0.532940 0.568964 0.354113
C67   C     C_R   0.454358 0.981459 0.431380 0.354657
C68   C     C_R   0.541751 0.975102 0.568376 0.337512
C69   C     C_R   0.029234 0.459893 0.431250 0.352369
C70   C     C_R   0.960363 0.468170 0.569273 0.359599
C71   C     C_R   0.541134 0.030113 0.431096 0.324297
C72   C     C_R   0.453930 0.022163 0.569267 0.371269
C73   C     C_R   0.531328 0.962326 0.931088 0.353844
C74   C     C_R   0.468566 0.960074 0.068880 0.344481
C75   C     C_R   0.956434 0.477551 0.931041 0.355281
C76   C     C_R   0.047261 0.485750 0.068460 0.350319
C77   C     C_R   0.466188 0.038070 0.931030 0.346490
C78   C     C_R   0.528896 0.039415 0.068491 0.343589
C79   C     C_R   0.042808 0.526902 0.930665 0.359691
C80   C     C_R   0.952930 0.516926 0.068825 0.350582
C81   C     C_R   0.966775 0.537304 0.395904 0.344503
C82   C     C_R   0.037676 0.531720 0.604314 0.396313
C83   C     C_R   0.457415 0.975756 0.396126 0.346086
C84   C     C_R   0.540992 0.972594 0.603698 0.399976
C85   C     C_R   0.032648 0.462550 0.395852 0.342934
C86   C     C_R   0.960105 0.469083 0.604644 0.390981
C87   C     C_R   0.540563 0.030793 0.395685 0.360288
C88   C     C_R   0.456978 0.026270 0.604557 0.343118
C89   C     C_R   0.532991 0.963608 0.895780 0.397649
C90   C     C_R   0.466969 0.961715 0.104351 0.352149
C91   C     C_R   0.959576 0.471914 0.895824 0.343144
C92   C     C_R   0.044980 0.479294 0.103666 0.350063
C93   C     C_R   0.465880 0.037523 0.895659 0.395863
C94   C     C_R   0.531142 0.038165 0.103954 0.352787
C95   C     C_R   0.039492 0.531051 0.895356 0.342295
C96   C     C_R   0.955406 0.522560 0.104061 0.350308
C97   C     C_R   0.999873 0.500021 0.378023 -0.361911
C98   C     C_R   0.999354 0.500058 0.622206 -0.391925
C99   C     C_R   0.499584 0.001981 0.378040 -0.360386
C100  C     C_R   0.499561 0.999801 0.622003 -0.381742
C101  C     C_R   0.499504 0.000394 0.877901 -0.396831
C102  C     C_R   0.499355 0.999919 0.121983 -0.355464
C103  C     C_R   0.999793 0.500776 0.877791 -0.364000
C104  C     C_R   0.000156 0.500594 0.121866 -0.366917
C105  C     C_R   0.499949 0.000210 0.340907 0.913022
C106  C     C_R   0.499997 0.000142 0.659115 0.909986
C107  C     C_R   0.000002 0.500019 0.340893 0.935022
C108  C     C_R   0.999839 0.499990 0.659196 0.920365
C109  C     C_R   0.999937 0.500058 0.840816 0.937963
C110  C     C_R   0.000057 0.500077 0.159059 0.920441
C111  C     C_R   0.499849 0.000093 0.840846 0.898469
C112  C     C_R   0.499846 0.999976 0.159108 0.910021
C113  C     C_R   0.605391 0.105227 0.249935 0.929954
C114  C     C_R   0.394916 0.894991 0.749939 0.973081
C115  C     C_R   0.894302 0.605244 0.250311 0.904883
C116  C     C_R   0.105062 0.394819 0.750034 0.953959
C117  C     C_R   0.394568 0.894731 0.249855 0.922034
C118  C     C_R   0.604981 0.105054 0.749956 0.989130
C119  C     C_R   0.105751 0.394852 0.250218 0.905911
C120  C     C_R   0.894817 0.604941 0.749993 0.971129
C121  C     C_R   0.605791 0.894932 0.750256 0.917061
C122  C     C_R   0.394844 0.104973 0.250043 0.979359
C123  C     C_R   0.894079 0.394983 0.749574 0.908439
C124  C     C_R   0.104995 0.605231 0.249895 0.962189
C125  C     C_R   0.394495 0.105126 0.750195 0.918537
C126  C     C_R   0.604927 0.894908 0.250056 0.990674
C127  C     C_R   0.105583 0.605253 0.749878 0.908815
C128  C     C_R   0.894948 0.394821 0.250003 0.958144
C129  C     C_R   0.999272 0.499704 0.448795 -0.243972
C130  C     C_R   0.998479 0.500315 0.551436 -0.279024
C131  C     C_R   0.497658 0.006135 0.448735 -0.243363
C132  C     C_R   0.498298 0.000499 0.551250 -0.265276
C133  C     C_R   0.498325 0.999903 0.948704 -0.278961
C134  C     C_R   0.498555 0.999662 0.051255 -0.238327
C135  C     C_R   0.999811 0.502176 0.948413 -0.240819
C136  C     C_R   0.000052 0.501559 0.051059 -0.243377
C137  C     C_1   0.998944 0.499640 0.484979 0.090511
C138  C     C_1   0.998671 0.499874 0.515254 0.053562
C139  C     C_1   0.498111 0.005501 0.484903 0.103342
C140  C     C_1   0.498422 0.003690 0.515139 0.099097
C141  C     C_1   0.498074 0.999700 0.984850 0.053545
C142  C     C_1   0.498174 0.999582 0.015104 0.092629
C143  C     C_1   0.999982 0.502223 0.984600 0.119168
C144  C     C_1   0.000000 0.501999 0.014871 0.117075
C145  C     C_R   0.294987 0.213201 0.277727 0.433016
C146  C     C_R   0.741942 0.823663 0.735435 0.418632
C147  C     C_R   0.796867 0.287226 0.281017 0.422972
C148  C     C_R   0.185747 0.733621 0.728400 0.398582
C149  C     C_R   0.703462 0.786712 0.278834 0.421506
C150  C     C_R   0.257919 0.175243 0.738214 0.438881
C151  C     C_R   0.203543 0.713106 0.279502 0.426086
C152  C     C_R   0.813567 0.267317 0.726542 0.413667
C153  C     C_R   0.300237 0.785843 0.717726 0.452061
C154  C     C_R   0.740813 0.177098 0.263309 0.416222
C155  C     C_R   0.791314 0.707912 0.720384 0.413953
C156  C     C_R   0.178001 0.259436 0.265173 0.428250
C157  C     C_R   0.695487 0.217497 0.717557 0.441641
C158  C     C_R   0.258845 0.823241 0.262726 0.415318
C159  C     C_R   0.201547 0.284458 0.720796 0.427083
C160  C     C_R   0.822558 0.740775 0.266912 0.427876
C161  C     C_R   0.799256 0.714086 0.781693 0.448458
C162  C     C_R   0.234729 0.315354 0.228288 0.414791
C163  C     C_R   0.290654 0.792229 0.778926 0.419045
C164  C     C_R   0.676692 0.241200 0.237914 0.417529
C165  C     C_R   0.211118 0.295887 0.781728 0.427137
C166  C     C_R   0.765749 0.686095 0.229469 0.411850
C167  C     C_R   0.713164 0.204314 0.777685 0.427809
C168  C     C_R   0.320989 0.760968 0.233797 0.433397
C169  C     C_R   0.786794 0.296643 0.220022 0.429885
C170  C     C_R   0.240755 0.677246 0.765808 0.434696
C171  C     C_R   0.282571 0.195820 0.217572 0.439195
C172  C     C_R   0.683931 0.764292 0.769215 0.396045
C173  C     C_R   0.210383 0.704958 0.218231 0.432702
C174  C     C_R   0.758538 0.322314 0.764894 0.410952
C175  C     C_R   0.720142 0.806215 0.219226 0.441833
C176  C     C_R   0.320607 0.238823 0.765426 0.432567
O1    O     O_3   0.500000 0.000000 0.250000 -0.511724
O2    O     O_3   0.500000 0.000000 0.750000 -0.509359
O3    O     O_3   0.000000 0.500000 0.250000 -0.514078
O4    O     O_3   0.000000 0.500000 0.750000 -0.510831
O5    O     O_R   0.454490 0.000000 0.324820 -0.623305
O6    O     O_R   0.545510 0.000000 0.675180 -0.623388
O7    O     O_R   0.000000 0.454490 0.324820 -0.635551
O8    O     O_R   1.000000 0.545510 0.675180 -0.638621
O9    O     O_R   0.545510 0.000000 0.324820 -0.619487
O10   O     O_R   0.454490 0.000000 0.675180 -0.621949
O11   O     O_R   0.000000 0.545510 0.324820 -0.636954
O12   O     O_R   0.000000 0.454490 0.675180 -0.642636
O13   O     O_R   0.954490 0.500000 0.824820 -0.622810
O14   O     O_R   0.045510 0.500000 0.175180 -0.612671
O15   O     O_R   0.500000 0.954490 0.824820 -0.633768
O16   O     O_R   0.500000 0.045510 0.175180 -0.618445
O17   O     O_R   0.045510 0.500000 0.824820 -0.633356
O18   O     O_R   0.954490 0.500000 0.175180 -0.611855
O19   O     O_R   0.500000 0.045510 0.824820 -0.628165
O20   O     O_R   0.500000 0.954490 0.175180 -0.627573
O21   O     O_R   0.609450 0.064000 0.269610 -0.615931
O22   O     O_R   0.390550 0.936000 0.730390 -0.657965
O23   O     O_R   0.936000 0.609450 0.269610 -0.619591
O24   O     O_R   0.064000 0.390550 0.730390 -0.635338
O25   O     O_R   0.390550 0.936000 0.269610 -0.607113
O26   O     O_R   0.609450 0.064000 0.730390 -0.651653
O27   O     O_R   0.064000 0.390550 0.269610 -0.619921
O28   O     O_R   0.936000 0.609450 0.730390 -0.642511
O29   O     O_R   0.609450 0.936000 0.730390 -0.608164
O30   O     O_R   0.390550 0.064000 0.269610 -0.659363
O31   O     O_R   0.936000 0.390550 0.730390 -0.627713
O32   O     O_R   0.064000 0.609450 0.269610 -0.636127
O33   O     O_R   0.390550 0.064000 0.730390 -0.629049
O34   O     O_R   0.609450 0.936000 0.269610 -0.658677
O35   O     O_R   0.064000 0.609450 0.730390 -0.602389
O36   O     O_R   0.936000 0.390550 0.269610 -0.635148
O37   O     O_R   0.109450 0.564000 0.769610 -0.622122
O38   O     O_R   0.890550 0.436000 0.230390 -0.631744
O39   O     O_R   0.436000 0.109450 0.769610 -0.626665
O40   O     O_R   0.564000 0.890550 0.230390 -0.648487
O41   O     O_R   0.890550 0.436000 0.769610 -0.600811
O42   O     O_R   0.109450 0.564000 0.230390 -0.631657
O43   O     O_R   0.564000 0.890550 0.769610 -0.609055
O44   O     O_R   0.436000 0.109450 0.230390 -0.649489
O45   O     O_R   0.109450 0.436000 0.230390 -0.621953
O46   O     O_R   0.890550 0.564000 0.769610 -0.654046
O47   O     O_R   0.436000 0.890550 0.230390 -0.629599
O48   O     O_R   0.564000 0.109450 0.769610 -0.650351
O49   O     O_R   0.890550 0.564000 0.230390 -0.621460
O50   O     O_R   0.109450 0.436000 0.769610 -0.632333
O51   O     O_R   0.564000 0.109450 0.230390 -0.614812
O52   O     O_R   0.436000 0.890550 0.769610 -0.640329
Zn1   Zn    Zn3+2 0.500000 0.064990 0.221970 0.976179
Zn2   Zn    Zn3+2 0.500000 0.935010 0.778030 0.968090
Zn3   Zn    Zn3+2 0.935010 0.500000 0.221970 0.976731
Zn4   Zn    Zn3+2 0.064990 0.500000 0.778030 0.966634
Zn5   Zn    Zn3+2 0.500000 0.935010 0.221970 0.970715
Zn6   Zn    Zn3+2 0.500000 0.064990 0.778030 0.964448
Zn7   Zn    Zn3+2 0.064990 0.500000 0.221970 0.977173
Zn8   Zn    Zn3+2 0.935010 0.500000 0.778030 0.973863
Zn9   Zn    Zn3+2 0.000000 0.564990 0.721970 0.969490
Zn10  Zn    Zn3+2 0.000000 0.435010 0.278030 0.964587
Zn11  Zn    Zn3+2 0.435010 0.000000 0.721970 0.960662
Zn12  Zn    Zn3+2 0.564990 0.000000 0.278030 0.970980
Zn13  Zn    Zn3+2 0.000000 0.435010 0.721970 0.957890
Zn14  Zn    Zn3+2 0.000000 0.564990 0.278030 0.964735
Zn15  Zn    Zn3+2 0.564990 0.000000 0.721970 0.972459
Zn16  Zn    Zn3+2 0.435010 0.000000 0.278030 0.972557
O53   O     O_3   0.939303 0.577906 0.449110 -0.622871
C177  C     C_3   0.965203 0.629581 0.447362 0.106211
H1    H     H_    0.933344 0.661165 0.451734 0.165172
H2    H     H_    0.983255 0.638313 0.422099 0.145085
C178  C     C_3   0.008885 0.635306 0.474834 -0.358227
H3    H     H_    0.990531 0.626172 0.499861 0.253119
H4    H     H_    0.042551 0.605805 0.470082 0.216453
C179  C     C_3   0.032858 0.692815 0.475429 -0.951002
H5    H     H_    0.051997 0.702538 0.450728 0.263484
H6    H     H_    0.064577 0.695442 0.495351 0.275565
H7    H     H_    0.000422 0.723306 0.480999 0.264085
O54   O     O_3   0.070077 0.569524 0.552207 -0.614174
C180  C     C_3   0.114119 0.541714 0.536630 0.120132
H8    H     H_    0.103864 0.533814 0.509796 0.154677
H9    H     H_    0.124250 0.501862 0.548829 0.112685
C181  C     C_3   0.164598 0.578335 0.537808 -0.328634
H10   H     H_    0.155472 0.617718 0.525039 0.228170
H11   H     H_    0.175192 0.587107 0.564512 0.224709
C182  C     C_3   0.213382 0.551340 0.520497 -0.986889
H12   H     H_    0.223932 0.512399 0.533306 0.264408
H13   H     H_    0.249243 0.579034 0.521723 0.265713
H14   H     H_    0.203939 0.542974 0.493596 0.268629
O55   O     O_3   0.411681 0.958500 0.449466 -0.637679
C183  C     C_3   0.363207 0.989316 0.444809 0.084615
H15   H     H_    0.329176 0.965061 0.455762 0.178851
H16   H     H_    0.353236 0.995129 0.417729 0.170783
C184  C     C_3   0.365796 0.045195 0.462589 -0.389555
H17   H     H_    0.387539 0.041423 0.486913 0.275941
H18   H     H_    0.388912 0.074440 0.446579 0.207800
C185  C     C_3   0.308903 0.068208 0.469438 -0.940136
H19   H     H_    0.285682 0.072171 0.445620 0.266420
H20   H     H_    0.312481 0.109176 0.481282 0.273258
H21   H     H_    0.286117 0.040979 0.486881 0.258476
O56   O     O_3   0.586807 0.954637 0.551307 -0.603681
C186  C     C_3   0.573348 0.905294 0.534620 0.114121
H22   H     H_    0.565250 0.914190 0.507630 0.138432
H23   H     H_    0.536710 0.884283 0.545342 0.104541
C187  C     C_3   0.622035 0.866370 0.536819 -0.315663
H24   H     H_    0.658804 0.886370 0.525948 0.223487
H25   H     H_    0.630434 0.856834 0.563708 0.224967
C188  C     C_3   0.611117 0.813280 0.517792 -0.995478
H26   H     H_    0.575084 0.792010 0.528660 0.263219
H27   H     H_    0.647212 0.785990 0.519890 0.269252
H28   H     H_    0.603577 0.821826 0.490691 0.266408
O57   O     O_3   0.059036 0.421345 0.449003 -0.622931
C189  C     C_3   0.033440 0.369605 0.446422 0.108775
H29   H     H_    0.065150 0.338053 0.451159 0.164252
H30   H     H_    0.016840 0.361169 0.420780 0.148514
C190  C     C_3   0.988258 0.363338 0.473008 -0.362586
H31   H     H_    0.005271 0.371731 0.498459 0.252694
H32   H     H_    0.954977 0.393121 0.468004 0.216406
C191  C     C_3   0.964072 0.305912 0.472463 -0.949661
H33   H     H_    0.946219 0.296980 0.447317 0.263942
H34   H     H_    0.931301 0.302822 0.491771 0.275214
H35   H     H_    0.996097 0.275137 0.478219 0.264433
O58   O     O_3   0.924927 0.432990 0.552800 -0.611437
C192  C     C_3   0.882478 0.462712 0.536981 0.121196
H36   H     H_    0.893181 0.469134 0.510049 0.156800
H37   H     H_    0.874547 0.503437 0.548789 0.111788
C193  C     C_3   0.829962 0.429119 0.538599 -0.325836
H38   H     H_    0.837044 0.388498 0.526782 0.230802
H39   H     H_    0.818281 0.422725 0.565383 0.225117
C194  C     C_3   0.783176 0.457778 0.520382 -0.987253
H40   H     H_    0.774716 0.498082 0.532210 0.265035
H41   H     H_    0.745718 0.432342 0.522038 0.266423
H42   H     H_    0.793582 0.463803 0.493364 0.268960
O59   O     O_3   0.582202 0.056669 0.448513 -0.613302
C195  C     C_3   0.625625 0.019632 0.453688 0.109570
H43   H     H_    0.647060 0.011671 0.429426 0.170681
H44   H     H_    0.610885 0.980128 0.464410 0.124863
C196  C     C_3   0.666083 0.044739 0.478514 -0.304743
H45   H     H_    0.681360 0.084181 0.468312 0.223641
H46   H     H_    0.644998 0.052846 0.502875 0.242485
C197  C     C_3   0.714458 0.006714 0.484700 -0.953961
H47   H     H_    0.700170 0.967346 0.495454 0.269414
H48   H     H_    0.743044 0.026057 0.502840 0.267837
H49   H     H_    0.736665 0.998744 0.460733 0.261952
O60   O     O_3   0.409270 0.042547 0.551906 -0.629804
C198  C     C_3   0.362845 0.009059 0.557644 0.104779
H50   H     H_    0.327181 0.030261 0.546348 0.173702
H51   H     H_    0.353412 0.004482 0.584921 0.165674
C199  C     C_3   0.368700 0.952330 0.541192 -0.408392
H52   H     H_    0.384155 0.956548 0.515070 0.270857
H53   H     H_    0.398594 0.927425 0.555608 0.202167
C200  C     C_3   0.314281 0.922053 0.540366 -0.947415
H54   H     H_    0.298569 0.916008 0.566350 0.271820
H55   H     H_    0.320068 0.881394 0.528428 0.270805
H56   H     H_    0.283835 0.945399 0.525438 0.261066
O61   O     O_3   0.559966 0.921687 0.947769 -0.614030
C201  C     C_3   0.607709 0.943481 0.962680 0.123590
H57   H     H_    0.598903 0.954390 0.989334 0.150472
H58   H     H_    0.623545 0.980606 0.949566 0.112077
C202  C     C_3   0.652266 0.899750 0.962194 -0.322913
H59   H     H_    0.637280 0.862549 0.975347 0.228224
H60   H     H_    0.661905 0.888746 0.935641 0.223805
C203  C     C_3   0.704195 0.919780 0.979468 -0.985907
H61   H     H_    0.720484 0.956391 0.966328 0.263549
H62   H     H_    0.735647 0.887079 0.978687 0.267093
H63   H     H_    0.695667 0.930176 0.006242 0.268513
O62   O     O_3   0.436039 0.923650 0.051171 -0.625427
C204  C     C_3   0.459101 0.870602 0.052093 0.108871
H64   H     H_    0.425476 0.840988 0.047686 0.170572
H65   H     H_    0.476817 0.860030 0.077063 0.162126
C205  C     C_3   0.501969 0.863370 0.024168 -0.361912
H66   H     H_    0.483780 0.874548 0.999457 0.259248
H67   H     H_    0.537327 0.890670 0.029042 0.214611
C206  C     C_3   0.522535 0.804586 0.022470 -0.948242
H68   H     H_    0.541468 0.792705 0.046814 0.264675
H69   H     H_    0.553715 0.800899 0.002216 0.274707
H70   H     H_    0.488290 0.776319 0.016742 0.264082
O63   O     O_3   0.912873 0.455911 0.948889 -0.635490
C207  C     C_3   0.865282 0.487703 0.943200 0.083646
H71   H     H_    0.830035 0.464192 0.953257 0.172496
H72   H     H_    0.857156 0.494263 0.915902 0.176081
C208  C     C_3   0.867789 0.543049 0.961515 -0.396312
H73   H     H_    0.879590 0.536739 0.988153 0.274568
H74   H     H_    0.899047 0.569550 0.949447 0.212454
C209  C     C_3   0.812847 0.572430 0.960519 -0.948932
H75   H     H_    0.801012 0.581023 0.934065 0.269870
H76   H     H_    0.815985 0.611827 0.974288 0.273722
H77   H     H_    0.780756 0.547154 0.972736 0.263286
O64   O     O_3   0.094228 0.472625 0.050656 -0.631967
C210  C     C_3   0.134584 0.513289 0.056064 0.092486
H78   H     H_    0.173741 0.497096 0.045943 0.172032
H79   H     H_    0.141589 0.521549 0.083331 0.167161
C211  C     C_3   0.120690 0.566689 0.037506 -0.392082
H80   H     H_    0.109170 0.557388 0.011171 0.275628
H81   H     H_    0.085357 0.587007 0.049925 0.208983
C212  C     C_3   0.168747 0.606270 0.037176 -0.953312
H82   H     H_    0.178189 0.619797 0.063192 0.266240
H83   H     H_    0.157979 0.642807 0.021995 0.273261
H84   H     H_    0.205368 0.586691 0.025794 0.262422
O65   O     O_3   0.437635 0.078909 0.947705 -0.609266
C213  C     C_3   0.389784 0.057432 0.962751 0.121109
H85   H     H_    0.398381 0.047086 0.989477 0.149172
H86   H     H_    0.374052 0.020001 0.949900 0.110660
C214  C     C_3   0.345268 0.101187 0.961977 -0.318100
H87   H     H_    0.360038 0.138461 0.975156 0.228686
H88   H     H_    0.336173 0.112062 0.935367 0.226537
C215  C     C_3   0.292992 0.081344 0.979022 -0.990979
H89   H     H_    0.276905 0.044658 0.965853 0.263624
H90   H     H_    0.261586 0.114067 0.978041 0.267449
H91   H     H_    0.300999 0.071122 0.005847 0.269383
O66   O     O_3   0.561081 0.075657 0.050371 -0.627473
C216  C     C_3   0.537744 0.128596 0.051046 0.104482
H92   H     H_    0.571395 0.158397 0.047199 0.167142
H93   H     H_    0.518739 0.139032 0.075694 0.162500
C217  C     C_3   0.496068 0.135635 0.022562 -0.352815
H94   H     H_    0.515326 0.124533 0.998090 0.258469
H95   H     H_    0.460644 0.108209 0.026961 0.214551
C218  C     C_3   0.475299 0.194328 0.020688 -0.943353
H96   H     H_    0.455341 0.206110 0.044802 0.263749
H97   H     H_    0.444922 0.197887 0.000045 0.275856
H98   H     H_    0.509631 0.222759 0.015448 0.263737
O67   O     O_3   0.085151 0.551200 0.948311 -0.634499
C219  C     C_3   0.135011 0.523532 0.941777 0.086665
H99   H     H_    0.168368 0.548928 0.952481 0.169608
H100  H     H_    0.143703 0.519639 0.914376 0.170882
C220  C     C_3   0.136755 0.466873 0.958455 -0.396651
H101  H     H_    0.124435 0.470161 0.985282 0.268969
H102  H     H_    0.107689 0.438976 0.945559 0.210461
C221  C     C_3   0.193885 0.442093 0.956509 -0.943694
H103  H     H_    0.207062 0.438010 0.929817 0.269211
H104  H     H_    0.193625 0.400924 0.968248 0.272372
H105  H     H_    0.223541 0.468191 0.970272 0.262632
O68   O     O_3   0.905872 0.530542 0.051403 -0.634024
C222  C     C_3   0.865239 0.490166 0.056906 0.091105
H106  H     H_    0.826053 0.506840 0.047244 0.172021
H107  H     H_    0.858606 0.481521 0.084169 0.168547
C223  C     C_3   0.878324 0.436938 0.037859 -0.392292
H108  H     H_    0.888887 0.446478 0.011390 0.276098
H109  H     H_    0.914039 0.416400 0.049597 0.209438
C224  C     C_3   0.830136 0.397515 0.038133 -0.952489
H110  H     H_    0.821447 0.383975 0.064252 0.266199
H111  H     H_    0.840295 0.360976 0.022723 0.272771
H112  H     H_    0.793235 0.417256 0.027328 0.263188
O69   O     O_3   0.931543 0.571667 0.378873 -0.597917
C225  C     C_3   0.880391 0.545376 0.376612 -0.305576
H113  H     H_    0.852079 0.571667 0.362140 0.164819
H114  H     H_    0.862070 0.539050 0.402015 0.189757
H115  H     H_    0.883561 0.505751 0.362905 0.145269
O70   O     O_3   0.075362 0.563552 0.621257 -0.572246
C226  C     C_3   0.120777 0.530841 0.629805 -0.328185
H116  H     H_    0.109888 0.499858 0.649144 0.154891
H117  H     H_    0.152815 0.557469 0.640740 0.166980
H118  H     H_    0.138880 0.510419 0.607370 0.152384
O71   O     O_3   0.418802 0.944708 0.379415 -0.584545
C227  C     C_3   0.436282 0.889778 0.379709 -0.295881
H119  H     H_    0.404972 0.864319 0.367084 0.162810
H120  H     H_    0.440781 0.874044 0.405885 0.183553
H121  H     H_    0.475217 0.884694 0.365521 0.136925
O72   O     O_3   0.581589 0.943669 0.620017 -0.561675
C228  C     C_3   0.561572 0.890863 0.627356 -0.310548
H122  H     H_    0.596351 0.864319 0.634409 0.163975
H123  H     H_    0.541522 0.871238 0.605277 0.136942
H124  H     H_    0.532790 0.892053 0.649043 0.153735
O73   O     O_3   0.067796 0.427993 0.378763 -0.598371
C229  C     C_3   0.119212 0.453806 0.376720 -0.305676
H125  H     H_    0.147450 0.427279 0.362247 0.165825
H126  H     H_    0.137249 0.459857 0.402191 0.189637
H127  H     H_    0.116580 0.493512 0.363118 0.145237
O74   O     O_3   0.921498 0.438717 0.621896 -0.582022
C230  C     C_3   0.877491 0.473336 0.630652 -0.338447
H128  H     H_    0.859922 0.494162 0.608252 0.155403
H129  H     H_    0.889830 0.504156 0.649772 0.154380
H130  H     H_    0.844531 0.448275 0.641959 0.170862
O75   O     O_3   0.581418 0.058071 0.378479 -0.583029
C231  C     C_3   0.564914 0.112826 0.374146 -0.267668
H131  H     H_    0.597765 0.135170 0.360725 0.160337
H132  H     H_    0.558463 0.133626 0.398812 0.183598
H133  H     H_    0.527318 0.115569 0.358479 0.137565
O76   O     O_3   0.417948 0.056074 0.621908 -0.589196
C232  C     C_3   0.434597 0.111240 0.622294 -0.286051
H134  H     H_    0.403654 0.135614 0.636094 0.162470
H135  H     H_    0.437434 0.128238 0.596328 0.185523
H136  H     H_    0.474196 0.116270 0.635702 0.136588
O77   O     O_3   0.567586 0.928048 0.879020 -0.565510
C233  C     C_3   0.615793 0.956241 0.869952 -0.318075
H137  H     H_    0.609301 0.980576 0.846690 0.152410
H138  H     H_    0.648277 0.925881 0.864551 0.166500
H139  H     H_    0.631450 0.983192 0.890397 0.137030
O78   O     O_3   0.434440 0.924965 0.121655 -0.589353
C234  C     C_3   0.382044 0.948142 0.125585 -0.297760
H140  H     H_    0.354655 0.917283 0.137093 0.164965
H141  H     H_    0.363808 0.959990 0.100946 0.183228
H142  H     H_    0.383330 0.983864 0.142883 0.138909
O79   O     O_3   0.922757 0.438788 0.879120 -0.584947
C235  C     C_3   0.943107 0.384850 0.879945 -0.305120
H143  H     H_    0.913804 0.357532 0.867008 0.162698
H144  H     H_    0.947308 0.369707 0.906274 0.184889
H145  H     H_    0.982873 0.381663 0.866390 0.145631
O80   O     O_3   0.086717 0.452134 0.120033 -0.588380
C236  C     C_3   0.076048 0.395548 0.117790 -0.307585
H146  H     H_    0.073474 0.381535 0.091121 0.188863
H147  H     H_    0.037978 0.384713 0.131654 0.143677
H148  H     H_    0.110141 0.372760 0.129519 0.161912
O81   O     O_3   0.433633 0.074959 0.878723 -0.561235
C237  C     C_3   0.384186 0.049295 0.869526 -0.311287
H149  H     H_    0.363842 0.029177 0.891305 0.143894
H150  H     H_    0.390767 0.019111 0.848967 0.148307
H151  H     H_    0.355591 0.080775 0.859988 0.164888
O82   O     O_3   0.563022 0.075830 0.120927 -0.587656
C238  C     C_3   0.615922 0.053910 0.124706 -0.286084
H152  H     H_    0.641733 0.084500 0.137801 0.167309
H153  H     H_    0.635261 0.045212 0.099846 0.183450
H154  H     H_    0.615308 0.016387 0.140508 0.135317
O83   O     O_3   0.074380 0.565601 0.878158 -0.602078
C239  C     C_3   0.050412 0.618064 0.877864 -0.315057
H155  H     H_    0.047399 0.635229 0.903800 0.191048
H156  H     H_    0.009463 0.617580 0.865650 0.148498
H157  H     H_    0.076553 0.645904 0.862950 0.166518
O84   O     O_3   0.914037 0.549865 0.120828 -0.588464
C240  C     C_3   0.925436 0.606358 0.119095 -0.306544
H158  H     H_    0.891682 0.629348 0.131147 0.161338
H159  H     H_    0.928139 0.620915 0.092553 0.188202
H160  H     H_    0.963674 0.616398 0.132935 0.144333
O85   O     O_3   0.279046 0.239309 0.307103 -0.584100
C241  C     C_3   0.312601 0.285220 0.312460 -0.332468
H161  H     H_    0.299336 0.319566 0.296168 0.144150
H162  H     H_    0.356813 0.276168 0.308579 0.174583
H163  H     H_    0.307490 0.298678 0.338993 0.189388
O86   O     O_3   0.792145 0.833734 0.720538 -0.574902
C242  C     C_3   0.821652 0.870317 0.741076 -0.308507
H164  H     H_    0.823867 0.855995 0.767656 0.142116
H165  H     H_    0.803803 0.912048 0.740095 0.198378
H166  H     H_    0.864094 0.872954 0.731363 0.179061
O87   O     O_3   0.782663 0.262686 0.311215 -0.558567
C243  C     C_3   0.739759 0.292487 0.326228 -0.307097
H167  H     H_    0.700462 0.283274 0.313519 0.138278
H168  H     H_    0.747650 0.337344 0.326458 0.162884
H169  H     H_    0.735701 0.279194 0.352840 0.186862
O88   O     O_3   0.179367 0.780101 0.708918 -0.565531
C244  C     C_3   0.151832 0.820198 0.727974 -0.307582
H170  H     H_    0.179842 0.838792 0.746732 0.139969
H171  H     H_    0.114463 0.803945 0.740539 0.166714
H172  H     H_    0.138656 0.853249 0.710682 0.189619
O89   O     O_3   0.718496 0.761082 0.308512 -0.581008
C245  C     C_3   0.688023 0.712673 0.312406 -0.327486
H173  H     H_    0.705311 0.679714 0.296377 0.143188
H174  H     H_    0.643702 0.718481 0.307089 0.178673
H175  H     H_    0.691602 0.699076 0.338978 0.188234
O90   O     O_3   0.206937 0.162681 0.725336 -0.555872
C246  C     C_3   0.173978 0.141718 0.751437 -0.312281
H176  H     H_    0.159663 0.175194 0.768172 0.139924
H177  H     H_    0.195135 0.109377 0.766281 0.160201
H178  H     H_    0.137232 0.122820 0.740001 0.184987
O91   O     O_3   0.219468 0.736704 0.309654 -0.557396
C247  C     C_3   0.263716 0.706909 0.322952 -0.315522
H179  H     H_    0.301858 0.716342 0.308937 0.137290
H180  H     H_    0.255918 0.662040 0.323184 0.165159
H181  H     H_    0.270028 0.719909 0.349457 0.185543
O92   O     O_3   0.819131 0.221974 0.705932 -0.565004
C248  C     C_3   0.849799 0.181856 0.722937 -0.309076
H182  H     H_    0.824231 0.161264 0.742255 0.139728
H183  H     H_    0.887748 0.198621 0.734475 0.168633
H184  H     H_    0.862427 0.150298 0.704399 0.187489
O93   O     O_3   0.286655 0.761046 0.687514 -0.566633
C249  C     C_3   0.329727 0.726149 0.677770 -0.315192
H185  H     H_    0.339686 0.696087 0.697856 0.137721
H186  H     H_    0.366804 0.749784 0.670741 0.197914
H187  H     H_    0.316711 0.702779 0.655199 0.176511
O94   O     O_3   0.792047 0.165126 0.276084 -0.558096
C250  C     C_3   0.825210 0.144426 0.249951 -0.307198
H188  H     H_    0.839645 0.178137 0.233499 0.139557
H189  H     H_    0.804261 0.112301 0.234804 0.164794
H190  H     H_    0.861877 0.125358 0.261383 0.184662
O95   O     O_3   0.768933 0.726328 0.690449 -0.576380
C251  C     C_3   0.722759 0.694481 0.682532 -0.329325
H191  H     H_    0.687144 0.707704 0.697866 0.142391
H192  H     H_    0.730206 0.649819 0.685586 0.172818
H193  H     H_    0.712214 0.701556 0.655705 0.186667
O96   O     O_3   0.170224 0.210322 0.281992 -0.584873
C252  C     C_3   0.121753 0.184720 0.270882 -0.282413
H194  H     H_    0.111924 0.193102 0.243937 0.125812
H195  H     H_    0.086847 0.196815 0.287159 0.205678
H196  H     H_    0.126908 0.139882 0.273450 0.167498
O97   O     O_3   0.705682 0.245257 0.687827 -0.575542
C253  C     C_3   0.666082 0.286631 0.684036 -0.310196
H197  H     H_    0.664963 0.314391 0.706231 0.150156
H198  H     H_    0.624880 0.269025 0.679507 0.198368
H199  H     H_    0.677000 0.311614 0.661704 0.176383
O98   O     O_3   0.208475 0.834741 0.277022 -0.550736
C254  C     C_3   0.174188 0.857375 0.252202 -0.305371
H200  H     H_    0.159374 0.825064 0.234821 0.138326
H201  H     H_    0.194423 0.890942 0.237892 0.161067
H202  H     H_    0.137832 0.875125 0.264871 0.184523
O99   O     O_3   0.216115 0.259208 0.690846 -0.562976
C255  C     C_3   0.259971 0.287947 0.676182 -0.316811
H203  H     H_    0.298541 0.279417 0.689894 0.138580
H204  H     H_    0.252139 0.332766 0.674905 0.165855
H205  H     H_    0.265484 0.273123 0.649957 0.187589
O100  O     O_3   0.830553 0.789450 0.284202 -0.580941
C256  C     C_3   0.878993 0.815212 0.273083 -0.278274
H206  H     H_    0.888697 0.807297 0.246031 0.126368
H207  H     H_    0.913973 0.802792 0.289106 0.204227
H208  H     H_    0.873901 0.860006 0.276030 0.166692
O101  O     O_3   0.784732 0.739810 0.811555 -0.580871
C257  C     C_3   0.830420 0.767267 0.825106 -0.303651
H209  H     H_    0.856422 0.786936 0.805477 0.132504
H210  H     H_    0.855402 0.738991 0.840588 0.208851
H211  H     H_    0.815481 0.800144 0.842053 0.168209
O102  O     O_3   0.280072 0.320758 0.207638 -0.563340
C258  C     C_3   0.322647 0.345708 0.225903 -0.331551
H212  H     H_    0.342511 0.315588 0.242815 0.148180
H213  H     H_    0.308713 0.382207 0.240395 0.171136
H214  H     H_    0.354149 0.359807 0.207759 0.183133
O103  O     O_3   0.266871 0.774904 0.808738 -0.581573
C259  C     C_3   0.219696 0.806299 0.815116 -0.336135
H215  H     H_    0.185515 0.792553 0.798839 0.143666
H216  H     H_    0.226986 0.850972 0.812037 0.174733
H217  H     H_    0.207019 0.799434 0.841638 0.189240
O104  O     O_3   0.664615 0.292367 0.225050 -0.553157
C260  C     C_3   0.643826 0.325495 0.251159 -0.303686
H218  H     H_    0.677419 0.339713 0.267746 0.138687
H219  H     H_    0.611472 0.304557 0.266155 0.160967
H220  H     H_    0.625015 0.362299 0.239719 0.185135
O105  O     O_3   0.234996 0.281983 0.812153 -0.560350
C261  C     C_3   0.206004 0.238068 0.826528 -0.314567
H221  H     H_    0.216802 0.199167 0.813729 0.139673
H222  H     H_    0.160945 0.244737 0.826232 0.160498
H223  H     H_    0.218522 0.234082 0.853275 0.188055
O106  O     O_3   0.720605 0.681622 0.208669 -0.565514
C262  C     C_3   0.677746 0.656137 0.226459 -0.333657
H224  H     H_    0.657808 0.685677 0.243800 0.150895
H225  H     H_    0.691382 0.619052 0.240399 0.172166
H226  H     H_    0.646390 0.642851 0.208046 0.184437
O107  O     O_3   0.738600 0.220217 0.807248 -0.569913
C263  C     C_3   0.786994 0.189744 0.811334 -0.323505
H227  H     H_    0.819797 0.206117 0.794848 0.138398
H228  H     H_    0.780911 0.145221 0.806721 0.172349
H229  H     H_    0.800960 0.194426 0.837765 0.185970
O108  O     O_3   0.332301 0.710670 0.219391 -0.554202
C264  C     C_3   0.354161 0.675839 0.244201 -0.307488
H230  H     H_    0.321464 0.661265 0.261411 0.138129
H231  H     H_    0.371604 0.639383 0.231487 0.184145
H232  H     H_    0.387788 0.695511 0.258718 0.164445
O109  O     O_3   0.761928 0.282036 0.190017 -0.557192
C265  C     C_3   0.790544 0.237825 0.175576 -0.343699
H233  H     H_    0.780052 0.199177 0.188682 0.147818
H234  H     H_    0.835611 0.244381 0.175360 0.166603
H235  H     H_    0.777330 0.233399 0.148981 0.182667
O110  O     O_3   0.289360 0.668604 0.782852 -0.571044
C266  C     C_3   0.317847 0.624937 0.767599 -0.306537
H236  H     H_    0.319926 0.629059 0.739678 0.128167
H237  H     H_    0.299402 0.585034 0.774505 0.202142
H238  H     H_    0.360409 0.624996 0.777153 0.177043
O111  O     O_3   0.254870 0.205979 0.187858 -0.570707
C267  C     C_3   0.213333 0.166564 0.184182 -0.307036
H239  H     H_    0.185073 0.166515 0.206163 0.150390
H240  H     H_    0.230731 0.125043 0.180289 0.194778
H241  H     H_    0.188935 0.176853 0.161521 0.176831
O112  O     O_3   0.676677 0.716650 0.787487 -0.569808
C268  C     C_3   0.649817 0.677859 0.767178 -0.312759
H242  H     H_    0.678866 0.659510 0.748863 0.140335
H243  H     H_    0.613606 0.695215 0.753959 0.166657
H244  H     H_    0.634920 0.644382 0.783625 0.188546
O113  O     O_3   0.233330 0.720327 0.187761 -0.559835
C269  C     C_3   0.203724 0.764774 0.174541 -0.348025
H245  H     H_    0.214484 0.803074 0.187978 0.149110
H246  H     H_    0.158733 0.757786 0.175148 0.166978
H247  H     H_    0.215665 0.770199 0.147763 0.184427
O114  O     O_3   0.709565 0.329555 0.782058 -0.578543
C270  C     C_3   0.682561 0.377014 0.770490 -0.271767
H248  H     H_    0.691350 0.387054 0.743601 0.126177
H249  H     H_    0.637869 0.370358 0.772676 0.166531
H250  H     H_    0.692986 0.412415 0.786736 0.200186
O115  O     O_3   0.749510 0.796687 0.189962 -0.570906
C271  C     C_3   0.789855 0.837445 0.186777 -0.306112
H251  H     H_    0.816507 0.839395 0.209422 0.149306
H252  H     H_    0.771250 0.878125 0.181893 0.197137
H253  H     H_    0.816209 0.827228 0.164878 0.176407
O116  O     O_3   0.332195 0.289643 0.778973 -0.551399
C272  C     C_3   0.353194 0.323524 0.753355 -0.307045
H254  H     H_    0.320077 0.336847 0.736123 0.135494
H255  H     H_    0.386881 0.303525 0.738961 0.163836
H256  H     H_    0.370308 0.360796 0.765245 0.183709
O117  O     O_3   0.357396 0.158167 0.309857 -0.630367
C273  C     C_3   0.328337 0.114524 0.325111 0.159758
H257  H     H_    0.359028 0.086251 0.336146 0.171281
H258  H     H_    0.303475 0.089675 0.307120 0.130405
C274  C     C_3   0.291573 0.135738 0.353520 -0.315406
H259  H     H_    0.315829 0.161857 0.370875 0.236096
H260  H     H_    0.257759 0.160382 0.342848 0.274880
C275  C     C_3   0.266435 0.088802 0.373361 -1.031611
H261  H     H_    0.240808 0.063090 0.356581 0.275532
H262  H     H_    0.240166 0.105399 0.393799 0.275574
H263  H     H_    0.299127 0.063341 0.384689 0.269327
O118  O     O_3   0.706957 0.909195 0.714391 -0.605302
C276  C     C_3   0.705773 0.896844 0.679583 0.162235
H264  H     H_    0.666481 0.876893 0.672771 0.118200
H265  H     H_    0.740040 0.869288 0.672426 0.187414
C277  C     C_3   0.711338 0.949775 0.659506 -0.319995
H266  H     H_    0.674024 0.974958 0.663268 0.255753
H267  H     H_    0.747042 0.973300 0.668926 0.216163
C278  C     C_3   0.719470 0.938296 0.621958 -0.919052
H268  H     H_    0.758040 0.915276 0.617820 0.251384
H269  H     H_    0.722098 0.977414 0.607920 0.271250
H270  H     H_    0.684896 0.914079 0.611803 0.298588
O119  O     O_3   0.866485 0.338369 0.310104 -0.612417
C279  C     C_3   0.904316 0.296612 0.318052 0.173483
H271  H     H_    0.931451 0.287277 0.296134 0.134258
H272  H     H_    0.882578 0.258660 0.325672 0.184776
C280  C     C_3   0.940022 0.315403 0.347435 -0.323488
H273  H     H_    0.963784 0.351993 0.339730 0.261960
H274  H     H_    0.913692 0.326750 0.369219 0.219468
C281  C     C_3   0.979518 0.270480 0.358272 -1.001442
H275  H     H_    0.956552 0.234409 0.367636 0.268951
H276  H     H_    0.006082 0.285776 0.378857 0.266066
H277  H     H_    0.005708 0.257887 0.336724 0.281317
O120  O     O_3   0.101674 0.698669 0.705726 -0.590895
C282  C     C_3   0.118453 0.686932 0.672339 0.162850
H278  H     H_    0.133767 0.644159 0.670419 0.122794
H279  H     H_    0.151341 0.715270 0.663971 0.182084
C283  C     C_3   0.069791 0.693483 0.648628 -0.312292
H280  H     H_    0.040614 0.659374 0.652883 0.264387
H281  H     H_    0.048429 0.732571 0.654227 0.215799
C284  C     C_3   0.087913 0.693906 0.611722 -0.883035
H282  H     H_    0.111632 0.731576 0.606296 0.244194
H283  H     H_    0.051550 0.693086 0.595047 0.276790
H284  H     H_    0.113862 0.657895 0.605916 0.301361
O121  O     O_3   0.628234 0.831006 0.307350 -0.638674
C285  C     C_3   0.653264 0.864824 0.331652 0.154189
H285  H     H_    0.666333 0.904486 0.320493 0.146198
H286  H     H_    0.689462 0.844194 0.342819 0.181122
C286  C     C_3   0.611636 0.875912 0.359619 -0.329742
H287  H     H_    0.573974 0.893568 0.348426 0.225551
H288  H     H_    0.600683 0.836753 0.372094 0.217473
C287  C     C_3   0.633670 0.915456 0.385957 -0.996802
H289  H     H_    0.672421 0.899861 0.396860 0.262362
H290  H     H_    0.603200 0.920180 0.406535 0.249758
H291  H     H_    0.640795 0.956042 0.374345 0.302321
O122  O     O_3   0.289417 0.088555 0.718313 -0.603790
C288  C     C_3   0.305354 0.092717 0.683979 0.197345
H292  H     H_    0.323180 0.052688 0.676504 0.190679
H293  H     H_    0.337691 0.123989 0.679340 0.100639
C289  C     C_3   0.255929 0.104139 0.661432 -0.353236
H294  H     H_    0.222721 0.074714 0.667411 0.240556
H295  H     H_    0.240794 0.146240 0.666047 0.276397
C290  C     C_3   0.270795 0.099079 0.624173 -0.960514
H296  H     H_    0.303155 0.128962 0.617457 0.273216
H297  H     H_    0.234180 0.107517 0.608533 0.267656
H298  H     H_    0.285437 0.057165 0.618456 0.267639
O123  O     O_3   0.135331 0.661454 0.309619 -0.612492
C291  C     C_3   0.097606 0.702978 0.318341 0.172499
H299  H     H_    0.069983 0.712754 0.296803 0.134043
H300  H     H_    0.119509 0.740777 0.326082 0.184336
C292  C     C_3   0.062512 0.683530 0.347899 -0.324473
H301  H     H_    0.039030 0.646764 0.340194 0.261548
H302  H     H_    0.089265 0.672257 0.369420 0.219203
C293  C     C_3   0.022672 0.727920 0.359247 -0.999462
H303  H     H_    0.045367 0.764214 0.368528 0.268499
H304  H     H_    0.996646 0.712195 0.380009 0.265507
H305  H     H_    0.995946 0.740310 0.337985 0.280666
O124  O     O_3   0.896889 0.302487 0.703609 -0.610714
C294  C     C_3   0.886594 0.331036 0.673165 0.189385
H306  H     H_    0.926366 0.347058 0.663977 0.212324
H307  H     H_    0.859371 0.367293 0.676426 0.103424
C295  C     C_3   0.863058 0.292574 0.646338 -0.374945
H308  H     H_    0.888194 0.254796 0.644939 0.246587
H309  H     H_    0.820612 0.281198 0.653283 0.268320
C296  C     C_3   0.861809 0.319478 0.611662 -0.895625
H310  H     H_    0.835580 0.356474 0.612314 0.268963
H311  H     H_    0.844662 0.290458 0.592936 0.254533
H312  H     H_    0.903696 0.330935 0.603522 0.303745
O125  O     O_3   0.354232 0.852136 0.687863 -0.633612
C297  C     C_3   0.320703 0.896256 0.677328 0.166807
H313  H     H_    0.348014 0.928023 0.666499 0.179179
H314  H     H_    0.297610 0.916399 0.698286 0.130393
C298  C     C_3   0.280769 0.877913 0.649925 -0.338355
H315  H     H_    0.303557 0.856976 0.629362 0.234788
H316  H     H_    0.250635 0.848936 0.660758 0.279284
C299  C     C_3   0.249823 0.926595 0.635333 -1.010489
H317  H     H_    0.226041 0.947600 0.655416 0.274604
H318  H     H_    0.221124 0.912221 0.615581 0.276494
H319  H     H_    0.278817 0.956065 0.623819 0.260023
O126  O     O_3   0.711326 0.086765 0.278610 -0.599292
C300  C     C_3   0.710771 0.090659 0.314180 0.180926
H320  H     H_    0.670343 0.105527 0.323318 0.131672
H321  H     H_    0.743145 0.118952 0.323271 0.180490
C301  C     C_3   0.721253 0.034148 0.329177 -0.306560
H322  H     H_    0.686235 0.006920 0.323225 0.239943
H323  H     H_    0.758787 0.016366 0.317755 0.224138
C302  C     C_3   0.728667 0.037193 0.367343 -0.992368
H324  H     H_    0.764819 0.062600 0.373674 0.268766
H325  H     H_    0.735221 0.995511 0.377598 0.263373
H326  H     H_    0.691876 0.055217 0.379399 0.302530
O127  O     O_3   0.846068 0.641669 0.689897 -0.632489
C303  C     C_3   0.878819 0.676254 0.669775 0.167926
H327  H     H_    0.915077 0.691167 0.684067 0.137728
H328  H     H_    0.854945 0.711949 0.660709 0.194657
C304  C     C_3   0.898786 0.643886 0.639119 -0.361796
H329  H     H_    0.928327 0.612262 0.647466 0.242354
H330  H     H_    0.863658 0.622892 0.626983 0.225113
C305  C     C_3   0.926156 0.680859 0.613167 -0.971091
H331  H     H_    0.895584 0.708933 0.601875 0.268408
H332  H     H_    0.944414 0.655539 0.592793 0.276591
H333  H     H_    0.958833 0.705469 0.625138 0.265197
O128  O     O_3   0.099044 0.298330 0.292087 -0.622247
C306  C     C_3   0.114350 0.321867 0.323357 0.166783
H334  H     H_    0.076998 0.340070 0.334680 0.216202
H335  H     H_    0.144466 0.355883 0.320839 0.101483
C307  C     C_3   0.136524 0.278184 0.347393 -0.362976
H336  H     H_    0.107591 0.243263 0.348538 0.235522
H337  H     H_    0.176518 0.263044 0.338034 0.278454
C308  C     C_3   0.144612 0.300953 0.382842 -0.947002
H338  H     H_    0.175304 0.334344 0.382520 0.265578
H339  H     H_    0.159530 0.268020 0.399722 0.264022
H340  H     H_    0.105403 0.316797 0.392996 0.279833
O129  O     O_3   0.625069 0.163964 0.690425 -0.637724
C309  C     C_3   0.654148 0.132158 0.666705 0.145614
H341  H     H_    0.666734 0.092406 0.677945 0.151523
H342  H     H_    0.691141 0.154055 0.657528 0.178136
C310  C     C_3   0.616509 0.121271 0.636647 -0.358080
H343  H     H_    0.578007 0.102096 0.645645 0.229362
H344  H     H_    0.606077 0.160741 0.624384 0.220507
C311  C     C_3   0.643169 0.083652 0.610703 -0.920332
H345  H     H_    0.683210 0.100343 0.602450 0.256177
H346  H     H_    0.616098 0.079769 0.588388 0.271360
H347  H     H_    0.649141 0.042460 0.621669 0.294258
O130  O     O_3   0.291548 0.909072 0.283799 -0.591965
C312  C     C_3   0.295845 0.897125 0.318590 0.174654
H348  H     H_    0.338769 0.886333 0.324958 0.130348
H349  H     H_    0.268842 0.862444 0.325948 0.176732
C313  C     C_3   0.279051 0.947236 0.339138 -0.296999
H350  H     H_    0.310496 0.979680 0.336266 0.235882
H351  H     H_    0.239479 0.963212 0.329577 0.225617
C314  C     C_3   0.272521 0.932941 0.376406 -0.985031
H352  H     H_    0.239489 0.902310 0.379769 0.268660
H353  H     H_    0.261411 0.970050 0.390966 0.263230
H354  H     H_    0.311187 0.915995 0.386574 0.294001
O131  O     O_3   0.133350 0.335968 0.690763 -0.612670
C315  C     C_3   0.094781 0.294861 0.682992 0.168981
H355  H     H_    0.067060 0.286820 0.704809 0.135374
H356  H     H_    0.115827 0.256201 0.675884 0.182673
C316  C     C_3   0.060093 0.313729 0.653202 -0.323288
H357  H     H_    0.037506 0.351435 0.660296 0.256973
H358  H     H_    0.087120 0.323324 0.631444 0.223585
C317  C     C_3   0.019237 0.269860 0.642697 -0.982735
H359  H     H_    0.041050 0.232383 0.634351 0.266875
H360  H     H_    0.994075 0.285163 0.621447 0.274590
H361  H     H_    0.991795 0.259546 0.664095 0.285685
O132  O     O_3   0.901687 0.701111 0.292912 -0.621801
C318  C     C_3   0.886640 0.677198 0.324119 0.165790
H362  H     H_    0.924119 0.658938 0.335133 0.217768
H363  H     H_    0.856565 0.643174 0.321535 0.101306
C319  C     C_3   0.864570 0.720557 0.348522 -0.362394
H364  H     H_    0.893302 0.755655 0.349555 0.235932
H365  H     H_    0.824304 0.735460 0.339573 0.278493
C320  C     C_3   0.857239 0.697518 0.383949 -0.941922
H366  H     H_    0.826730 0.663963 0.383793 0.266407
H367  H     H_    0.842464 0.730253 0.401099 0.263166
H368  H     H_    0.896724 0.681856 0.393655 0.280190
O133  O     O_3   0.853080 0.647514 0.811738 -0.639670
C321  C     C_3   0.818283 0.604667 0.822675 0.162370
H369  H     H_    0.844704 0.572292 0.833624 0.176033
H370  H     H_    0.794631 0.584841 0.801911 0.127572
C322  C     C_3   0.779046 0.624823 0.850121 -0.340911
H371  H     H_    0.802493 0.646087 0.870201 0.230767
H372  H     H_    0.749265 0.653929 0.839108 0.281139
C323  C     C_3   0.747329 0.577493 0.865705 -1.018794
H373  H     H_    0.722761 0.556311 0.846139 0.269538
H374  H     H_    0.719279 0.593312 0.885472 0.279035
H375  H     H_    0.775868 0.547876 0.877455 0.264406
O134  O     O_3   0.205936 0.405420 0.212288 -0.609998
C324  C     C_3   0.196386 0.399295 0.177296 0.184550
H376  H     H_    0.158347 0.421782 0.171074 0.195410
H377  H     H_    0.191273 0.356027 0.168767 0.121947
C325  C     C_3   0.243666 0.424909 0.157695 -0.329701
H378  H     H_    0.248162 0.468362 0.165309 0.208968
H379  H     H_    0.282269 0.403316 0.163860 0.256615
C326  C     C_3   0.234272 0.421546 0.119713 -0.973468
H380  H     H_    0.229709 0.378293 0.111682 0.275459
H381  H     H_    0.269755 0.439512 0.106230 0.261742
H382  H     H_    0.197011 0.444673 0.112653 0.296426
O135  O     O_3   0.345407 0.857852 0.809774 -0.628273
C327  C     C_3   0.377023 0.822429 0.829991 0.165361
H383  H     H_    0.412608 0.805771 0.815662 0.132434
H384  H     H_    0.351820 0.787921 0.839439 0.196542
C328  C     C_3   0.398508 0.854515 0.860297 -0.356806
H385  H     H_    0.429964 0.884026 0.851634 0.246243
H386  H     H_    0.364564 0.877946 0.872127 0.227372
C329  C     C_3   0.423354 0.816709 0.886709 -0.968953
H387  H     H_    0.390917 0.791448 0.898576 0.267345
H388  H     H_    0.443575 0.841425 0.906596 0.282915
H389  H     H_    0.453994 0.789211 0.874955 0.264470
O136  O     O_3   0.588371 0.210525 0.219799 -0.597447
C330  C     C_3   0.595742 0.208455 0.184440 0.179683
H390  H     H_    0.608113 0.166571 0.176394 0.137159
H391  H     H_    0.627539 0.238014 0.175998 0.178345
C331  C     C_3   0.542000 0.223076 0.167138 -0.302405
H392  H     H_    0.511364 0.190602 0.172270 0.233535
H393  H     H_    0.526265 0.262306 0.177470 0.224969
C332  C     C_3   0.549856 0.229036 0.129133 -1.002509
H394  H     H_    0.578692 0.262898 0.123575 0.271007
H395  H     H_    0.510121 0.238508 0.117017 0.264157
H396  H     H_    0.566328 0.190567 0.118306 0.291196
O137  O     O_3   0.162263 0.367991 0.810108 -0.607420
C333  C     C_3   0.205085 0.405151 0.816974 0.174504
H397  H     H_    0.214581 0.430860 0.794479 0.130241
H398  H     H_    0.242663 0.382815 0.824655 0.184257
C334  C     C_3   0.187913 0.442946 0.845807 -0.320271
H399  H     H_    0.151845 0.467387 0.837963 0.263018
H400  H     H_    0.176284 0.418130 0.868149 0.220954
C335  C     C_3   0.234239 0.481591 0.855478 -1.008223
H401  H     H_    0.269892 0.458014 0.864855 0.268760
H402  H     H_    0.220356 0.509634 0.875745 0.265525
H403  H     H_    0.246950 0.506326 0.833354 0.286682
O138  O     O_3   0.793938 0.596093 0.212621 -0.611237
C336  C     C_3   0.803841 0.602755 0.177695 0.183823
H404  H     H_    0.841584 0.579808 0.171320 0.196202
H405  H     H_    0.809661 0.646100 0.169536 0.122949
C337  C     C_3   0.756367 0.578200 0.157844 -0.329952
H406  H     H_    0.751059 0.534738 0.165181 0.210677
H407  H     H_    0.718050 0.600336 0.164063 0.256743
C338  C     C_3   0.766267 0.581920 0.119906 -0.974090
H408  H     H_    0.771123 0.625242 0.112131 0.275755
H409  H     H_    0.730890 0.564237 0.106237 0.262364
H410  H     H_    0.803536 0.558740 0.112811 0.295262
O139  O     O_3   0.663372 0.135222 0.808372 -0.632683
C339  C     C_3   0.627620 0.165298 0.829376 0.161248
H411  H     H_    0.590734 0.179299 0.815347 0.151752
H412  H     H_    0.648865 0.201607 0.839995 0.178718
C340  C     C_3   0.609348 0.128547 0.858456 -0.365490
H413  H     H_    0.592510 0.089859 0.848159 0.239182
H414  H     H_    0.645228 0.118270 0.874384 0.213963
C341  C     C_3   0.565815 0.156060 0.880227 -0.905687
H415  H     H_    0.581681 0.194897 0.890900 0.254057
H416  H     H_    0.554313 0.128523 0.901315 0.271605
H417  H     H_    0.528741 0.164641 0.865023 0.274882
O140  O     O_3   0.408377 0.791655 0.214719 -0.602014
C342  C     C_3   0.405173 0.810555 0.180971 0.198518
H418  H     H_    0.446842 0.824042 0.173517 0.191476
H419  H     H_    0.378007 0.846853 0.177866 0.109406
C343  C     C_3   0.387129 0.764742 0.157103 -0.346907
H420  H     H_    0.410715 0.726969 0.162613 0.250213
H421  H     H_    0.342993 0.756222 0.160931 0.265840
C344  C     C_3   0.396130 0.780527 0.120295 -0.979410
H422  H     H_    0.373022 0.818283 0.114141 0.283276
H423  H     H_    0.381630 0.747041 0.103664 0.268025
H424  H     H_    0.440284 0.787313 0.115348 0.265204
O141  O     O_3   0.841041 0.363120 0.189934 -0.620558
C345  C     C_3   0.798895 0.396829 0.176979 0.203760
H425  H     H_    0.810639 0.440244 0.180896 0.158935
H426  H     H_    0.758198 0.390842 0.189258 0.142098
C346  C     C_3   0.793318 0.386159 0.139136 -0.326682
H427  H     H_    0.832656 0.395728 0.126397 0.213411
H428  H     H_    0.783987 0.342309 0.134824 0.255268
C347  C     C_3   0.747934 0.420615 0.123591 -1.004908
H429  H     H_    0.708868 0.414554 0.137386 0.278938
H430  H     H_    0.741729 0.408511 0.096908 0.270444
H431  H     H_    0.759350 0.464360 0.124249 0.273645
O142  O     O_3   0.201358 0.598763 0.792543 -0.618153
C348  C     C_3   0.178263 0.614968 0.823801 0.166478
H432  H     H_    0.159631 0.578072 0.835313 0.218342
H433  H     H_    0.144715 0.645604 0.821188 0.095567
C349  C     C_3   0.222383 0.636821 0.847660 -0.354137
H434  H     H_    0.257091 0.607579 0.848637 0.241467
H435  H     H_    0.237713 0.676618 0.838253 0.283388
C350  C     C_3   0.200159 0.645497 0.883221 -0.958606
H436  H     H_    0.167219 0.676714 0.883042 0.263620
H437  H     H_    0.233498 0.660076 0.899901 0.266420
H438  H     H_    0.183947 0.606642 0.893551 0.281691
O143  O     O_3   0.336498 0.125441 0.190473 -0.640356
C351  C     C_3   0.367346 0.155011 0.166616 0.150024
H439  H     H_    0.406569 0.169241 0.177800 0.145347
H440  H     H_    0.344179 0.190941 0.157089 0.183373
C352  C     C_3   0.379732 0.117028 0.136979 -0.331103
H441  H     H_    0.402077 0.080567 0.146291 0.228338
H442  H     H_    0.340747 0.103189 0.125449 0.219085
C353  C     C_3   0.414337 0.145081 0.110203 -0.992717
H443  H     H_    0.393552 0.182401 0.100778 0.266881
H444  H     H_    0.420868 0.116623 0.088749 0.261073
H445  H     H_    0.454600 0.156193 0.120948 0.285230
O144  O     O_3   0.598753 0.797896 0.791260 -0.592639
C354  C     C_3   0.613830 0.807496 0.825176 0.166848
H446  H     H_    0.628468 0.850246 0.828375 0.123272
H447  H     H_    0.646792 0.779058 0.833297 0.181594
C355  C     C_3   0.564360 0.798799 0.848082 -0.310893
H448  H     H_    0.534980 0.832941 0.844441 0.262934
H449  H     H_    0.543623 0.759961 0.841207 0.216033
C356  C     C_3   0.581327 0.795934 0.885123 -0.893948
H450  H     H_    0.606116 0.832080 0.892201 0.297435
H451  H     H_    0.544560 0.794598 0.901502 0.276356
H452  H     H_    0.605863 0.758474 0.889693 0.245656
O145  O     O_3   0.156711 0.637093 0.189029 -0.619159
C357  C     C_3   0.199368 0.604189 0.175742 0.204228
H453  H     H_    0.188462 0.560556 0.179620 0.156645
H454  H     H_    0.240045 0.610822 0.187845 0.140274
C358  C     C_3   0.204526 0.614990 0.137890 -0.324825
H455  H     H_    0.165892 0.603057 0.125176 0.211222
H456  H     H_    0.211296 0.659283 0.133508 0.257710
C359  C     C_3   0.252008 0.583193 0.122403 -1.003798
H457  H     H_    0.290724 0.592624 0.135766 0.279754
H458  H     H_    0.256982 0.594594 0.095512 0.269869
H459  H     H_    0.243842 0.538774 0.123798 0.273091
O146  O     O_3   0.796237 0.404440 0.789360 -0.610275
C360  C     C_3   0.802110 0.386965 0.823113 0.151767
H460  H     H_    0.845256 0.375131 0.827841 0.136153
H461  H     H_    0.775333 0.351412 0.828988 0.180547
C361  C     C_3   0.786572 0.433951 0.846655 -0.305282
H462  H     H_    0.818166 0.466470 0.845111 0.242353
H463  H     H_    0.746839 0.451575 0.838569 0.216285
C362  C     C_3   0.781054 0.414632 0.883083 -0.965702
H464  H     H_    0.748843 0.382844 0.885114 0.266359
H465  H     H_    0.769176 0.449574 0.899382 0.252526
H466  H     H_    0.820335 0.397546 0.892220 0.296547
O147  O     O_3   0.665457 0.874582 0.191033 -0.641204
C363  C     C_3   0.634291 0.843612 0.168005 0.149593
H467  H     H_    0.596536 0.827413 0.180181 0.151827
H468  H     H_    0.658651 0.808856 0.157844 0.182240
C364  C     C_3   0.617887 0.880697 0.138756 -0.332927
H469  H     H_    0.595267 0.916603 0.148726 0.232088
H470  H     H_    0.655256 0.895665 0.125746 0.216470
C365  C     C_3   0.581865 0.850933 0.113395 -0.979095
H471  H     H_    0.603446 0.814612 0.103097 0.264858
H472  H     H_    0.572133 0.878983 0.092262 0.259325
H473  H     H_    0.543100 0.837818 0.125548 0.272699
O148  O     O_3   0.407585 0.208391 0.785084 -0.597584
C366  C     C_3   0.403704 0.188597 0.818636 0.201778
H474  H     H_    0.444933 0.173857 0.826007 0.188611
H475  H     H_    0.375604 0.152968 0.821392 0.105962
C367  C     C_3   0.386628 0.234117 0.843002 -0.379290
H476  H     H_    0.413513 0.270223 0.839343 0.245282
H477  H     H_    0.343761 0.246337 0.837869 0.271948
C368  C     C_3   0.390452 0.215205 0.879596 -0.919795
H478  H     H_    0.362894 0.179867 0.883970 0.270757
H479  H     H_    0.377941 0.249019 0.896631 0.261565
H480  H     H_    0.433041 0.203215 0.885806 0.288845

loop_
_geom_bond_atom_site_label_1
_geom_bond_atom_site_label_2
_ccdc_geom_bond_type
C356  H450  S    
C306  C307  S    
C285  H286  S    
C226  H116  S    
C302  H325  S    
C111  O15   A    
C222  H107  S    
C307  C308  S    
C322  H372  S    
C232  H134  S    
C122  O30   A    
O91   C247  S    
C291  C292  S    
C254  H200  S    
C10   C154  A    
C22   C150  A    
C276  H264  S    
C169  O109  S    
O61   C201  S    
O72   C228  S    
C248  H184  S    
C297  C298  S    
O46   Zn8   S    
C187  H24   S    
C8    C13   S    
C135  C143  S    
C14   C158  A    
C41   O141  S    
C323  H375  S    
C301  H323  S    
C347  H429  S    
C220  H102  S    
C19   O119  S    
O31   Zn13  S    
C246  H177  S    
C249  H185  S    
C233  H138  S    
C242  H165  S    
O9    Zn12  S    
C68   O56   S    
O20   Zn5   S    
C143  C144  T    
C4    C148  A    
O107  C263  S    
O3    Zn10  S    
C7    C14   S    
C192  H36   S    
C98   C108  S    
C299  H317  S    
C160  O100  S    
C255  H204  S    
C185  H19   S    
O145  C357  S    
C356  H451  S    
O13   Zn8   S    
C47   O147  S    
C265  H233  S    
O27   Zn10  S    
C65   O53   S    
C42   C170  A    
C223  C224  S    
C224  H111  S    
C317  H359  S    
C193  C194  S    
O147  C363  S    
C349  H435  S    
C289  H294  S    
C273  C274  S    
C58   C113  S    
O35   Zn9   S    
C257  H209  S    
C168  O108  S    
C276  H265  S    
C167  O107  S    
C319  C320  S    
O5    Zn16  S    
C47   C53   A    
C313  H351  S    
C318  H362  S    
C33   C59   A    
C64   C115  S    
O53   C177  S    
C124  O32   A    
C223  H109  S    
O40   Zn5   S    
C82   C98   A    
C76   O64   S    
O12   Zn13  S    
C366  H475  S    
C50   C121  S    
C303  C304  S    
C24   O124  S    
O38   Zn3   S    
O2    Zn11  S    
C324  H377  S    
C52   C127  S    
C72   C132  A    
C280  C281  S    
C38   C64   A    
O92   C248  S    
C360  H461  S    
C59   C120  S    
O16   Zn1   S    
C39   C61   A    
C54   C125  S    
C241  H162  S    
C331  H393  S    
C318  H363  S    
C108  O8    A    
C118  O48   A    
C198  H50   S    
C84   C100  A    
C311  H347  S    
C304  H329  S    
C342  C343  S    
C77   O65   S    
O104  C260  S    
C106  O10   A    
C217  H95   S    
C212  H84   S    
C93   C101  A    
C277  H267  S    
C244  H171  S    
C29   O129  S    
C3    C169  A    
O90   C246  S    
O86   C242  S    
C252  H194  S    
C151  O91   S    
C1    C171  A    
C263  H229  S    
C48   O148  S    
C215  H90   S    
C42   C52   A    
C286  C287  S    
C33   C161  A    
O101  C257  S    
C354  H447  S    
C310  H343  S    
C45   C173  A    
C40   O140  S    
C66   C82   A    
C240  H160  S    
C256  H207  S    
C211  H81   S    
O63   C207  S    
C218  H96   S    
C266  H238  S    
C243  H167  S    
C199  C200  S    
C206  H69   S    
C253  H197  S    
C309  H341  S    
C238  H153  S    
C235  H143  S    
C274  C275  S    
C295  H309  S    
C78   C134  A    
C232  H136  S    
C176  O116  S    
C67   C131  A    
C122  O44   A    
C235  H145  S    
O3    Zn7   S    
C227  H119  S    
C234  H141  S    
C183  H16   S    
C178  H4    S    
C237  H150  S    
C96   C104  A    
C268  H242  S    
C366  C367  S    
C343  H421  S    
C332  H396  S    
C174  O114  S    
O148  C366  S    
O43   Zn2   S    
O3    Zn3   S    
C130  C138  S    
C276  C277  S    
C79   C135  A    
C351  H439  S    
C261  H223  S    
C20   O120  S    
O2    Zn15  S    
C192  C193  S    
C44   C50   A    
C270  H249  S    
C297  H313  S    
C120  O46   A    
C197  H49   S    
C89   C101  A    
C61   C118  S    
C188  H28   S    
C108  O12   A    
C347  H431  S    
C17   O117  S    
C91   C103  A    
O88   C244  S    
C337  H407  S    
C139  C140  T    
C328  H386  S    
C23   C55   A    
C311  H345  S    
C22   O122  S    
C333  H398  S    
C190  C191  S    
C237  H151  S    
C264  H230  S    
C343  H420  S    
C100  C106  S    
C299  H319  S    
C103  C109  S    
O100  C256  S    
C74   C90   A    
C283  C284  S    
C212  H83   S    
C269  H245  S    
C316  H358  S    
C236  H147  S    
O117  C273  S    
C362  H466  S    
C104  C110  S    
C285  C286  S    
C96   O84   S    
C201  C202  S    
C111  O19   A    
C95   O83   S    
C78   C94   A    
C289  C290  S    
O50   Zn4   S    
C74   C134  A    
C275  H262  S    
C327  H383  S    
C340  C341  S    
C42   O142  S    
C210  C211  S    
C186  H23   S    
C365  H471  S    
C173  O113  S    
C354  C355  S    
C85   C97   A    
C92   C104  A    
O10   Zn11  S    
C97   C107  S    
C191  H33   S    
C364  C365  S    
C205  H66   S    
C247  H179  S    
O4    Zn8   S    
C71   C131  A    
C287  H290  S    
O78   C234  S    
C254  H202  S    
C159  O99   S    
C330  H390  S    
C336  H405  S    
C189  H29   S    
O14   Zn7   S    
O17   Zn4   S    
C298  H316  S    
O105  C261  S    
O109  C265  S    
O114  C270  S    
C41   C51   A    
C278  H270  S    
C184  H17   S    
O23   Zn14  S    
C128  O38   A    
C179  H5    S    
C317  H361  S    
C246  H178  S    
C3    C147  A    
O144  C354  S    
C255  H205  S    
C16   C160  A    
C220  H101  S    
C125  O39   A    
C1    C145  A    
C262  H224  S    
C203  H63   S    
C161  O101  S    
O6    Zn15  S    
C333  H397  S    
C262  H226  S    
C5    C149  A    
O139  C339  S    
C350  H437  S    
O77   C233  S    
C226  H117  S    
C178  H3    S    
C190  H31   S    
C4    C170  A    
O44   Zn1   S    
C309  C310  S    
C51   C128  S    
O130  C312  S    
C8    C152  A    
C291  H300  S    
O42   Zn7   S    
C115  O49   A    
C310  C311  S    
C282  H279  S    
C315  H355  S    
C136  C144  S    
C8    C174  A    
C113  O51   A    
C209  H75   S    
O26   Zn15  S    
C266  H236  S    
C243  H169  S    
C119  O45   A    
C329  H388  S    
C195  H43   S    
C60   C119  S    
C68   C132  A    
C298  H315  S    
O99   C255  S    
C284  H283  S    
C90   C102  A    
C62   C117  S    
C319  H365  S    
O120  C282  S    
C156  O96   S    
C191  H35   S    
C112  O20   A    
O71   C227  S    
C195  H44   S    
O76   C232  S    
C320  H367  S    
C216  C217  S    
C366  H474  S    
C20   C148  A    
O19   Zn6   S    
C80   O68   S    
C226  H118  S    
C21   C149  A    
C344  H423  S    
O47   Zn5   S    
C351  C352  S    
C75   C91   A    
C88   O76   S    
C251  H192  S    
C355  H448  S    
C9    C153  A    
C187  C188  S    
C272  H254  S    
O85   C241  S    
C217  H94   S    
C9    C163  A    
C200  H55   S    
C341  H417  S    
C25   O125  S    
C284  H282  S    
C1    C12   S    
C25   C57   A    
C12   C156  A    
O11   Zn14  S    
C46   O146  S    
C2    C11   S    
C308  H338  S    
C13   C157  A    
C346  H428  S    
C95   C103  A    
O57   C189  S    
C28   C60   A    
C264  H232  S    
C367  H477  S    
C300  H321  S    
C28   O128  S    
C357  H453  S    
C281  H277  S    
C31   C63   A    
C250  H190  S    
C18   O118  S    
C361  H462  S    
C32   C64   A    
C219  H100  S    
C303  H328  S    
C352  C353  S    
C17   C49   A    
C362  H464  S    
O2    Zn6   S    
C125  O33   A    
C201  H57   S    
C127  O37   A    
C37   C165  A    
C318  C319  S    
C197  H47   S    
C74   O62   S    
O129  C309  S    
C115  O23   A    
C327  C328  S    
C38   O138  S    
C240  H159  S    
C6    C150  A    
C82   O70   S    
O93   C249  S    
C83   O71   S    
C314  H353  S    
O36   Zn10  S    
C301  C302  S    
C364  H469  S    
C247  H181  S    
C149  O89   S    
C302  H324  S    
C150  O90   S    
C263  H228  S    
O81   C237  S    
O65   C213  S    
C129  C137  S    
C323  H373  S    
O97   C253  S    
C92   O80   S    
C296  H311  S    
C94   C102  A    
O68   C222  S    
C199  H52   S    
C126  O40   A    
C146  O86   S    
C179  H7    S    
C69   C129  A    
O142  C348  S    
C290  H297  S    
C66   O54   S    
O121  C285  S    
C194  H40   S    
C326  H381  S    
C124  O42   A    
C225  H113  S    
C120  O28   A    
C273  H258  S    
C210  H78   S    
C204  H65   S    
O87   C243  S    
C214  C215  S    
C208  H73   S    
C69   C85   A    
C279  H271  S    
C214  H88   S    
O137  C333  S    
C358  C359  S    
C84   O72   S    
O98   C254  S    
C193  H38   S    
C196  C197  S    
C249  H187  S    
O51   Zn1   S    
C215  H89   S    
C221  H103  S    
O18   Zn3   S    
C275  H263  S    
O33   Zn11  S    
C219  H99   S    
C34   C162  A    
C305  H333  S    
O55   C183  S    
C349  C350  S    
C27   C155  A    
C248  H183  S    
C187  H25   S    
C195  C196  S    
C202  C203  S    
C180  C181  S    
C21   O121  S    
C347  H430  S    
C213  H85   S    
C31   O131  S    
C181  H10   S    
C292  C293  S    
C249  H186  S    
C158  O98   S    
C233  H139  S    
C191  H34   S    
C322  C323  S    
C299  H318  S    
C285  H285  S    
C330  C331  S    
C185  H20   S    
O136  C330  S    
C258  H214  S    
C265  H234  S    
C131  C139  S    
C245  H173  S    
C114  O52   A    
O75   C231  S    
C118  O26   A    
C294  C295  S    
C37   O137  S    
O62   C204  S    
C251  H193  S    
C225  H115  S    
C289  H295  S    
O124  C294  S    
C114  O22   A    
C308  H340  S    
C46   C56   A    
C238  H152  S    
C90   O78   S    
C341  H415  S    
C325  H379  S    
C199  H53   S    
C69   O57   S    
C339  H412  S    
C105  O5    A    
C353  H443  S    
O29   Zn15  S    
C229  H126  S    
C170  O110  S    
C228  H122  S    
C241  H163  S    
C171  O111  S    
C208  C209  S    
C48   C176  A    
C177  C178  S    
C184  C185  S    
C34   C60   A    
C215  H91   S    
O141  C345  S    
C303  H327  S    
C270  H250  S    
C185  H21   S    
C348  H433  S    
C348  H432  S    
C102  C112  S    
C250  H188  S    
C361  C362  S    
C121  O29   A    
O119  C279  S    
C338  H410  S    
C363  H467  S    
O48   Zn6   S    
O52   Zn2   S    
O110  C266  S    
C270  H248  S    
C280  H274  S    
C360  H460  S    
C335  H401  S    
C67   C83   A    
O39   Zn6   S    
O69   C225  S    
O25   Zn16  S    
O96   C252  S    
C277  H266  S    
C342  H419  S    
C203  H62   S    
O140  C342  S    
C312  C313  S    
C334  H400  S    
O7    Zn10  S    
C244  H170  S    
O32   Zn14  S    
C218  H98   S    
C75   C135  A    
C260  H220  S    
O70   C226  S    
C306  H334  S    
C11   C161  A    
C188  H27   S    
C239  H155  S    
C30   C158  A    
C188  H26   S    
C306  H335  S    
C307  H336  S    
C200  H54   S    
C175  O115  S    
C286  H288  S    
C304  H330  S    
O64   C210  S    
O108  C264  S    
C24   C152  A    
C345  C346  S    
C272  H255  S    
C177  H1    S    
C342  H418  S    
C359  H457  S    
C178  C179  S    
C243  H168  S    
C253  H198  S    
C186  H22   S    
C325  C326  S    
C321  H369  S    
O125  C297  S    
C274  H260  S    
C335  H403  S    
C30   O130  S    
C166  O106  S    
C227  H120  S    
O60   C198  S    
C123  O41   A    
C302  H326  S    
C89   O77   S    
C196  H45   S    
C29   C61   A    
C83   C99   A    
O94   C250  S    
C222  C223  S    
C345  H426  S    
C232  H135  S    
C288  H293  S    
C43   C171  A    
C181  C182  S    
C75   O63   S    
O80   C236  S    
C202  H60   S    
C351  H440  S    
C211  H80   S    
C317  H360  S    
C228  H123  S    
C202  H59   S    
C297  H314  S    
C206  H70   S    
C253  H199  S    
C189  C190  S    
C25   C153  A    
C230  H128  S    
C68   C84   A    
C93   O81   S    
C220  C221  S    
C119  O27   A    
C271  H251  S    
C278  H269  S    
C292  H301  S    
C81   O69   S    
C233  H137  S    
C259  H215  S    
C242  H166  S    
C29   C157  A    
C338  H409  S    
C358  H455  S    
C19   C147  A    
C316  H357  S    
C255  H203  S    
C35   O135  S    
C345  H425  S    
C21   C53   A    
C356  H452  S    
C269  H246  S    
O79   C235  S    
C56   C123  S    
C79   C95   A    
C236  H146  S    
C229  H125  S    
C112  O16   A    
C65   C81   A    
C280  H273  S    
C367  C368  S    
C37   C63   A    
C321  C322  S    
C327  H384  S    
C210  H79   S    
C324  H376  S    
C325  H378  S    
C340  H413  S    
C365  H472  S    
C26   C58   A    
O135  C327  S    
C43   O143  S    
C88   C100  A    
C192  H37   S    
C357  H454  S    
C164  O104  S    
C71   C87   A    
C63   C116  S    
C45   O145  S    
C313  H350  S    
C364  H470  S    
C247  H180  S    
C22   C54   A    
C254  H201  S    
C117  O47   A    
C223  H108  S    
C348  C349  S    
C334  C335  S    
C269  H247  S    
C213  H86   S    
C338  H408  S    
C363  C364  S    
O8    Zn9   S    
C278  H268  S    
C272  H256  S    
O126  C300  S    
C18   C50   A    
C267  H241  S    
C179  H6    S    
C360  C361  S    
C38   C166  A    
C78   O66   S    
C241  H161  S    
C275  H261  S    
C91   O79   S    
C227  H121  S    
C44   O144  S    
C121  O43   A    
C309  H342  S    
C277  C278  S    
O30   Zn16  S    
C350  H438  S    
C323  H374  S    
C339  H411  S    
C244  H172  S    
C281  H276  S    
O111  C267  S    
C262  H225  S    
O2    Zn2   S    
C341  H416  S    
C132  C140  S    
C198  C199  S    
C27   O127  S    
C162  O102  S    
C260  H219  S    
C133  C141  S    
C80   C136  A    
C239  H157  S    
C33   O133  S    
C35   C57   A    
C316  C317  S    
C213  C214  S    
C332  H395  S    
C252  H196  S    
O132  C318  S    
C230  H130  S    
C73   C89   A    
C305  H331  S    
C310  H344  S    
C332  H394  S    
C128  O36   A    
C153  O93   S    
C261  H221  S    
C209  H76   S    
C353  H445  S    
C359  H459  S    
C240  H158  S    
C101  C111  S    
O45   Zn7   S    
C77   C93   A    
C357  C358  S    
C81   C97   A    
C110  O14   A    
C238  H154  S    
O15   Zn2   S    
C354  H446  S    
C207  C208  S    
C85   O73   S    
C295  H308  S    
C86   C98   A    
C324  C325  S    
C86   O74   S    
C211  C212  S    
C147  O87   S    
C46   C174  A    
C234  H142  S    
O58   C192  S    
C183  H15   S    
C20   C52   A    
C237  H149  S    
C55   C124  S    
C281  H275  S    
C222  H106  S    
C36   C164  A    
C70   O58   S    
O128  C306  S    
C157  O97   S    
C283  H280  S    
C141  C142  T    
C334  H399  S    
O24   Zn13  S    
C320  H366  S    
O67   C219  S    
O138  C336  S    
C301  H322  S    
C209  H77   S    
C304  C305  S    
C355  H449  S    
C326  H380  S    
C41   C169  A    
O74   C230  S    
C218  H97   S    
C322  H371  S    
C17   C145  A    
C328  H385  S    
C27   C59   A    
C271  H253  S    
C24   C56   A    
C352  H441  S    
C337  H406  S    
C259  H216  S    
C230  H129  S    
C224  H110  S    
C76   C136  A    
C328  C329  S    
C242  H164  S    
O123  C291  S    
C23   O123  S    
C288  H292  S    
C231  H131  S    
C48   C54   A    
C264  H231  S    
C194  H42   S    
C116  O50   A    
C300  H320  S    
O49   Zn3   S    
C182  H14   S    
C15   C165  A    
C365  H473  S    
C350  H436  S    
C346  H427  S    
C250  H189  S    
C361  H463  S    
C214  H87   S    
C180  H8    S    
C236  H148  S    
C36   C58   A    
C352  H442  S    
O1    Zn1   S    
C116  O24   A    
O21   Zn12  S    
C201  H58   S    
C13   C167  A    
C355  C356  S    
C134  C142  S    
C331  H392  S    
C330  H391  S    
C43   C49   A    
C246  H176  S    
C107  O11   A    
O116  C272  S    
C40   C62   A    
C94   O82   S    
C295  C296  S    
C259  H217  S    
C368  H478  S    
C186  C187  S    
C105  O9    A    
C44   C172  A    
C207  H71   S    
C5    C16   S    
C70   C130  A    
C6    C15   S    
C311  H346  S    
C261  H222  S    
C172  O112  S    
C313  C314  S    
C106  O6    A    
C290  H296  S    
C109  O13   A    
C287  H289  S    
C343  C344  S    
C219  C220  S    
C110  O18   A    
C336  C337  S    
C197  H48   S    
O83   C239  S    
O4    Zn13  S    
C80   C96   A    
C2    C172  A    
C296  H310  S    
C307  H337  S    
C312  H348  S    
C145  O85   S    
C331  C332  S    
C256  H208  S    
C336  H404  S    
C87   O75   S    
O133  C321  S    
C225  H114  S    
C109  O17   A    
C293  H303  S    
C77   C133  A    
C257  H211  S    
C217  C218  S    
C117  O25   A    
C263  H227  S    
O41   Zn8   S    
C205  H67   S    
C72   C88   A    
C279  H272  S    
C252  H195  S    
C87   C99   A    
C358  H456  S    
C294  H306  S    
C72   O60   S    
C190  H32   S    
C99   C105  S    
C35   C163  A    
C177  H2    S    
C196  H46   S    
C266  H237  S    
O102  C258  S    
C221  H104  S    
C344  H422  S    
C113  O21   A    
C291  H299  S    
C229  H127  S    
C181  H11   S    
C126  O34   A    
C282  C283  S    
C16   C166  A    
O95   C251  S    
C73   O61   S    
O66   C216  S    
O1    Zn5   S    
C267  H240  S    
C293  H305  S    
C248  H182  S    
C205  C206  S    
C346  C347  S    
C12   C162  A    
C221  H105  S    
O143  C351  S    
C107  O7    A    
C193  H39   S    
C204  C205  S    
O34   Zn12  S    
C207  H72   S    
C284  H284  S    
C198  H51   S    
C349  H434  S    
O131  C315  S    
C260  H218  S    
C319  H364  S    
C283  H281  S    
C65   C129  A    
C292  H302  S    
C258  H212  S    
C67   O55   S    
C234  H140  S    
C183  C184  S    
C165  O105  S    
C305  H332  S    
C320  H368  S    
C212  H82   S    
O54   C180  S    
O1    Zn16  S    
C123  O31   A    
O22   Zn11  S    
C208  H74   S    
C39   O139  S    
O106  C262  S    
O122  C288  S    
C344  H424  S    
C293  H304  S    
C258  H213  S    
C265  H235  S    
C45   C55   A    
C32   O132  S    
O37   Zn4   S    
C245  H174  S    
C76   C92   A    
O1    Zn12  S    
C5    C175  A    
C127  O35   A    
C251  H191  S    
C294  H307  S    
C73   C133  A    
C329  H387  S    
C368  H479  S    
C308  H339  S    
C314  H352  S    
C298  C299  S    
C200  H56   S    
C7    C151  A    
C26   C154  A    
C235  H144  S    
C353  H444  S    
O127  C303  S    
C70   C86   A    
C337  C338  S    
C71   O59   S    
C333  C334  S    
C224  H112  S    
C267  H239  S    
C335  H402  S    
C36   O136  S    
O113  C269  S    
O89   C245  S    
C288  C289  S    
C163  O103  S    
C184  H18   S    
C282  H278  S    
C23   C151  A    
C367  H476  S    
O4    Zn4   S    
C300  C301  S    
C10   C164  A    
C152  O92   S    
C34   O134  S    
C296  H312  S    
O56   C186  S    
C79   O67   S    
O28   Zn9   S    
C18   C146  A    
C245  H175  S    
C363  H468  S    
C15   C159  A    
C257  H210  S    
C57   C114  S    
O115  C271  S    
C11   C155  A    
C2    C146  A    
C329  H389  S    
C339  C340  S    
C137  C138  T    
C268  H243  S    
C368  H480  S    
O118  C276  S    
C231  H132  S    
C30   C62   A    
O134  C324  S    
C4    C9    S    
C194  H41   S    
C312  H349  S    
C3    C10   S    
C182  H13   S    
C279  C280  S    
O82   C238  S    
C231  H133  S    
C204  H64   S    
C340  H414  S    
C206  H68   S    
O73   C229  S    
C216  H92   S    
C6    C176  A    
O4    Zn9   S    
C148  O88   S    
C287  H291  S    
C182  H12   S    
C49   C122  S    
C7    C173  A    
C315  H356  S    
O84   C240  S    
C26   O126  S    
C228  H124  S    
C239  H156  S    
C189  H30   S    
C315  C316  S    
C39   C167  A    
C286  H287  S    
C314  H354  S    
C47   C175  A    
C40   C168  A    
O3    Zn14  S    
C53   C126  S    
O103  C259  S    
C19   C51   A    
C216  H93   S    
O146  C360  S    
C359  H458  S    
C256  H206  S    
C326  H382  S    
C155  O95   S    
C28   C156  A    
C203  H61   S    
C273  H257  S    
C271  H252  S    
C268  H244  S    
C321  H370  S    
C32   C160  A    
C274  H259  S    
C180  H9    S    
C14   C168  A    
C362  H465  S    
C154  O94   S    
C31   C159  A    
C290  H298  S    
O59   C195  S    
O112  C268  S    
C66   C130  A    
