data_mof_unit_41153.cif
_audit_creation_date              2013-03-05T16:07:19-0500
_audit_creation_method            fapswitch 2.2
_symmetry_space_group_name_H-M    P1
_symmetry_Int_Tables_number       1
_space_group_crystal_system       triclinic
_cell_length_a                    6.962051
_cell_length_b                    13.597821
_cell_length_c                    20.274886
_cell_angle_alpha                 103.211666
_cell_angle_beta                  90.569242
_cell_angle_gamma                 90.002195
_cell_volume                      1868.49822571

loop_
_atom_site_label
_atom_site_type_symbol
_atom_site_description
_atom_site_fract_x
_atom_site_fract_y
_atom_site_fract_z
_atom_type_partial_charge
O1    O     O_R   0.506770 0.599700 0.449550 -0.587394
O2    O     O_R   0.179980 0.595740 0.587960 -0.599841
O3    O     O_R   0.004580 0.400300 0.550450 -0.604780
C1    C     C_R   0.348108 0.615394 0.615746 0.985827
O4    O     O_R   0.177380 0.611700 0.452380 -0.587194
O5    O     O_R   0.001970 0.416370 0.413900 -0.571909
C2    C     C_R   0.345754 0.638865 0.436546 1.068717
O6    O     O_R   0.509390 0.583630 0.586100 -0.597656
O7    O     O_3   0.337530 0.435890 0.487530 -0.260623
V1    V     V_3+5 0.064660 0.511890 0.502310 1.217269
O8    O     O_R   0.671950 0.404260 0.412040 -0.554112
C3    C     C_R   0.839860 0.382712 0.384888 0.938931
O9    O     O_R   0.674540 0.388300 0.547620 -0.600780
C4    C     C_R   0.844919 0.361852 0.564435 0.911109
V2    V     V_3+5 0.564030 0.488110 0.497690 1.223736
O10   O     O_3   0.841030 0.564110 0.512470 -0.273272
C5    C     C_R   0.037953 0.137268 0.619589 -0.120220
H1    H     H_    0.016530 0.181480 0.525055 0.117068
H2    H     H_    0.163621 0.038140 0.709512 0.173096
H3    H     H_    0.124345 0.071702 0.597976 0.166370
C6    C     C_R   0.865742 0.284970 0.604200 -0.099293
C7    C     C_R   0.747166 0.304128 0.926230 -0.256279
C8    C     C_R   0.697228 0.376196 0.889701 0.441814
C9    C     C_R   0.743346 0.358437 0.820880 -0.317927
C10   C     C_R   0.846366 0.271456 0.788338 0.052593
C11   C     C_R   0.912192 0.204187 0.828384 0.097994
C12   C     C_R   0.885144 0.248618 0.717231 0.121487
C13   C     C_R   0.997698 0.162226 0.689026 0.133202
C14   C     C_R   0.073383 0.102482 0.730446 -0.149010
C15   C     C_R   0.032356 0.123460 0.799046 -0.115689
C16   C     C_R   0.817810 0.308579 0.672957 -0.238898
C17   C     C_R   0.974346 0.198800 0.577755 -0.150323
C18   C     C_R   0.852422 0.218067 0.896546 -0.246405
H4    H     H_    0.736306 0.376700 0.690555 0.109994
H5    H     H_    0.701808 0.314104 0.978163 0.216963
H6    H     H_    0.698978 0.414625 0.794260 0.164764
H7    H     H_    0.094728 0.074715 0.828727 0.172122
C19   C     C_R   0.765043 0.276595 0.196121 0.052146
C20   C     C_R   0.867283 0.185658 0.183378 -0.179802
C21   C     C_R   0.976373 0.164949 0.237667 -0.053706
H8    H     H_    0.061821 0.097038 0.230128 0.158985
C22   C     C_R   0.967001 0.228732 0.303364 -0.049348
H9    H     H_    0.048210 0.208946 0.344290 0.128895
C23   C     C_R   0.848632 0.315115 0.316455 -0.121176
C24   C     C_R   0.755151 0.338853 0.260597 -0.004974
C25   C     C_3   0.556335 0.372891 0.248734 0.189434
C26   C     C_3   0.566706 0.303409 0.177943 0.206252
H10   H     H_    0.549924 0.454859 0.249601 0.112707
H11   H     H_    0.465736 0.238267 0.168382 0.188030
C27   C     C_R   0.502690 0.750385 0.705688 0.185590
C28   C     C_R   0.351311 0.683377 0.684071 -0.215991
C29   C     C_R   0.195355 0.686389 0.728504 -0.140860
H12   H     H_    0.075502 0.635277 0.713900 0.126833
C30   C     C_R   0.198057 0.750787 0.793821 -0.030347
H13   H     H_    0.081170 0.747395 0.827912 0.136982
C31   C     C_R   0.355738 0.814666 0.816217 -0.267711
C32   C     C_R   0.504932 0.813987 0.770280 0.137234
C33   C     C_3   0.713053 0.795942 0.779313 0.304561
C34   C     C_3   0.710895 0.727217 0.708873 -0.570762
H14   H     H_    0.743053 0.756573 0.820689 0.085883
H15   H     H_    0.736347 0.646529 0.708990 0.158840
H16   H     H_    0.794529 0.756014 0.670771 0.256615
C35   C     C_R   0.387214 0.893229 0.395380 -0.216397
H17   H     H_    0.416750 0.019464 0.315980 0.185858
H18   H     H_    0.403802 0.971642 0.421891 0.156052
C36   C     C_R   0.354472 0.718223 0.399140 -0.250138
C37   C     C_R   0.327853 0.689889 0.073870 -0.154758
C38   C     C_R   0.306210 0.615160 0.109405 0.069105
C39   C     C_R   0.316235 0.638787 0.179616 -0.155683
C40   C     C_R   0.348027 0.739311 0.216858 0.051119
C41   C     C_R   0.368071 0.817608 0.180432 -0.026185
C42   C     C_R   0.357589 0.764096 0.289246 0.118979
C43   C     C_R   0.380449 0.866305 0.324275 0.048787
C44   C     C_R   0.398049 0.941531 0.288571 -0.273744
C45   C     C_R   0.394554 0.919226 0.218226 0.372031
C46   C     C_R   0.346387 0.690709 0.328460 -0.283148
C47   C     C_R   0.374007 0.819713 0.432905 0.460339
C48   C     C_R   0.358382 0.790207 0.108009 -0.191948
H19   H     H_    0.333927 0.611119 0.306109 0.135344
H20   H     H_    0.317973 0.669504 0.019019 0.150768
H21   H     H_    0.295270 0.576108 0.202931 0.138377
H22   H     H_    0.279676 0.537981 0.082275 0.185442
O11   O     O_R   0.203450 0.916320 0.913910 -0.585992
O12   O     O_R   0.535520 0.888300 0.047620 -0.577795
O13   O     O_R   0.710860 0.083650 0.086100 -0.555606
C49   C     C_R   0.367421 0.863521 0.065611 1.044041
O14   O     O_R   0.532860 0.904250 0.912040 -0.590127
O15   O     O_R   0.708190 0.099710 0.949550 -0.579943
C50   C     C_R   0.363904 0.881634 0.885115 0.954087
O16   O     O_R   0.206120 0.900260 0.050460 -0.596355
O17   O     O_3   0.375280 0.064080 0.012470 -0.250025
V3    V     V_3+5 0.648180 0.988110 0.997690 1.253270
O18   O     O_R   0.038220 0.111740 0.952370 -0.606120
C51   C     C_R   0.868670 0.137532 0.934600 1.017938
O19   O     O_R   0.040880 0.095790 0.087940 -0.573681
C52   C     C_R   0.872803 0.117213 0.115154 0.985551
V4    V     V_3+5 0.148800 0.011950 0.002300 1.240345
O20   O     O_3   0.871820 0.935920 0.987530 -0.279148
Cl1   Cl    Cl    0.381204 0.331998 0.300129 -0.658260
Cl2   Cl    Cl    0.568373 0.371736 0.112830 -0.669245
Cl3   Cl    Cl    0.844969 0.908791 0.784213 -0.688009
Cl4   Cl    Cl    0.384213 0.856674 0.522030 -0.689340
Cl5   Cl    Cl    0.426160 0.025954 0.183905 -0.699907
N1    N     N_R   0.595461 0.466312 0.922094 0.234851
O21   O     O_R   0.570598 0.488121 0.987314 -0.379547
O22   O     O_R   0.531802 0.528981 0.887137 -0.446952

loop_
_geom_bond_atom_site_label_1
_geom_bond_atom_site_label_2
_geom_bond_distance
_ccdc_geom_bond_type
C25   Cl1   1.780934 S    
C35   H18   1.084387 S    
O18   C51   1.302123 A    
C43   C44   1.387661 A    
O19   C52   1.303058 A    
C46   H19   1.076664 S    
C42   C46   1.413461 A    
C18   C51   1.480471 S    
N1    O22   1.301848 A    
V4    O20   2.173452 S    
V3    O20   1.705852 S    
C26   H11   1.111347 S    
C24   C25   1.494096 S    
C29   H12   1.080727 S    
C7    H5    1.080802 S    
C6    C16   1.400884 A    
C9    H6    1.075016 S    
C27   C34   1.487292 S    
C4    C6    1.465232 S    
C13   C14   1.394968 A    
O12   C49   1.296480 A    
O5    C3    1.301140 A    
C19   C20   1.400046 A    
O13   C52   1.300122 A    
C33   H14   1.111645 S    
V2    O10   2.173398 S    
C5    H3    1.084135 S    
C31   C32   1.400622 A    
C36   C47   1.399275 A    
C19   C24   1.387909 A    
C30   H13   1.080664 S    
O8    V2    2.000264 S    
O15   V3    2.028578 S    
C38   C39   1.386897 A    
C8    C9    1.401168 A    
C40   C41   1.435219 A    
O1    V2    2.020716 S    
O7    V1    2.153297 S    
O16   V4    2.022231 S    
C1    O6    1.305152 A    
C48   C49   1.459277 S    
C21   C22   1.415757 A    
O14   V3    2.006879 S    
C45   Cl5   1.761642 S    
C27   C32   1.394673 A    
C47   Cl4   1.762156 S    
C37   C48   1.396613 A    
C22   C23   1.411097 A    
N1    O21   1.300680 A    
O13   V3    2.002802 S    
C29   C30   1.410800 A    
C30   C31   1.405538 A    
O11   C50   1.303196 A    
C6    C17   1.397519 A    
O15   C51   1.297159 A    
C34   H15   1.111930 S    
C44   C45   1.388647 A    
C1    C28   1.479218 S    
C12   C16   1.420047 A    
C28   C29   1.412347 A    
C9    C10   1.414706 A    
C49   O16   1.291653 A    
O17   V3    2.153298 S    
O4    C2    1.294326 A    
C35   C43   1.404272 A    
C33   C34   1.517475 S    
C26   Cl2   1.779645 S    
C37   C38   1.382434 A    
C15   H7    1.080369 S    
O2    C1    1.294979 A    
C14   C15   1.387078 A    
C11   C18   1.418036 A    
C8    N1    1.440948 S    
C36   C46   1.396423 A    
C27   C28   1.393275 A    
C16   H4    1.077174 S    
C33   Cl3   1.770998 S    
O17   V4    1.719833 S    
C19   C26   1.492254 S    
O3    C4    1.289685 A    
C21   H8    1.080436 S    
C11   C15   1.403632 A    
O6    V2    1.998547 S    
O14   C50   1.298725 A    
H1    C17   1.083783 S    
C22   H9    1.083182 S    
O2    V1    2.006829 S    
O18   V4    2.017730 S    
C20   C21   1.411648 A    
C23   C24   1.400989 A    
C35   C47   1.391266 A    
C7    C18   1.398407 A    
C25   C26   1.529736 S    
C31   C50   1.483491 S    
C34   H16   1.111899 S    
O1    C2    1.291558 A    
C5    C13   1.401835 A    
C37   H20   1.084395 S    
C42   C43   1.417003 A    
O5    V1    2.002697 S    
O8    C3    1.301750 A    
O19   V4    2.000064 S    
C10   C12   1.432077 A    
C38   H22   1.082652 S    
O9    V2    2.017758 S    
C10   C11   1.427628 A    
O4    V1    2.031346 S    
C3    C23   1.480682 S    
O3    V1    2.028566 S    
V1    O10   1.705946 S    
C2    C36   1.455447 S    
C41   C45   1.429582 A    
C32   C33   1.486101 S    
O7    V2    1.720428 S    
C39   C40   1.418609 A    
C20   C52   1.481095 S    
C39   H21   1.075502 S    
C25   H10   1.111604 S    
O11   V4    1.998924 S    
C12   C13   1.422319 A    
C5    C17   1.390160 A    
H17   C44   1.085418 S    
C7    C8    1.398699 A    
C40   C42   1.429685 A    
O12   V3    2.031183 S    
O9    C4    1.304086 A    
C41   C48   1.430890 A    
H2    C14   1.084400 S    
