data_mof_unit_48691.cif
_audit_creation_date              2012-10-26T18:52:44-0400
_audit_creation_method            fapswitch 2.2
_symmetry_space_group_name_H-M    P1
_symmetry_Int_Tables_number       1
_space_group_crystal_system       triclinic
_cell_length_a                    10.787523
_cell_length_b                    14.695052
_cell_length_c                    14.53652
_cell_angle_alpha                 65.499257
_cell_angle_beta                  102.872142
_cell_angle_gamma                 103.165986
_cell_volume                      2020.23758721

loop_
_atom_site_label
_atom_site_type_symbol
_atom_type_description
_atom_site_fract_x
_atom_site_fract_y
_atom_site_fract_z
_atom_type_partial_charge
C1    C     C_R   0.479059 0.119651 0.311243 0.564806
C2    C     C_R   0.473837 0.361761 0.076088 -0.069103
C3    C     C_R   0.411722 0.324851 0.998129 0.018916
C4    C     C_R   0.260391 0.998681 0.502762 0.577571
C5    C     C_R   0.508233 0.467935 0.052210 -0.014019
C6    C     C_R   0.471044 0.536139 0.951923 -0.029812
C7    C     C_R   0.393063 0.497230 0.880920 -0.134492
C8    C     C_R   0.369883 0.394036 0.899938 0.284396
C9    C     C_R   0.579586 0.508303 0.124987 -0.110522
C10   C     C_R   0.607671 0.612178 0.101578 0.251963
C11   C     C_R   0.576708 0.679796 0.001131 0.060993
C12   C     C_3   0.877917 0.999560 0.499082 0.064113
C13   C     C_R   0.511589 0.641829 0.925222 -0.011821
C14   C     C_R   0.614082 0.784820 0.974380 -0.127919
C15   C     C_R   0.592259 0.851556 0.873006 -0.165634
C16   C     C_R   0.521681 0.880656 0.688197 0.555216
C17   C     C_R   0.496259 0.710384 0.823222 -0.133091
C18   C     C_R   0.728534 0.291593 0.659408 -0.154622
C19   C     C_R   0.689295 0.207559 0.632571 0.015241
C20   C     C_R   0.516062 0.282819 0.514380 0.031934
C21   C     C_R   0.549279 0.370055 0.540037 -0.045976
C22   C     C_R   0.659538 0.373812 0.613150 0.036987
C23   C     C_3   0.931137 0.922653 0.605321 0.140697
C24   C     C_R   0.476594 0.452397 0.496536 -0.001644
C25   C     C_R   0.520984 0.541474 0.519838 -0.022611
C26   C     C_R   0.633563 0.542546 0.590790 -0.145415
C27   C     C_R   0.698498 0.458644 0.640304 0.246713
C28   C     C_R   0.739820 0.001087 0.497579 0.603586
C29   C     C_R   0.358617 0.446978 0.432722 -0.164977
C30   C     C_R   0.286405 0.524775 0.393046 -0.118841
C31   C     C_R   0.329121 0.613128 0.412693 0.009138
C32   C     C_R   0.448332 0.624730 0.473768 -0.064599
C33   C     C_R   0.250216 0.688698 0.372921 0.198314
C34   C     C_3   0.957871 0.106404 0.483998 -0.280590
C35   C     C_R   0.300942 0.785871 0.376314 0.403636
C36   C     C_R   0.486445 0.718176 0.487746 -0.056209
C37   C     C_3   0.039982 0.975337 0.411620 -0.211748
C38   C     C_3   0.894903 0.969902 0.411481 0.143748
C39   C     C_3   0.076792 0.922197 0.607235 0.174603
C40   C     C_3   0.101156 0.105573 0.487064 -0.307569
C41   C     C_3   0.122805 0.998353 0.503122 -0.019976
C42   C     C_3   0.342261 0.406239 0.733272 -0.115312
C43   C     C_3   0.596046 0.658303 0.230039 -0.022526
C44   C     C_3   0.673080 0.714034 0.297576 -0.385590
C45   C     C_R   0.465137 0.187256 0.201619 -0.049676
C46   C     C_3   0.418602 0.175169 0.894322 -0.077646
C47   C     C_3   0.502865 0.013362 0.144780 0.016100
C48   C     C_3   0.465170 0.912361 0.132605 -0.378299
C49   C     C_3   0.758528 0.437136 0.806946 -0.025763
C50   C     C_3   0.871586 0.424306 0.892838 -0.369203
C51   C     C_3   0.144443 0.866018 0.239131 0.015110
C52   C     C_3   0.117817 0.970663 0.162198 -0.350736
C53   C     C_3   0.829314 0.999042 0.238648 -0.031201
C54   C     C_3   0.834680 0.087462 0.135939 -0.381602
C55   C     C_3   0.049123 0.620787 0.416526 -0.031898
C56   C     C_R   0.535758 0.814084 0.796723 -0.001211
C57   C     C_3   0.933275 0.549526 0.391226 -0.366759
C58   C     C_3   0.073446 0.762864 0.594765 0.019027
C59   C     C_3   0.057649 0.652759 0.668509 -0.347328
C60   C     C_3   0.840766 0.776397 0.729574 -0.115864
C61   C     C_R   0.389777 0.219007 0.021510 0.297686
C62   C     C_R   0.419797 0.151077 0.122428 0.240596
C63   C     C_R   0.494370 0.291403 0.176930 -0.204140
Cu1   Cu    Cu3+1 0.465900 0.918260 0.475680 1.008530
Cu2   Cu    Cu3+1 0.534100 0.081740 0.524320 0.919506
H1    H     H_    0.056476 0.904898 0.408944 0.101719
H2    H     H_    0.618176 0.461941 0.201015 0.120212
H3    H     H_    0.662727 0.815638 0.031255 0.144683
H4    H     H_    0.573648 0.731641 0.536329 0.156483
H5    H     H_    0.195871 0.515356 0.345124 0.163344
H6    H     H_    0.812600 0.291778 0.716308 0.150412
H7    H     H_    0.742620 0.144489 0.668864 0.121911
H8    H     H_    0.436630 0.275446 0.457000 0.122361
H9    H     H_    0.671239 0.606156 0.612936 0.120223
H10   H     H_    0.316400 0.381792 0.414175 0.091467
H11   H     H_    0.845135 0.890773 0.426165 0.133120
H12   H     H_    0.948586 0.130475 0.545077 0.115480
H13   H     H_    0.158713 0.128542 0.549856 0.127584
H14   H     H_    0.133747 0.163085 0.414512 0.138380
H15   H     H_    0.921059 0.163657 0.409735 0.178604
H16   H     H_    0.448851 0.411617 0.744093 0.094089
H17   H     H_    0.312855 0.482029 0.688253 0.111835
H18   H     H_    0.300843 0.359439 0.687182 0.144598
H19   H     H_    0.549309 0.583036 0.279213 0.152066
H20   H     H_    0.519939 0.703410 0.177757 0.126306
H21   H     H_    0.742267 0.777903 0.254505 0.144481
H22   H     H_    0.607587 0.744747 0.322442 0.111949
H23   H     H_    0.128342 0.957224 0.662815 0.107537
H24   H     H_    0.727013 0.661950 0.366196 0.144542
H25   H     H_    0.440827 0.097096 0.924775 0.113782
H26   H     H_    0.509478 0.229632 0.894314 0.065654
H27   H     H_    0.374371 0.192366 0.813549 0.146675
H28   H     H_    0.564445 0.002638 0.219061 0.180001
H29   H     H_    0.558816 0.066131 0.082348 0.092244
H30   H     H_    0.551675 0.888428 0.125296 0.077463
H31   H     H_    0.422976 0.853897 0.200091 0.153217
H32   H     H_    0.393825 0.919397 0.062850 0.158954
H33   H     H_    0.690030 0.364741 0.827319 0.116657
H34   H     H_    0.924836 0.953652 0.662525 0.064588
H35   H     H_    0.710201 0.498864 0.801687 0.123176
H36   H     H_    0.940446 0.495917 0.877375 0.151662
H37   H     H_    0.836397 0.403896 0.966171 0.100419
H38   H     H_    0.921807 0.363147 0.899758 0.169656
H39   H     H_    0.052502 0.825416 0.268757 0.155164
H40   H     H_    0.173198 0.828398 0.196207 0.162621
H41   H     H_    0.172242 0.996537 0.097406 0.213119
H42   H     H_    0.015193 0.966557 0.127446 0.070554
H43   H     H_    0.141081 0.026668 0.198741 0.178942
H44   H     H_    0.738293 0.946651 0.237580 0.117335
H45   H     H_    0.459403 0.684158 0.761911 0.121773
H46   H     H_    0.905968 0.954702 0.250381 0.108246
H47   H     H_    0.767412 0.139224 0.125185 0.151073
H48   H     H_    0.933569 0.130768 0.132782 0.152224
H49   H     H_    0.808500 0.059003 0.073235 0.089950
H50   H     H_    0.014575 0.681521 0.426230 0.113991
H51   H     H_    0.103181 0.575796 0.490927 0.127533
H52   H     H_    0.965447 0.484413 0.388066 0.144425
H53   H     H_    0.869437 0.520567 0.450895 0.115763
H54   H     H_    0.878689 0.590007 0.316046 0.215978
H55   H     H_    0.146396 0.772452 0.547324 0.154513
H56   H     H_    0.623801 0.931858 0.853993 0.120229
H57   H     H_    0.980402 0.776853 0.544925 0.153855
H58   H     H_    0.985728 0.639224 0.718395 0.191433
H59   H     H_    0.023919 0.602385 0.625513 0.118956
H60   H     H_    0.150974 0.633996 0.716742 0.146156
H61   H     H_    0.787368 0.699008 0.743117 0.125840
H62   H     H_    0.783405 0.817056 0.750422 0.114910
H63   H     H_    0.935455 0.769494 0.779570 0.148578
H64   H     H_    0.527494 0.316235 0.239268 0.144895
H65   H     H_    0.070781 0.036782 0.340344 0.149406
H66   H     H_    0.344915 0.545665 0.810203 0.104162
N1    N     N_R   0.585360 0.204570 0.560800 -0.231784
N2    N     N_R   0.414550 0.795430 0.439160 -0.255565
O1    O     O_R   0.455060 0.022100 0.338110 -0.424623
O2    O     O_3   0.680080 0.646852 0.175079 -0.586351
O3    O     O_3   0.327851 0.179847 0.948453 -0.504275
O4    O     O_3   0.391481 0.048731 0.143224 -0.530034
O5    O     O_3   0.803686 0.461122 0.714238 -0.576450
O6    O     O_3   0.240103 0.872076 0.322106 -0.517264
O7    O     O_3   0.840311 0.036784 0.315833 -0.573007
O8    O     O_3   0.122923 0.664546 0.335028 -0.604645
O9    O     O_3   0.117681 0.825101 0.651732 -0.551439
O10   O     O_3   0.855994 0.825298 0.625378 -0.582938
O11   O     O_R   0.512640 0.160150 0.379180 -0.522864
O12   O     O_R   0.288900 0.930980 0.479450 -0.460216
O13   O     O_R   0.346480 0.069030 0.520520 -0.522109
O14   O     O_R   0.487360 0.839850 0.620820 -0.511362
O15   O     O_R   0.544940 0.977900 0.661890 -0.510134
O16   O     O_R   0.653520 0.930970 0.479480 -0.484257
O17   O     O_R   0.711100 0.069020 0.520550 -0.530470
O18   O     O_3   0.292391 0.359614 0.827077 -0.522553

loop_
_geom_bond_atom_site_label_1
_geom_bond_atom_site_label_2
_ccdc_geom_bond_type
C23   H34   S    
C28   O17   A    
C55   O8    S    
C48   H30   S    
Cu1   O12   S    
C53   O7    S    
C42   H17   S    
C36   N2    A    
C35   N2    A    
C16   C56   S    
C7    C8    A    
C39   C41   S    
C38   H11   S    
C53   C54   S    
C2    C63   A    
C48   H32   S    
C12   C23   S    
C26   C27   A    
C29   C30   A    
C12   C28   S    
C16   O14   A    
C34   C40   S    
C32   C36   A    
C34   H12   S    
C30   C31   A    
C11   C14   A    
C46   H27   S    
C4    C41   S    
C54   H48   S    
C45   C62   A    
C19   N1    A    
C37   H65   S    
C18   C19   A    
Cu2   O17   S    
C24   C29   A    
C26   H9    S    
C34   H15   S    
C49   H33   S    
C47   C48   S    
C52   H42   S    
C31   C33   A    
C44   H22   S    
C15   H56   S    
C9    C10   A    
C7    H66   S    
C57   H54   S    
C35   O6    S    
C53   H46   S    
C25   C32   A    
C52   H41   S    
C50   H38   S    
C49   O5    S    
C17   H45   S    
C12   C38   S    
C43   H19   S    
C23   O10   S    
C19   H7    S    
C42   H16   S    
C39   H23   S    
C20   N1    A    
C44   H21   S    
C30   H5    S    
C3    C61   A    
C59   H58   S    
Cu1   O1    S    
C58   H57   S    
C27   O5    S    
C51   C52   S    
C43   H20   S    
C60   H63   S    
C8    O18   S    
C10   O2    S    
C3    C8    A    
Cu2   O11   S    
C46   H26   S    
C33   O8    S    
C51   H39   S    
C45   C63   A    
C43   C44   S    
C9    H2    S    
C5    C9    A    
C37   C38   S    
C18   H6    S    
C58   O9    S    
C31   C32   A    
C39   O9    S    
C51   H40   S    
C4    O13   A    
C37   H1    S    
C47   O4    S    
C58   H55   S    
C47   H28   S    
C40   H14   S    
C54   H47   S    
C24   C25   A    
Cu2   O15   S    
C43   O2    S    
C42   O18   S    
C17   C56   A    
C46   H25   S    
C40   C41   S    
C50   H37   S    
C22   C27   A    
C55   C57   S    
Cu1   O14   S    
C40   H13   S    
C58   C59   S    
C2    C5    A    
C12   C34   S    
C1    O1    A    
Cu2   N1    S    
C36   H4    S    
C57   H52   S    
C53   H44   S    
C59   H59   S    
Cu1   N2    S    
C38   O7    S    
C48   H31   S    
C18   C22   A    
C60   H62   S    
C42   H18   S    
C6    C7    A    
C29   H10   S    
C59   H60   S    
C13   C17   A    
Cu1   O16   S    
C16   O15   A    
Cu1   Cu2   S    
C60   H61   S    
C2    C3    A    
C25   C26   A    
C60   O10   S    
C1    O11   A    
C15   C56   A    
C49   H35   S    
C11   C13   A    
C1    C45   S    
C5    C6    A    
C55   H50   S    
C23   C39   S    
C4    O12   A    
C54   H49   S    
C33   C35   A    
C47   H29   S    
C20   H8    S    
C63   H64   S    
C62   O4    S    
C37   C41   S    
C61   C62   A    
C10   C11   A    
C46   O3    S    
C28   O16   A    
C20   C21   A    
C52   H43   S    
C50   H36   S    
C49   C50   S    
C55   H51   S    
C21   C24   A    
C14   H3    S    
C14   C15   A    
Cu2   O13   S    
C21   C22   A    
C44   H24   S    
C61   O3    S    
C57   H53   S    
C6    C13   A    
C51   O6    S    
