data_mof_unit_55644.cif
_audit_creation_date              2012-12-10T17:43:33-0500
_audit_creation_method            fapswitch 2.2
_symmetry_space_group_name_H-M    P1
_symmetry_Int_Tables_number       1
_space_group_crystal_system       triclinic
_cell_length_a                    15.019331
_cell_length_b                    10.628185
_cell_length_c                    9.910461
_cell_angle_alpha                 89.905504
_cell_angle_beta                  89.623408
_cell_angle_gamma                 91.661561
_cell_volume                      1581.28732965

loop_
_atom_site_label
_atom_site_type_symbol
_atom_type_description
_atom_site_fract_x
_atom_site_fract_y
_atom_site_fract_z
_atom_type_partial_charge
C1    C     C_R   0.502364 0.260719 0.500104 0.845929
C2    C     C_R   0.906180 0.511095 0.623333 0.129165
C3    C     C_R   0.954480 0.469894 0.256310 -0.226370
C4    C     C_R   0.046992 0.469345 0.257146 -0.184650
C5    C     C_R   0.092767 0.483055 0.379150 0.122379
C6    C     C_R   0.045855 0.496800 0.501719 -0.024494
C7    C     C_R   0.091502 0.510888 0.625067 -0.007783
C8    C     C_R   0.044037 0.524129 0.746320 -0.154090
C9    C     C_R   0.951666 0.524166 0.745372 -0.258450
C10   C     C_R   0.184845 0.483722 0.380532 -0.347424
C11   C     C_R   0.230395 0.498644 0.502450 -0.208787
C12   C     C_R   0.326601 0.499765 0.500683 0.917261
C13   C     C_R   0.183838 0.512140 0.624881 0.557242
C14   C     C_R   0.651709 0.137112 0.622969 -0.175296
C15   C     C_R   0.721619 0.074168 0.682431 -0.131218
C16   C     C_R   0.721719 0.943233 0.682146 -0.136711
C17   C     C_R   0.651933 0.874784 0.622338 -0.188145
C18   C     C_R   0.579942 0.937181 0.562930 0.094073
C19   C     C_R   0.579809 0.069096 0.563262 0.097094
C20   C     C_R   0.508450 0.128665 0.499885 -0.084173
C21   C     C_R   0.441132 0.061941 0.433021 -0.216502
C22   C     C_R   0.441274 0.933406 0.432712 -0.191397
C23   C     C_R   0.502618 0.739452 0.499837 0.871597
C24   C     C_R   0.508724 0.871997 0.499267 -0.097188
C25   C     C_R   0.382817 0.335469 0.141380 -0.162420
C26   C     C_R   0.324757 0.255001 0.071806 -0.211865
C27   C     C_R   0.324686 0.255191 0.932139 -0.157828
C28   C     C_R   0.382726 0.335788 0.861239 -0.070096
C29   C     C_R   0.442194 0.419056 0.928355 0.171486
C30   C     C_R   0.442228 0.419014 0.072964 0.172354
C31   C     C_R   0.555382 0.577328 0.070802 -0.112977
C32   C     C_R   0.555374 0.577286 0.927660 -0.109289
C33   C     C_R   0.673229 0.500187 0.499626 0.863976
C34   C     C_R   0.814238 0.512133 0.621699 -0.279775
C35   C     C_R   0.769024 0.499359 0.499406 -0.073549
C36   C     C_R   0.815279 0.485223 0.377669 -0.257757
C37   C     C_R   0.907439 0.483917 0.377505 0.118036
C38   C     C_R   0.953164 0.497092 0.500859 0.098604
H1    H     H_    0.778086 0.523445 0.715812 0.161649
H2    H     H_    0.655445 0.238791 0.622587 0.154546
H3    H     H_    0.776307 0.127207 0.727642 0.140797
H4    H     H_    0.776477 0.894526 0.727149 0.138184
H5    H     H_    0.655837 0.773366 0.621377 0.141218
H6    H     H_    0.387635 0.881411 0.383055 0.157421
H7    H     H_    0.600637 0.640514 0.123994 0.146669
H8    H     H_    0.379127 0.329242 0.248375 0.199834
H9    H     H_    0.279657 0.191953 0.126803 0.151236
H10   H     H_    0.279500 0.192329 0.878200 0.150818
H11   H     H_    0.378985 0.330093 0.754259 0.197236
H12   H     H_    0.779779 0.474878 0.283205 0.163800
H13   H     H_    0.600613 0.640462 0.873260 0.140822
H14   H     H_    0.919799 0.459650 0.161216 0.141730
H15   H     H_    0.082705 0.458681 0.162639 0.152235
H16   H     H_    0.220894 0.472677 0.286301 0.196940
H17   H     H_    0.078011 0.534684 0.841914 0.197286
H18   H     H_    0.915858 0.534724 0.839816 0.143766
H19   H     H_    0.387418 0.109645 0.383495 0.139809
N1    N     N_R   0.499150 0.498800 0.142780 -0.121179
N2    N     N_R   0.499120 0.498720 0.857170 -0.120743
O1    O     O_R   0.500000 0.316780 0.614690 -0.652368
O2    O     O_R   0.499990 0.316750 0.385360 -0.631517
O3    O     O_R   0.367850 0.499980 0.614680 -0.566979
O4    O     O_R   0.367840 0.499960 0.385350 -0.651394
O5    O     O_R   0.500010 0.683250 0.614640 -0.610072
O6    O     O_R   0.500000 0.683220 0.385310 -0.612722
O7    O     O_R   0.632160 0.500040 0.614650 -0.643523
O8    O     O_R   0.632150 0.500020 0.385320 -0.621258
Zn1   Zn    Zn3+2 0.500010 0.500020 0.653130 0.957503
Zn2   Zn    Zn3+2 0.499990 0.499980 0.346870 0.939526
F1    F     F_    0.227673 0.528007 0.743653 -0.672227

loop_
_geom_bond_atom_site_label_1
_geom_bond_atom_site_label_2
_ccdc_geom_bond_type
C27   H10   S    
C7    C13   A    
O7    Zn1   S    
C11   C12   S    
C17   H5    S    
C32   H13   S    
C21   H19   S    
C29   C30   A    
C16   H4    S    
N2    Zn1   S    
C12   O3    A    
C28   H11   S    
C2    C38   A    
C19   C20   A    
O3    Zn1   S    
C23   C24   S    
O1    Zn1   S    
C23   O6    A    
C6    C38   A    
C17   C18   A    
C2    C34   A    
C5    C10   A    
N1    Zn2   S    
C9    H18   S    
C21   C22   A    
C11   C13   A    
C15   H3    S    
C26   C27   A    
C37   C38   A    
C26   H9    S    
C18   C24   A    
C30   N1    A    
C31   N1    A    
C14   C19   A    
C23   O5    A    
C33   C35   S    
C8    H17   S    
C33   O7    A    
C18   C19   A    
C6    C7    A    
C10   C11   A    
O5    Zn1   S    
C5    C6    A    
C10   H16   S    
C3    H14   S    
C22   C24   A    
C4    H15   S    
C16   C17   A    
C13   F1    S    
C14   H2    S    
C34   H1    S    
C28   C29   A    
O4    Zn2   S    
C7    C8    A    
C36   H12   S    
C20   C21   A    
C33   O8    A    
C36   C37   A    
C34   C35   A    
C31   H7    S    
C1    O1    A    
O2    Zn2   S    
C25   C30   A    
O6    Zn2   S    
C12   O4    A    
C29   N2    A    
C14   C15   A    
C4    C5    A    
C1    C20   S    
C32   N2    A    
O8    Zn2   S    
C25   C26   A    
C2    C9    A    
C25   H8    S    
C31   C32   A    
C22   H6    S    
C3    C4    A    
C15   C16   A    
C3    C37   A    
C8    C9    A    
C27   C28   A    
C35   C36   A    
C1    O2    A    
