data_mof_unit_15094.cif
_audit_creation_date              2012-12-11T15:31:59-0500
_audit_creation_method            fapswitch 2.2
_symmetry_space_group_name_H-M    P1
_symmetry_Int_Tables_number       1
_space_group_crystal_system       triclinic
_cell_length_a                    13.549568
_cell_length_b                    13.608943
_cell_length_c                    27.640437
_cell_angle_alpha                 90.594272
_cell_angle_beta                  90.227826
_cell_angle_gamma                 119.8467
_cell_volume                      4420.24884907

loop_
_atom_site_label
_atom_site_type_symbol
_atom_type_description
_atom_site_fract_x
_atom_site_fract_y
_atom_site_fract_z
_atom_type_partial_charge
C1    C     C_R   0.619552 0.898229 0.431384 0.542361
C2    C     C_R   0.722205 0.437907 0.222883 -0.106389
C3    C     C_R   0.711807 0.420338 0.272804 -0.103820
C4    C     C_R   0.667207 0.310645 0.290726 0.032686
C5    C     C_R   0.687911 0.345948 0.190658 0.027151
C6    C     C_1   0.694593 0.365441 0.139388 -0.054128
C7    C     C_1   0.650597 0.290149 0.341834 -0.055885
C8    C     C_1   0.701886 0.390792 0.097366 -0.005613
C9    C     C_1   0.232829 0.862909 0.382584 0.000677
C10   C     C_R   0.092424 0.854159 0.269869 0.289414
C11   C     C_R   0.074658 0.844420 0.219155 -0.108230
C12   C     C_R   0.599671 0.218384 0.431295 0.546431
C13   C     C_R   0.246624 0.834064 0.207962 -0.119666
C14   C     C_R   0.263296 0.840439 0.257996 -0.161183
C15   C     C_R   0.185822 0.848526 0.288968 0.054329
C16   C     C_R   0.151935 0.835176 0.188467 -0.002699
C17   C     C_1   0.127931 0.817288 0.137373 -0.050625
C18   C     C_1   0.206491 0.854752 0.340411 -0.000204
C19   C     C_1   0.098889 0.796005 0.095540 -0.006076
C20   C     C_1   0.634596 0.865680 0.383775 -0.015040
C21   C     C_R   0.631978 0.730738 0.270587 -0.123758
C22   C     C_R   0.638006 0.719324 0.220515 -0.166045
C23   C     C_R   0.279460 0.878806 0.430544 0.543748
C24   C     C_R   0.687247 0.915867 0.210379 0.287740
C25   C     C_R   0.677862 0.925639 0.260413 -0.098168
C26   C     C_R   0.651803 0.833921 0.290559 -0.016550
C27   C     C_R   0.664507 0.811132 0.190212 0.030710
C28   C     C_1   0.676554 0.799228 0.139075 -0.029579
C29   C     C_1   0.643215 0.847012 0.341777 -0.065874
C30   C     C_1   0.693315 0.787934 0.097150 -0.009016
C31   C     C_R   0.642188 0.280643 0.615757 0.030931
C32   C     C_R   0.735602 0.282816 0.639782 0.083352
C33   C     C_R   0.740184 0.286748 0.689929 -0.097417
C34   C     C_R   0.620736 0.901305 0.569090 0.543312
C35   C     C_R   0.660677 0.301410 0.716999 0.020479
C36   C     C_R   0.581641 0.321102 0.691826 -0.129454
C37   C     C_R   0.570604 0.307921 0.641915 -0.153163
C38   C     C_R   0.567928 0.287770 0.796876 -0.133963
C39   C     C_R   0.578724 0.317100 0.845464 -0.167596
C40   C     C_R   0.771120 0.346048 0.846903 0.274241
C41   C     C_R   0.760942 0.322045 0.796896 -0.112556
C42   C     C_R   0.662945 0.302163 0.770817 -0.000338
C43   C     C_R   0.683012 0.355793 0.869426 0.043206
C44   C     C_R   0.231883 0.869499 0.616432 0.024680
C45   C     C_R   0.602770 0.224088 0.568478 0.553522
C46   C     C_R   0.270746 0.966396 0.646120 -0.121372
C47   C     C_R   0.248087 0.955796 0.695199 -0.118516
C48   C     C_R   0.183253 0.848190 0.715238 0.035132
C49   C     C_R   0.137281 0.751556 0.684786 -0.112911
C50   C     C_R   0.163023 0.762060 0.635743 -0.122446
C51   C     C_R   0.164349 0.744454 0.791229 -0.129674
C52   C     C_R   0.136525 0.726099 0.839720 -0.145585
C53   C     C_R   0.130277 0.900966 0.844478 0.083546
C54   C     C_R   0.154601 0.916998 0.795316 -0.094193
C55   C     C_R   0.166721 0.836352 0.767888 0.015337
C56   C     C_R   0.280795 0.882444 0.568440 0.542496
C57   C     C_R   0.110580 0.798958 0.865982 0.037664
C58   C     C_R   0.639734 0.864751 0.616167 0.020168
C59   C     C_R   0.551909 0.766459 0.637015 -0.123819
C60   C     C_R   0.556231 0.746097 0.685878 -0.114901
C61   C     C_R   0.648783 0.823191 0.714434 0.038042
C62   C     C_R   0.740483 0.916877 0.692938 -0.116969
C63   C     C_R   0.736177 0.937421 0.644041 -0.115520
C64   C     C_R   0.686858 0.898368 0.798989 -0.106036
C65   C     C_R   0.701878 0.885042 0.848188 0.264606
C66   C     C_R   0.630077 0.684214 0.832929 -0.175361
C67   C     C_1   0.631101 0.264163 0.383725 -0.008376
C68   C     C_R   0.617826 0.698454 0.784140 -0.141264
C69   C     C_R   0.649939 0.806235 0.766631 -0.008381
C70   C     C_R   0.676343 0.777858 0.864803 0.045464
C71   C     C_R   0.049594 0.761311 0.048136 0.547442
C72   C     C_R   0.714371 0.435724 0.049680 0.547563
C73   C     C_R   0.723675 0.770862 0.049494 0.546083
C74   C     C_R   0.047055 0.757557 0.911325 0.558462
C75   C     C_R   0.706559 0.425112 0.913502 0.559437
C76   C     C_R   0.716463 0.764842 0.912098 0.575102
C77   C     C_R   0.634059 0.218818 0.258522 -0.105479
C78   C     C_R   0.644227 0.236363 0.208583 -0.104741
Cr1   Cr    Cr6+3 0.417720 0.831920 0.499820 1.032910
Cr2   Cr    Cr6+3 0.668190 0.085770 0.500360 1.067678
Cr3   Cr    Cr6+3 0.414060 0.082260 0.499840 1.030369
Cr4   Cr    Cr6+3 0.908000 0.821090 0.979770 1.051516
Cr5   Cr    Cr6+3 0.912420 0.571130 0.979880 1.043305
Cr6   Cr    Cr6+3 0.657970 0.566940 0.980940 1.031507
H1    H     H_    0.598870 0.133483 0.272013 0.114565
H2    H     H_    0.622963 0.639144 0.205434 0.120889
H3    H     H_    0.692144 0.005303 0.275784 0.116154
H4    H     H_    0.486474 0.260281 0.779565 0.117418
H5    H     H_    0.507698 0.317143 0.863312 0.152691
H6    H     H_    0.805494 0.275125 0.706604 0.117146
H7    H     H_    0.831280 0.323798 0.778557 0.074260
H8    H     H_    0.525003 0.343069 0.710287 0.104621
H9    H     H_    0.617162 0.164673 0.184063 0.153848
H10   H     H_    0.501409 0.312306 0.624244 0.133129
H11   H     H_    0.326000 0.050385 0.632210 0.137779
H12   H     H_    0.180737 0.684684 0.771742 0.108787
H13   H     H_    0.130076 0.651537 0.855923 0.126145
H14   H     H_    0.286377 0.031737 0.717616 0.106315
H15   H     H_    0.160954 0.991373 0.778527 0.123031
H16   H     H_    0.084032 0.667633 0.699074 0.113318
H17   H     H_    0.132445 0.686520 0.613315 0.138072
H18   H     H_    0.476554 0.708732 0.616363 0.134370
H19   H     H_    0.755642 0.523039 0.209367 0.111281
H20   H     H_    0.706294 0.980808 0.785919 0.111353
H21   H     H_    0.484876 0.672943 0.701770 0.108106
H22   H     H_    0.588996 0.626289 0.759760 0.119764
H23   H     H_    0.611330 0.601215 0.845009 0.140880
H24   H     H_    0.814229 0.975547 0.714227 0.107804
H25   H     H_    0.805440 0.013321 0.628815 0.161366
H26   H     H_    0.737118 0.491822 0.297280 0.122066
H27   H     H_    0.999774 0.841506 0.203556 0.093907
H28   H     H_    0.306177 0.825810 0.184585 0.135098
H29   H     H_    0.336421 0.838116 0.272651 0.122870
H30   H     H_    0.611622 0.659292 0.293607 0.129531
O1    O     O_R   0.302900 0.805360 0.446400 -0.503413
O2    O     O_R   0.657980 0.180990 0.549630 -0.460793
O3    O     O_R   0.503420 0.197810 0.553190 -0.529289
O4    O     O_R   0.320350 0.978840 0.548910 -0.504562
O5    O     O_3   0.499990 0.999990 0.500010 -0.256068
O6    O     O_R   0.819150 0.845650 0.033320 -0.511571
O7    O     O_R   0.006060 0.815720 0.028680 -0.490480
O8    O     O_R   0.028100 0.664460 0.032550 -0.508725
O9    O     O_R   0.811290 0.477490 0.029660 -0.495390
O10   O     O_R   0.638120 0.455970 0.034270 -0.503183
O11   O     O_R   0.667540 0.672320 0.030160 -0.493164
O12   O     O_R   0.522090 0.841370 0.450730 -0.494079
O13   O     O_R   0.814460 0.840990 0.926980 -0.480427
O14   O     O_R   0.001710 0.811400 0.930110 -0.463838
O15   O     O_R   0.023410 0.659800 0.926210 -0.532313
O16   O     O_R   0.806940 0.473170 0.931090 -0.444037
O17   O     O_R   0.633420 0.451310 0.927930 -0.533429
O18   O     O_R   0.663190 0.668000 0.931580 -0.514174
O19   O     O_3   0.826130 0.653050 0.980200 -0.262290
O20   O     O_R   0.693280 0.995650 0.447220 -0.505160
O21   O     O_R   0.657260 0.178740 0.451050 -0.489424
O22   O     O_R   0.502640 0.195380 0.446850 -0.505656
O23   O     O_R   0.319630 0.976590 0.450330 -0.492882
O24   O     O_R   0.303680 0.807790 0.552740 -0.510723
O25   O     O_R   0.522820 0.843620 0.549310 -0.506308
O26   O     O_R   0.694060 0.998080 0.553560 -0.492460
O27   O     O_3   0.713486 0.007615 0.181287 -0.569185
C79   C     C_3   0.831907 0.067290 0.172273 -0.011103
H31   H     H_    0.844351 0.100660 0.134946 0.163869
H32   H     H_    0.873050 0.013695 0.173698 0.111242
C80   C     C_3   0.892752 0.167699 0.207229 -0.391992
H33   H     H_    0.887133 0.137673 0.244836 0.134445
H34   H     H_    0.983948 0.218233 0.197461 0.109200
H35   H     H_    0.853957 0.222769 0.205260 0.174432
I1    I     I_    0.874878 0.279793 0.605376 -0.406718
O28   O     O_3   0.861702 0.357513 0.875620 -0.546866
C81   C     C_3   0.964749 0.396189 0.850415 -0.014881
H36   H     H_    0.982320 0.468977 0.826896 0.125274
H37   H     H_    0.962167 0.326053 0.828456 0.117203
C82   C     C_3   0.062373 0.435212 0.886743 -0.363076
H38   H     H_    0.050848 0.364152 0.909552 0.142933
H39   H     H_    0.144315 0.468971 0.867353 0.093888
H40   H     H_    0.065755 0.501929 0.911068 0.188156
I2    I     I_    0.131834 0.038442 0.882424 -0.450335
O29   O     O_3   0.737950 0.974615 0.880745 -0.546979
C83   C     C_3   0.849792 0.059690 0.869735 0.009986
H41   H     H_    0.846991 0.119920 0.843686 0.133386
H42   H     H_    0.901946 0.024710 0.854077 0.154135
C84   C     C_3   0.908604 0.123448 0.916088 -0.325320
H43   H     H_    0.900176 0.063143 0.944686 0.193561
H44   H     H_    0.000464 0.179886 0.909273 0.110830
H45   H     H_    0.870144 0.174336 0.928961 0.178691
O30   O     O_3   0.016631 0.860223 0.301906 -0.557561
C85   C     C_3   0.979352 0.934726 0.285743 -0.019863
H46   H     H_    0.904072 0.888297 0.261409 0.139810
H47   H     H_    0.047323 0.009497 0.266608 0.120601
C86   C     C_3   0.944244 0.978827 0.329329 -0.349591
H48   H     H_    0.019199 0.029949 0.353217 0.161780
H49   H     H_    0.909035 0.032824 0.317227 0.096585
H50   H     H_    0.878545 0.906801 0.350162 0.176524

loop_
_geom_bond_atom_site_label_1
_geom_bond_atom_site_label_2
_ccdc_geom_bond_type
C48   C55   S    
C66   C68   A    
C21   C26   A    
C63   H25   S    
C22   H2    S    
Cr1   O1    S    
C15   C18   S    
C41   C42   A    
C52   H13   S    
C71   O8    A    
C19   C71   S    
C35   C36   A    
C24   C27   A    
Cr4   O6    S    
C66   H23   S    
C65   O29   S    
C80   H33   S    
C66   C70   A    
C77   C78   A    
Cr3   O23   S    
C86   H49   S    
C53   I2    S    
C47   H14   S    
C36   C37   A    
C84   H44   S    
Cr5   O15   S    
C13   H28   S    
C10   C15   A    
O29   C83   S    
C38   C39   A    
C62   H24   S    
C78   H9    S    
C45   O3    A    
C65   C70   A    
Cr3   O3    S    
C34   O25   A    
C58   C63   A    
Cr2   O20   S    
C81   C82   S    
C35   C42   S    
C44   C50   A    
C17   C19   T    
C54   C55   A    
O27   C79   S    
C85   C86   S    
C74   O14   A    
C46   H11   S    
C84   H43   S    
C44   C46   A    
C16   C17   S    
C12   O21   A    
Cr1   O5    S    
C12   O22   A    
C81   H36   S    
C26   C29   S    
Cr4   O7    S    
C82   H39   S    
C75   O16   A    
C51   H12   S    
C36   H8    S    
C85   H47   S    
Cr2   O5    S    
C77   H1    S    
C59   C60   A    
C73   O6    A    
C21   C22   A    
C72   O10   A    
C79   C80   S    
C68   H22   S    
C4    C7    S    
C80   H34   S    
C75   O17   A    
C20   C29   T    
C40   C43   A    
C43   C75   S    
C86   H50   S    
Cr6   O19   S    
C8    C72   S    
C32   I1    S    
C11   H27   S    
C51   C52   A    
C83   C84   S    
Cr2   O2    S    
C84   H45   S    
C1    O12   A    
Cr5   O16   S    
Cr1   O25   S    
C52   C57   A    
O30   C85   S    
C30   C73   S    
C53   C57   A    
C68   C69   A    
C6    C8    T    
C12   C67   S    
C58   C59   A    
C53   C54   A    
C23   O1    A    
Cr3   O4    S    
Cr6   O18   S    
C31   C37   A    
C38   H4    S    
C60   C61   A    
C83   H42   S    
C57   C74   S    
C10   O30   S    
C62   C63   A    
C56   O24   A    
C11   C16   A    
C44   C56   S    
C47   C48   A    
C14   C15   A    
C24   O27   S    
C48   C49   A    
C40   O28   S    
C64   C69   A    
C24   C25   A    
Cr2   O21   S    
C86   H48   S    
Cr4   O14   S    
C82   H38   S    
C82   H40   S    
C40   C41   A    
C41   H7    S    
Cr1   O12   S    
C22   C27   A    
C72   O9    A    
C70   C76   S    
C79   H32   S    
C54   H15   S    
C13   C16   A    
C2    C5    A    
C1    O20   A    
C80   H35   S    
Cr3   O22   S    
C61   C69   S    
Cr6   O11   S    
C64   H20   S    
C46   C47   A    
C85   H46   S    
C1    C20   S    
O28   C81   S    
C59   H18   S    
C56   O4    A    
C23   O23   A    
C31   C32   A    
C9    C23   S    
C21   H30   S    
C39   C43   A    
C38   C42   A    
Cr6   O10   S    
C14   H29   S    
Cr3   O5    S    
Cr6   O17   S    
C83   H41   S    
Cr4   O19   S    
C28   C30   T    
C2    C3    A    
C25   C26   A    
C4    C77   A    
Cr2   O26   S    
C33   H6    S    
C32   C33   A    
C49   H16   S    
C76   O18   A    
C45   O2    A    
C5    C6    S    
C2    H19   S    
C73   O11   A    
C64   C65   A    
C34   O26   A    
C33   C35   A    
C37   H10   S    
C51   C55   A    
C81   H37   S    
Cr5   O8    S    
C61   C62   A    
Cr4   O13   S    
Cr5   O19   S    
C10   C11   A    
C7    C67   T    
C25   H3    S    
C71   O7    A    
C9    C18   T    
Cr1   O24   S    
C50   H17   S    
C49   C50   A    
C31   C45   S    
C74   O15   A    
C27   C28   S    
C34   C58   S    
C76   O13   A    
C79   H31   S    
C3    H26   S    
Cr5   O9    S    
C5    C78   A    
C13   C14   A    
C39   H5    S    
C60   H21   S    
C3    C4    A    
