data_mof_unit_14379.cif
_audit_creation_date              2012-12-11T14:44:04-0500
_audit_creation_method            fapswitch 2.2
_symmetry_space_group_name_H-M    P1
_symmetry_Int_Tables_number       1
_space_group_crystal_system       triclinic
_cell_length_a                    18.991702
_cell_length_b                    10.916797
_cell_length_c                    18.910885
_cell_angle_alpha                 90.027222
_cell_angle_beta                  90.097667
_cell_angle_gamma                 89.920406
_cell_volume                      3920.75655116

loop_
_atom_site_label
_atom_site_type_symbol
_atom_type_description
_atom_site_fract_x
_atom_site_fract_y
_atom_site_fract_z
_atom_type_partial_charge
C1    C     C_R   0.728021 0.373192 0.144171 0.612429
C2    C     C_R   0.270019 0.375210 0.854520 0.599490
C3    C     C_R   0.228021 0.873192 0.144171 0.612429
C4    C     C_R   0.770019 0.875210 0.854520 0.599490
C5    C     C_R   0.475758 0.397177 0.937539 -0.043798
C6    C     C_R   0.460856 0.369974 0.083093 -0.099069
C7    C     C_R   0.975758 0.897177 0.937539 -0.043798
C8    C     C_R   0.960856 0.869974 0.083093 -0.099070
C9    C     C_R   0.959879 0.998411 0.979713 0.505313
C10   C     C_R   0.950656 0.984172 0.052121 0.474032
C11   C     C_R   0.459879 0.498411 0.979713 0.505313
C12   C     C_R   0.450656 0.484172 0.052121 0.474032
C13   C     C_R   0.712481 0.844256 0.042089 0.323220
C14   C     C_R   0.313397 0.911585 0.967538 0.398515
C15   C     C_R   0.212481 0.344256 0.042089 0.323220
C16   C     C_R   0.813397 0.411585 0.967538 0.398516
C17   C     C_R   0.715057 0.824931 0.969597 0.319943
C18   C     C_R   0.306166 0.900273 0.040303 0.418296
C19   C     C_R   0.215057 0.324931 0.969597 0.319943
C20   C     C_R   0.806166 0.400273 0.040303 0.418296
C21   C     C_R   0.749591 0.910354 0.925474 -0.100912
C22   C     C_R   0.238873 0.898541 0.069745 -0.042531
C23   C     C_R   0.249591 0.410354 0.925474 -0.100912
C24   C     C_R   0.738873 0.398541 0.069745 -0.042531
C25   C     C_R   0.776056 0.018761 0.953688 0.322247
C26   C     C_R   0.178994 0.905355 0.025629 0.368302
C27   C     C_R   0.276056 0.518761 0.953688 0.322247
C28   C     C_R   0.678994 0.405355 0.025629 0.368303
C29   C     C_R   0.774161 0.036969 0.025742 0.315627
C30   C     C_R   0.186147 0.915854 0.953605 0.387336
C31   C     C_R   0.274161 0.536969 0.025742 0.315627
C32   C     C_R   0.686147 0.415854 0.953605 0.387336
C33   C     C_R   0.744566 0.948017 0.070666 -0.104882
C34   C     C_R   0.252983 0.923509 0.924193 -0.042364
C35   C     C_R   0.244566 0.448017 0.070666 -0.104882
C36   C     C_R   0.752983 0.423509 0.924193 -0.042364
C37   C     C_R   0.474604 0.065712 0.455666 -0.204603
C38   C     C_R   0.465265 0.061496 0.527735 -0.179463
C39   C     C_R   0.974604 0.565712 0.455666 -0.204603
C40   C     C_R   0.965264 0.561496 0.527735 -0.179463
C41   C     C_R   0.483226 0.162403 0.570269 -0.028901
C42   C     C_R   0.503774 0.169732 0.424586 -0.021698
C43   C     C_R   0.983226 0.662403 0.570269 -0.028901
C44   C     C_R   0.003774 0.669732 0.424586 -0.021697
C45   C     C_R   0.531777 0.154478 0.146571 0.540561
C46   C     C_R   0.467824 0.156626 0.853815 0.557281
C47   C     C_R   0.031777 0.654478 0.146571 0.540561
C48   C     C_R   0.967824 0.656626 0.853815 0.557281
C49   C     C_R   0.508201 0.270104 0.539096 0.390260
C50   C     C_R   0.518571 0.274032 0.466310 0.444707
C51   C     C_R   0.008201 0.770104 0.539096 0.390261
C52   C     C_R   0.018571 0.774032 0.466310 0.444706
C53   C     C_R   0.816148 0.919783 0.456283 0.381722
C54   C     C_R   0.210206 0.025756 0.525734 0.393696
C55   C     C_R   0.316148 0.419784 0.456283 0.381721
C56   C     C_R   0.710207 0.525757 0.525733 0.393695
C57   C     C_R   0.822094 0.907695 0.528568 -0.144019
C58   C     C_R   0.209684 0.011187 0.453558 -0.107013
C59   C     C_R   0.322094 0.407695 0.528568 -0.144019
C60   C     C_R   0.709685 0.511188 0.453558 -0.107014
C61   C     C_R   0.761676 0.897559 0.571102 -0.024756
C62   C     C_R   0.250419 0.919705 0.422305 -0.036561
C63   C     C_R   0.261676 0.397559 0.571102 -0.024758
C64   C     C_R   0.750419 0.419704 0.422305 -0.036560
C65   C     C_R   0.694909 0.893729 0.540129 0.408262
C66   C     C_R   0.297902 0.850626 0.463691 0.343906
C67   C     C_R   0.194909 0.393728 0.540129 0.408260
C68   C     C_R   0.797901 0.350625 0.463691 0.343906
C69   C     C_R   0.688785 0.906708 0.467365 -0.141026
C70   C     C_R   0.299622 0.867080 0.536449 -0.167949
C71   C     C_R   0.188785 0.406707 0.467365 -0.141027
C72   C     C_R   0.799621 0.367079 0.536449 -0.167948
C73   C     C_R   0.749327 0.923691 0.425496 -0.036510
C74   C     C_R   0.254228 0.951676 0.568111 -0.034634
C75   C     C_R   0.249327 0.423691 0.425496 -0.036511
C76   C     C_R   0.754228 0.451676 0.568111 -0.034633
C77   C     C_R   0.739919 0.975210 0.145474 0.597823
C78   C     C_R   0.259494 0.969905 0.852781 0.617485
C79   C     C_R   0.239919 0.475210 0.145474 0.597823
C80   C     C_R   0.759494 0.469905 0.852781 0.617485
C81   C     C_R   0.730295 0.378977 0.352103 0.559081
C82   C     C_R   0.272238 0.374183 0.645728 0.576046
C83   C     C_R   0.230295 0.878977 0.352103 0.559081
C84   C     C_R   0.772238 0.874183 0.645728 0.576047
C85   C     C_R   0.532508 0.157929 0.353701 0.564972
C86   C     C_R   0.464753 0.156492 0.644675 0.584565
C87   C     C_R   0.032508 0.657929 0.353701 0.564972
C88   C     C_R   0.964753 0.656492 0.644675 0.584565
C89   C     C_R   0.741186 0.970940 0.354363 0.573532
C90   C     C_R   0.260242 0.978688 0.642984 0.560478
C91   C     C_R   0.241186 0.470940 0.354363 0.573532
C92   C     C_R   0.760242 0.478688 0.642984 0.560479
C93   C     C_R   0.495661 0.170360 0.925916 0.029125
C94   C     C_R   0.505836 0.158898 0.073734 0.046910
C95   C     C_R   0.995661 0.670360 0.925916 0.029125
C96   C     C_R   0.005836 0.658898 0.073734 0.046910
C97   C     C_R   0.484136 0.278709 0.967298 -0.032707
C98   C     C_R   0.482596 0.268597 0.042033 -0.022054
C99   C     C_R   0.984136 0.778709 0.967298 -0.032707
C100  C     C_R   0.982596 0.768597 0.042033 -0.022053
C101  C     C_R   0.522006 0.056914 0.031385 -0.061597
C102  C     C_R   0.516992 0.062640 0.959096 -0.071717
C103  C     C_R   0.022006 0.556914 0.031385 -0.061597
C104  C     C_R   0.016992 0.562640 0.959096 -0.071717
Cr1   Cr    Cr6+3 0.772000 0.169640 0.250110 1.221643
Cr2   Cr    Cr6+3 0.228000 0.169640 0.749890 1.208973
Cr3   Cr    Cr6+3 0.272000 0.669640 0.250110 1.221644
Cr4   Cr    Cr6+3 0.728000 0.669640 0.749890 1.208973
Cr5   Cr    Cr6+3 0.614960 0.323350 0.249260 1.161719
Cr6   Cr    Cr6+3 0.385040 0.323350 0.750740 1.117505
Cr7   Cr    Cr6+3 0.114960 0.823350 0.249260 1.161719
Cr8   Cr    Cr6+3 0.885040 0.823350 0.750740 1.117505
Cr9   Cr    Cr6+3 0.616670 0.010620 0.250840 1.111972
Cr10  Cr    Cr6+3 0.383330 0.010620 0.749160 1.135487
Cr11  Cr    Cr6+3 0.116670 0.510620 0.250840 1.111971
Cr12  Cr    Cr6+3 0.883330 0.510620 0.749160 1.135487
H1    H     H_    0.541041 0.971736 0.053814 0.207924
H2    H     H_    0.527691 0.980084 0.929072 0.204277
H3    H     H_    0.041042 0.471737 0.053814 0.207924
H4    H     H_    0.027691 0.480084 0.929072 0.204277
H5    H     H_    0.636475 0.910666 0.444523 0.183994
H6    H     H_    0.335655 0.812805 0.568035 0.182141
H7    H     H_    0.136475 0.410665 0.444523 0.183994
H8    H     H_    0.835654 0.312803 0.568035 0.182141
H9    H     H_    0.486133 0.416044 0.882599 0.214064
H10   H     H_    0.452914 0.362336 0.139538 0.157443
H11   H     H_    0.986133 0.916044 0.882599 0.214064
H12   H     H_    0.952914 0.862336 0.139538 0.157444
O1    O     O_R   0.787540 0.042690 0.170470 -0.425511
O2    O     O_R   0.212460 0.042690 0.829530 -0.409079
O3    O     O_R   0.287540 0.542690 0.170470 -0.425511
O4    O     O_R   0.712460 0.542690 0.829530 -0.409079
O5    O     O_R   0.556540 0.252920 0.323970 -0.431288
O6    O     O_R   0.443460 0.252920 0.676030 -0.455999
O7    O     O_R   0.056540 0.752920 0.323970 -0.431288
O8    O     O_R   0.943460 0.752920 0.676030 -0.455999
O9    O     O_R   0.545870 0.051100 0.330840 -0.522548
O10   O     O_R   0.454130 0.051100 0.669160 -0.505161
O11   O     O_R   0.045870 0.551100 0.330840 -0.522548
O12   O     O_R   0.954130 0.551100 0.669160 -0.505161
O13   O     O_R   0.681340 0.959300 0.325510 -0.531536
O14   O     O_R   0.318660 0.959300 0.674490 -0.535466
O15   O     O_R   0.181340 0.459300 0.325510 -0.531536
O16   O     O_R   0.818660 0.459300 0.674490 -0.535467
O17   O     O_3   0.667880 0.167870 0.250070 -0.332288
O18   O     O_3   0.332120 0.167870 0.749930 -0.336315
O19   O     O_3   0.167880 0.667870 0.250070 -0.332288
O20   O     O_3   0.832120 0.667870 0.749930 -0.336315
O21   O     O_R   0.765660 0.292160 0.175050 -0.426175
O22   O     O_R   0.234340 0.292160 0.824950 -0.450288
O23   O     O_R   0.265660 0.792160 0.175050 -0.426174
O24   O     O_R   0.734340 0.792160 0.824950 -0.450288
O25   O     O_R   0.670190 0.408980 0.168550 -0.439212
O26   O     O_R   0.329810 0.408980 0.831450 -0.465732
O27   O     O_R   0.170190 0.908980 0.168550 -0.439212
O28   O     O_R   0.829810 0.908980 0.831450 -0.465732
O29   O     O_R   0.556580 0.251450 0.175160 -0.480669
O30   O     O_R   0.443420 0.251450 0.824840 -0.531191
O31   O     O_R   0.056580 0.751450 0.175160 -0.480668
O32   O     O_R   0.943420 0.751450 0.824840 -0.531191
O33   O     O_R   0.545920 0.049510 0.170320 -0.491297
O34   O     O_R   0.454080 0.049510 0.829680 -0.447571
O35   O     O_R   0.045920 0.549510 0.170320 -0.491298
O36   O     O_R   0.954080 0.549510 0.829680 -0.447571
O37   O     O_R   0.681390 0.957840 0.176710 -0.463326
O38   O     O_R   0.318610 0.957840 0.823290 -0.442068
O39   O     O_R   0.181390 0.457840 0.176710 -0.463326
O40   O     O_R   0.818610 0.457840 0.823290 -0.442068
O41   O     O_R   0.787500 0.044280 0.330990 -0.397893
O42   O     O_R   0.212500 0.044280 0.669010 -0.406342
O43   O     O_R   0.287500 0.544280 0.330990 -0.397894
O44   O     O_R   0.712500 0.544280 0.669010 -0.406342
O45   O     O_R   0.765610 0.293630 0.323860 -0.440168
O46   O     O_R   0.234390 0.293630 0.676140 -0.428242
O47   O     O_R   0.265610 0.793630 0.323860 -0.440167
O48   O     O_R   0.734390 0.793630 0.676140 -0.428241
O49   O     O_R   0.670140 0.410570 0.329080 -0.489497
O50   O     O_R   0.329860 0.410570 0.670920 -0.517334
O51   O     O_R   0.170140 0.910570 0.329080 -0.489497
O52   O     O_R   0.829860 0.910570 0.670920 -0.517334
F1    F     F_    0.875480 0.932085 0.416919 -0.552567
F2    F     F_    0.167507 0.113341 0.553382 -0.532081
F3    F     F_    0.375480 0.432086 0.416919 -0.552566
F4    F     F_    0.667508 0.613344 0.553382 -0.532084
H13   H     H_    0.874502 0.905152 0.551172 0.205950
H14   H     H_    0.173735 0.066759 0.422577 0.202705
H15   H     H_    0.374502 0.405153 0.551173 0.205951
H16   H     H_    0.673736 0.566761 0.422577 0.202703
F5    F     F_    0.636041 0.881373 0.580123 -0.556915
F6    F     F_    0.339604 0.762692 0.434917 -0.566683
F7    F     F_    0.136041 0.381372 0.580122 -0.556914
F8    F     F_    0.839603 0.262690 0.434917 -0.566683
F9    F     F_    0.954096 0.111096 0.950066 -0.464386
F10   F     F_    0.935088 0.082387 0.093156 -0.486641
F11   F     F_    0.454096 0.611096 0.950066 -0.464386
F12   F     F_    0.435088 0.582387 0.093156 -0.486641
F13   F     F_    0.681166 0.759905 0.084375 -0.546367
F14   F     F_    0.379367 0.916606 0.940342 -0.529877
F15   F     F_    0.181166 0.259905 0.084375 -0.546367
F16   F     F_    0.879367 0.416606 0.940342 -0.529877
F17   F     F_    0.687733 0.719211 0.943645 -0.543762
F18   F     F_    0.364426 0.891416 0.081754 -0.515187
F19   F     F_    0.187733 0.219211 0.943645 -0.543762
F20   F     F_    0.864427 0.391416 0.081754 -0.515187
F21   F     F_    0.805951 0.105184 0.911704 -0.529708
F22   F     F_    0.112843 0.900937 0.051925 -0.579021
F23   F     F_    0.305951 0.605184 0.911704 -0.529708
F24   F     F_    0.612843 0.400938 0.051925 -0.579021
F25   F     F_    0.801251 0.142528 0.051445 -0.523440
F26   F     F_    0.127571 0.923275 0.912627 -0.573008
F27   F     F_    0.301251 0.642528 0.051445 -0.523439
F28   F     F_    0.627571 0.423275 0.912628 -0.573008
H17   H     H_    0.462191 0.984977 0.424700 0.202649
H18   H     H_    0.443118 0.978668 0.549948 0.194421
H19   H     H_    0.962190 0.484977 0.424700 0.202647
H20   H     H_    0.943118 0.478668 0.549948 0.194421
F29   F     F_    0.524032 0.369843 0.578982 -0.545001
F30   F     F_    0.546551 0.377121 0.437749 -0.532430
F31   F     F_    0.024033 0.869842 0.578982 -0.545000
F32   F     F_    0.046552 0.877121 0.437749 -0.532431

loop_
_geom_bond_atom_site_label_1
_geom_bond_atom_site_label_2
_ccdc_geom_bond_type
C58   C62   A    
C67   F7    S    
C71   C75   A    
C62   C83   S    
C2    O22   A    
C101  C102  A    
C56   C76   A    
C48   C95   S    
C83   O47   A    
C58   H14   S    
C12   F12   S    
C14   C18   A    
C20   F20   S    
C72   C76   A    
Cr5   O29   S    
C97   C98   A    
Cr3   O43   S    
C15   C19   A    
C41   C86   S    
C48   O32   A    
C65   F5    S    
C57   C61   A    
C13   F13   S    
C92   O16   A    
Cr2   O22   S    
C43   C88   S    
Cr10  O14   S    
C71   H7    S    
C69   C73   A    
C11   F11   S    
C5    C11   A    
C55   C59   A    
C10   F10   S    
Cr9   O37   S    
C32   F28   S    
C9    F9    S    
Cr10  O34   S    
C94   C98   A    
C95   C99   A    
C77   O37   A    
C80   O4    A    
C46   O30   A    
C29   C33   A    
C17   F17   S    
Cr3   O19   S    
Cr2   O2    S    
C38   C41   A    
C41   C49   A    
C37   C42   A    
C84   O52   A    
C45   O33   A    
C53   C73   A    
C88   O12   A    
Cr7   O31   S    
C54   C74   A    
C8    H12   S    
C40   C43   A    
C20   C24   A    
C94   C101  A    
Cr9   O9    S    
C70   C74   A    
C47   C96   S    
C54   F2    S    
C1    O21   A    
C23   C27   A    
C44   C87   S    
Cr5   O25   S    
C9    C10   A    
C27   F23   S    
C16   F16   S    
C75   C91   S    
Cr8   O52   S    
C55   C75   A    
C44   C52   A    
Cr1   O17   S    
C2    O26   A    
C14   C34   A    
Cr1   O45   S    
C72   H8    S    
Cr7   O51   S    
Cr2   O42   S    
C79   O39   A    
C82   O50   A    
C26   F22   S    
C38   H18   S    
C25   F21   S    
C45   C94   S    
C37   H17   S    
C86   O6    A    
Cr10  O38   S    
C91   O15   A    
C25   C29   A    
C4    O24   A    
Cr5   O17   S    
C78   O38   A    
C52   F32   S    
C30   C34   A    
C63   C82   S    
C27   C31   A    
C51   C52   A    
C82   O46   A    
C28   C32   A    
C62   C66   A    
C45   O29   A    
C88   O8    A    
Cr12  O16   S    
Cr3   O3    S    
C36   C80   S    
Cr10  O18   S    
C39   C40   A    
Cr12  O20   S    
Cr4   O24   S    
C47   O31   A    
C59   H15   S    
C56   F4    S    
C51   F31   S    
Cr9   O33   S    
C50   F30   S    
C17   C21   A    
Cr6   O30   S    
C56   C60   A    
C49   F29   S    
C68   C72   A    
C81   O45   A    
C86   O10   A    
C19   C23   A    
C63   C67   A    
C13   C33   A    
C37   C38   A    
Cr6   O26   S    
Cr7   O19   S    
C15   F15   S    
C70   H6    S    
C93   C97   A    
C99   C100  A    
C61   C65   A    
C69   H5    S    
C16   C20   A    
Cr11  O11   S    
C79   O3    A    
C90   O42   A    
C89   O13   A    
C19   F19   S    
Cr2   O46   S    
C18   F18   S    
C42   C85   S    
C77   O1    A    
C1    O25   A    
C6    H10   S    
C90   O14   A    
C7    C99   A    
C76   C92   S    
C81   O49   A    
Cr8   O28   S    
C4    O28   A    
C42   C50   A    
C26   C30   A    
Cr9   O17   S    
C14   F14   S    
Cr4   O44   S    
C46   O34   A    
Cr1   O41   S    
C28   F24   S    
C31   C35   A    
C59   C63   A    
Cr6   O6    S    
C3    O27   A    
C39   C44   A    
Cr11  O39   S    
C64   C68   A    
C6    C98   A    
C103  C104  A    
C95   C104  A    
C87   O7    A    
C54   C58   A    
C85   O9    A    
C7    C9    A    
C21   C25   A    
C53   C57   A    
Cr8   O32   S    
C18   C22   A    
C57   H13   S    
Cr12  O36   S    
C103  H3    S    
C24   C28   A    
C87   O11   A    
Cr12  O12   S    
C61   C84   S    
C102  H2    S    
C93   C102  A    
C30   F26   S    
Cr1   O1    S    
C11   C12   A    
C32   C36   A    
Cr6   O50   S    
C29   F25   S    
C53   F1    S    
C48   O36   A    
C91   O43   A    
C73   C89   S    
Cr1   O21   S    
C15   C35   A    
C96   C100  A    
C3    O23   A    
C83   O51   A    
Cr2   O18   S    
C39   H19   S    
C33   C77   S    
C60   C64   A    
Cr11  O19   S    
C7    H11   S    
C101  H1    S    
C74   C90   S    
C78   O2    A    
Cr8   O8    S    
Cr3   O23   S    
C84   O48   A    
C34   C78   S    
C6    C12   A    
C4    C21   S    
C43   C51   A    
C8    C100  A    
C66   C70   A    
C46   C93   S    
Cr3   O47   S    
C92   O44   A    
C47   O35   A    
C65   C69   A    
Cr4   O48   S    
Cr5   O5    S    
C35   C79   S    
Cr9   O13   S    
C5    C97   A    
C67   C71   A    
C60   H16   S    
Cr10  O10   S    
Cr11  O15   S    
Cr11  O35   S    
Cr7   O7    S    
C55   F3    S    
C64   C81   S    
Cr4   O4    S    
C66   F6    S    
C89   O41   A    
C13   C17   A    
Cr8   O20   S    
C31   F27   S    
C1    C24   S    
C8    C10   A    
C49   C50   A    
C22   C26   A    
C96   C103  A    
C5    H9    S    
C2    C23   S    
Cr5   O49   S    
C68   F8    S    
Cr12  O40   S    
C3    C22   S    
C40   H20   S    
C104  H4    S    
Cr6   O18   S    
Cr7   O27   S    
C80   O40   A    
C16   C36   A    
C85   O5    A    
Cr4   O20   S    
