data_mof_unit_62523.cif
_audit_creation_date              2012-12-10T19:09:02-0500
_audit_creation_method            fapswitch 2.2
_symmetry_space_group_name_H-M    P1
_symmetry_Int_Tables_number       1
_space_group_crystal_system       triclinic
_cell_length_a                    30.288157
_cell_length_b                    30.288156
_cell_length_c                    18.252661
_cell_angle_alpha                 90.0
_cell_angle_beta                  89.999978
_cell_angle_gamma                 90.000011
_cell_volume                      16744.4878691

loop_
_atom_site_label
_atom_site_type_symbol
_atom_type_description
_atom_site_fract_x
_atom_site_fract_y
_atom_site_fract_z
_atom_type_partial_charge
C1    C     C_R   0.226232 1.000000 0.500000 -0.037325
C2    C     C_R   0.968417 0.203288 0.457947 -0.030459
C3    C     C_R   0.963941 0.656997 0.470690 -0.182888
C4    C     C_R   0.656997 0.963941 0.529311 -0.182889
C5    C     C_R   0.963942 0.343003 0.529315 -0.182888
C6    C     C_R   0.343003 0.036058 0.529314 -0.182888
C7    C     C_R   0.036059 0.656997 0.529310 -0.182889
C8    C     C_R   0.843003 0.463943 0.970683 -0.182888
C9    C     C_R   0.536058 0.843003 0.970687 -0.182888
C10   C     C_R   0.156997 0.536058 0.970688 -0.182889
C11   C     C_R   0.463943 0.156997 0.970682 -0.182888
C12   C     C_R   0.156997 0.463942 0.029312 -0.182889
C13   C     C_R   0.796712 0.968419 0.457943 -0.030460
C14   C     C_R   0.463942 0.843003 0.029312 -0.182888
C15   C     C_R   0.843003 0.536057 0.029316 -0.182889
C16   C     C_R   0.536057 0.156997 0.029318 -0.182888
C17   C     C_R   0.365969 0.000000 0.500000 -0.029054
C18   C     C_R   1.000000 0.365969 0.500000 -0.029053
C19   C     C_R   0.634031 0.000000 0.500000 -0.029055
C20   C     C_R   0.000000 0.634031 0.500000 -0.029056
C21   C     C_R   0.865969 0.500000 1.000000 -0.029053
C22   C     C_R   0.500000 0.865969 1.000000 -0.029055
C23   C     C_R   0.134031 0.500000 0.000000 -0.029055
C24   C     C_R   0.031581 0.796712 0.457942 -0.030460
C25   C     C_R   0.500000 0.134031 0.000000 -0.029052
C26   C     C_R   0.274419 1.000000 0.500000 0.125549
C27   C     C_R   1.000000 0.274419 0.500000 0.125548
C28   C     C_R   0.725581 0.000000 0.500000 0.125549
C29   C     C_R   0.000000 0.725581 0.500000 0.125549
C30   C     C_R   0.774419 0.500000 0.999999 0.125547
C31   C     C_R   0.500000 0.774419 1.000000 0.125549
C32   C     C_R   0.225581 0.500000 0.000000 0.125549
C33   C     C_R   0.500000 0.225581 0.000000 0.125547
C34   C     C_1   0.227152 0.063179 0.413055 0.180455
C35   C     C_R   0.796712 0.031582 0.542057 -0.030460
C36   C     C_1   0.936820 0.227152 0.413057 0.180455
C37   C     C_1   0.772848 0.936824 0.413050 0.180454
C38   C     C_1   0.063175 0.772848 0.413047 0.180454
C39   C     C_1   0.772848 0.063176 0.586950 0.180454
C40   C     C_1   0.063180 0.227152 0.586943 0.180455
C41   C     C_1   0.227152 0.936821 0.586945 0.180454
C42   C     C_1   0.936826 0.772848 0.586953 0.180454
C43   C     C_1   0.727152 0.563181 0.913061 0.180456
C44   C     C_1   0.436823 0.727152 0.913052 0.180455
C45   C     C_1   0.272848 0.436823 0.913052 0.180455
C46   C     C_R   0.031583 0.203288 0.542053 -0.030459
C47   C     C_1   0.563182 0.272848 0.913062 0.180456
C48   C     C_1   0.272848 0.563177 0.086948 0.180454
C49   C     C_1   0.563177 0.727152 0.086948 0.180455
C50   C     C_1   0.727152 0.436818 0.086938 0.180456
C51   C     C_1   0.436818 0.272848 0.086938 0.180456
C52   C     C_1   0.133277 0.066024 0.419005 0.198289
C53   C     C_1   0.933975 0.133277 0.419008 0.198286
C54   C     C_1   0.866723 0.933979 0.419000 0.198289
C55   C     C_1   0.066020 0.866723 0.418997 0.198292
C56   C     C_1   0.866723 0.066022 0.580999 0.198291
C57   C     C_R   0.203288 0.968417 0.542054 -0.030459
C58   C     C_1   0.066025 0.133277 0.580992 0.198287
C59   C     C_1   0.133277 0.933976 0.580994 0.198286
C60   C     C_1   0.933980 0.866723 0.581003 0.198291
C61   C     C_1   0.633277 0.566026 0.919012 0.198285
C62   C     C_1   0.433977 0.633277 0.919003 0.198289
C63   C     C_1   0.366723 0.433978 0.919003 0.198291
C64   C     C_1   0.566027 0.366723 0.919012 0.198287
C65   C     C_1   0.366723 0.566022 0.080997 0.198289
C66   C     C_1   0.566023 0.633277 0.080997 0.198291
C67   C     C_1   0.633277 0.433974 0.080988 0.198288
C68   C     C_R   0.968419 0.796711 0.542058 -0.030460
C69   C     C_1   0.433973 0.366723 0.080988 0.198285
C70   C     C_R   0.703288 0.531584 0.957948 -0.030458
C71   C     C_R   0.468418 0.703288 0.957944 -0.030460
C72   C     C_R   0.296712 0.468418 0.957944 -0.030460
C73   C     C_R   1.000000 0.226232 0.500000 -0.037325
C74   C     C_R   0.531584 0.296712 0.957949 -0.030458
C75   C     C_R   0.296711 0.531582 0.042056 -0.030459
C76   C     C_R   0.531582 0.703288 0.042056 -0.030460
C77   C     C_R   0.703288 0.468416 0.042051 -0.030459
C78   C     C_R   0.468416 0.296712 0.042051 -0.030458
C79   C     C_R   0.157115 0.031968 0.458744 -0.064758
C80   C     C_R   0.968031 0.157115 0.458745 -0.064759
C81   C     C_R   0.842884 0.968033 0.458741 -0.064760
C82   C     C_R   0.031967 0.842884 0.458739 -0.064759
C83   C     C_R   0.842884 0.031967 0.541259 -0.064758
C84   C     C_R   0.773768 0.000000 0.500000 -0.037325
C85   C     C_R   0.031969 0.157115 0.541255 -0.064758
C86   C     C_R   0.157116 0.968031 0.541256 -0.064759
C87   C     C_R   0.968034 0.842884 0.541261 -0.064760
C88   C     C_R   0.657115 0.531970 0.958747 -0.064758
C89   C     C_R   0.468032 0.657115 0.958742 -0.064759
C90   C     C_R   0.342884 0.468032 0.958742 -0.064758
C91   C     C_R   0.531970 0.342884 0.958747 -0.064757
C92   C     C_R   0.342884 0.531968 0.041258 -0.064759
C93   C     C_R   0.531968 0.657116 0.041258 -0.064758
C94   C     C_R   0.657115 0.468030 0.041253 -0.064757
C95   C     C_R   0.000000 0.773768 0.500000 -0.037324
C96   C     C_R   0.468030 0.342884 0.041253 -0.064758
C97   C     C_R   0.134203 0.000000 0.500000 -0.135867
C98   C     C_R   0.000000 0.134203 0.500000 -0.135867
C99   C     C_R   0.865797 0.000000 0.500000 -0.135869
C100  C     C_R   0.000000 0.865797 0.500000 -0.135869
C101  C     C_R   0.634203 0.500000 1.000000 -0.135865
C102  C     C_R   0.500000 0.634203 1.000000 -0.135867
C103  C     C_R   0.365797 0.500000 0.000000 -0.135867
C104  C     C_R   0.500000 0.365797 0.000000 -0.135865
C105  C     C_R   0.413791 0.000000 0.500000 0.861463
C106  C     C_R   0.726232 0.500000 0.999999 -0.037326
C107  C     C_R   0.000000 0.413791 0.500000 0.861463
C108  C     C_R   0.586209 0.000000 0.500000 0.861463
C109  C     C_R   0.000000 0.586209 0.500000 0.861463
C110  C     C_R   0.913791 0.500000 1.000000 0.861463
C111  C     C_R   0.500000 0.913791 0.000000 0.861463
C112  C     C_R   0.086209 0.500000 0.000000 0.861462
C113  C     C_R   0.500000 0.086209 0.000000 0.861461
C114  C     C_R   0.500000 0.000000 0.358973 0.930727
C115  C     C_R   0.000000 0.500000 0.358973 0.930727
C116  C     C_R   0.500000 0.000000 0.641027 0.930727
C117  C     C_R   0.500000 0.726232 1.000000 -0.037325
C118  C     C_R   0.000000 0.500000 0.641027 0.930727
C119  C     C_R   1.000000 0.500000 0.858973 0.930727
C120  C     C_R   0.500000 0.000000 0.858973 0.930727
C121  C     C_R   0.000000 0.500000 0.141027 0.930727
C122  C     C_R   0.500000 0.000000 0.141027 0.930727
C123  C     C_R   0.000000 0.913767 0.500000 0.890940
C124  C     C_R   0.086233 0.000000 0.500000 0.890942
C125  C     C_R   0.000000 0.086233 0.500000 0.890942
C126  C     C_R   0.913767 0.000000 0.500000 0.890942
C127  C     C_R   0.500000 0.413767 0.000000 0.890944
C128  C     C_R   0.273768 0.500000 0.000000 -0.037325
C129  C     C_R   0.586233 0.500000 1.000000 0.890944
C130  C     C_R   0.500000 0.586233 0.000000 0.890943
C131  C     C_R   0.413767 0.500000 0.000000 0.890943
C132  C     C_1   0.500000 0.000000 0.282423 -0.181100
C133  C     C_1   1.000000 0.500000 0.282423 -0.181100
C134  C     C_1   0.500000 0.000000 0.717577 -0.181100
C135  C     C_1   1.000000 0.500000 0.717577 -0.181100
C136  C     C_1   1.000000 0.500000 0.782423 -0.181100
C137  C     C_1   0.500000 0.000000 0.782423 -0.181100
C138  C     C_1   0.000000 0.500000 0.217577 -0.181100
C139  C     C_R   0.500000 0.273768 0.000000 -0.037326
C140  C     C_1   0.500000 0.000000 0.217577 -0.181100
C141  C     C_R   0.297244 0.964157 0.470048 -0.144635
C142  C     C_R   0.035843 0.297244 0.470047 -0.144634
C143  C     C_R   0.702756 0.035844 0.470051 -0.144635
C144  C     C_R   0.964156 0.702756 0.470052 -0.144635
C145  C     C_R   0.702756 0.964156 0.529949 -0.144634
C146  C     C_R   0.964157 0.297244 0.529953 -0.144633
C147  C     C_R   0.297244 0.035843 0.529952 -0.144634
C148  C     C_R   0.035844 0.702756 0.529948 -0.144634
C149  C     C_R   0.797244 0.464158 0.970045 -0.144633
C150  C     C_R   0.203288 0.031583 0.457946 -0.030459
C151  C     C_R   0.535844 0.797244 0.970049 -0.144634
C152  C     C_R   0.202756 0.535844 0.970050 -0.144633
C153  C     C_R   0.464158 0.202756 0.970044 -0.144634
C154  C     C_R   0.202756 0.464156 0.029950 -0.144634
C155  C     C_R   0.464156 0.797243 0.029951 -0.144634
C156  C     C_R   0.797244 0.535842 0.029954 -0.144633
C157  C     C_R   0.535842 0.202756 0.029956 -0.144633
C158  C     C_R   0.343003 0.963942 0.470686 -0.182887
C159  C     C_R   0.036058 0.343003 0.470685 -0.182888
C160  C     C_R   0.656997 0.036059 0.470689 -0.182889
H1    H     H_    0.279560 0.936489 0.446493 0.143492
H2    H     H_    0.563512 0.779560 0.946496 0.143493
H3    H     H_    0.220440 0.563512 0.946496 0.143492
H4    H     H_    0.436491 0.220440 0.946487 0.143492
H5    H     H_    0.220440 0.436488 0.053504 0.143492
H6    H     H_    0.436488 0.779560 0.053504 0.143492
H7    H     H_    0.779560 0.563509 0.053511 0.143492
H8    H     H_    0.563509 0.220440 0.053514 0.143493
H9    H     H_    0.360402 0.936014 0.447422 0.158601
H10   H     H_    0.063986 0.360402 0.447420 0.158601
H11   H     H_    0.639598 0.063988 0.447428 0.158603
H12   H     H_    0.063511 0.279560 0.446491 0.143492
H13   H     H_    0.936012 0.639598 0.447429 0.158603
H14   H     H_    0.639598 0.936012 0.552572 0.158603
H15   H     H_    0.936014 0.360402 0.552580 0.158601
H16   H     H_    0.360402 0.063986 0.552577 0.158601
H17   H     H_    0.063988 0.639598 0.552571 0.158603
H18   H     H_    0.860402 0.436015 0.947417 0.158600
H19   H     H_    0.563987 0.860402 0.947425 0.158602
H20   H     H_    0.139598 0.563987 0.947425 0.158602
H21   H     H_    0.436016 0.139598 0.947415 0.158600
H22   H     H_    0.139598 0.436013 0.052575 0.158602
H23   H     H_    0.720440 0.063513 0.446499 0.143493
H24   H     H_    0.436013 0.860402 0.052575 0.158602
H25   H     H_    0.860402 0.563984 0.052582 0.158601
H26   H     H_    0.563984 0.139598 0.052585 0.158600
H27   H     H_    0.936487 0.720440 0.446500 0.143492
H28   H     H_    0.720440 0.936487 0.553501 0.143492
H29   H     H_    0.936489 0.279560 0.553509 0.143492
H30   H     H_    0.279560 0.063511 0.553506 0.143493
H31   H     H_    0.063513 0.720440 0.553500 0.143492
H32   H     H_    0.779560 0.436491 0.946488 0.143493
N1    N     N_1   0.246180 0.088345 0.377287 -0.180554
N2    N     N_1   0.411657 0.746180 0.877283 -0.180554
N3    N     N_1   0.253820 0.411657 0.877283 -0.180554
N4    N     N_1   0.588350 0.253820 0.877297 -0.180554
N5    N     N_1   0.253820 0.588343 0.122717 -0.180554
N6    N     N_1   0.588343 0.746180 0.122717 -0.180554
N7    N     N_1   0.746180 0.411650 0.122703 -0.180554
N8    N     N_1   0.411650 0.253820 0.122704 -0.180554
N9    N     N_1   0.114251 0.093180 0.387485 -0.185082
N10   N     N_1   0.906819 0.114251 0.387488 -0.185082
N11   N     N_1   0.885749 0.906823 0.387477 -0.185080
N12   N     N_1   0.911653 0.246180 0.377290 -0.180554
N13   N     N_1   0.093175 0.885749 0.387472 -0.185080
N14   N     N_1   0.885749 0.093177 0.612522 -0.185081
N15   N     N_1   0.093181 0.114251 0.612512 -0.185082
N16   N     N_1   0.114251 0.906820 0.612515 -0.185082
N17   N     N_1   0.906825 0.885749 0.612528 -0.185079
N18   N     N_1   0.614251 0.593184 0.887494 -0.185084
N19   N     N_1   0.406822 0.614251 0.887481 -0.185081
N20   N     N_1   0.385749 0.406822 0.887480 -0.185082
N21   N     N_1   0.593184 0.385749 0.887494 -0.185084
N22   N     N_1   0.385749 0.593178 0.112519 -0.185082
N23   N     N_1   0.753820 0.911659 0.377279 -0.180555
N24   N     N_1   0.593178 0.614251 0.112519 -0.185082
N25   N     N_1   0.614251 0.406817 0.112507 -0.185084
N26   N     N_1   0.406816 0.385749 0.112506 -0.185084
N27   N     N_1   0.088340 0.753820 0.377276 -0.180554
N28   N     N_1   0.753820 0.088341 0.622721 -0.180554
N29   N     N_1   0.088347 0.246180 0.622710 -0.180554
N30   N     N_1   0.246180 0.911655 0.622713 -0.180554
N31   N     N_1   0.911661 0.753820 0.622725 -0.180554
N32   N     N_1   0.746180 0.588349 0.877295 -0.180554
O1    O     O_R   0.434530 0.036970 0.500000 -0.622715
O2    O     O_R   0.463030 0.934530 0.000000 -0.622714
O3    O     O_R   0.065470 0.463030 0.000000 -0.622715
O4    O     O_R   0.536970 0.065470 0.000000 -0.622714
O5    O     O_R   0.065470 0.536970 0.000000 -0.622715
O6    O     O_R   0.536970 0.934530 0.000000 -0.622715
O7    O     O_R   0.934530 0.463030 0.000000 -0.622714
O8    O     O_R   0.463030 0.065470 0.000000 -0.622714
O9    O     O_R   0.500010 0.036970 0.392670 -0.615886
O10   O     O_R   0.963030 0.500010 0.392670 -0.615886
O11   O     O_R   0.499990 0.963030 0.392670 -0.615886
O12   O     O_R   0.963030 0.434530 0.500000 -0.622714
O13   O     O_R   0.036970 0.499990 0.392670 -0.615886
O14   O     O_R   0.499990 0.036970 0.607330 -0.615887
O15   O     O_R   0.036970 0.500010 0.607330 -0.615886
O16   O     O_R   0.500010 0.963030 0.607330 -0.615885
O17   O     O_R   0.963030 0.499990 0.607330 -0.615886
O18   O     O_R   0.000010 0.536970 0.892670 -0.615886
O19   O     O_R   0.463030 0.000010 0.892670 -0.615886
O20   O     O_R   0.999990 0.463030 0.892670 -0.615886
O21   O     O_R   0.536970 0.999990 0.892670 -0.615886
O22   O     O_R   0.999990 0.536970 0.107330 -0.615886
O23   O     O_R   0.565470 0.963030 0.500000 -0.622715
O24   O     O_R   0.536970 0.000010 0.107330 -0.615887
O25   O     O_R   0.000010 0.463030 0.107330 -0.615886
O26   O     O_R   0.463030 0.999990 0.107330 -0.615885
O27   O     O_R   0.999990 0.934550 0.439420 -0.612013
O28   O     O_R   0.065450 0.999990 0.439420 -0.612014
O29   O     O_R   0.000010 0.065450 0.439420 -0.612014
O30   O     O_R   0.934550 0.000010 0.439420 -0.612013
O31   O     O_R   0.000010 0.934550 0.560580 -0.612013
O32   O     O_R   0.934550 0.999990 0.560580 -0.612014
O33   O     O_R   0.999990 0.065450 0.560580 -0.612014
O34   O     O_R   0.036970 0.565470 0.500000 -0.622716
O35   O     O_R   0.065450 0.000010 0.560580 -0.612013
O36   O     O_R   0.499990 0.434550 0.939420 -0.612014
O37   O     O_R   0.565450 0.499990 0.939420 -0.612014
O38   O     O_R   0.500010 0.565450 0.939420 -0.612014
O39   O     O_R   0.434550 0.500010 0.939420 -0.612014
O40   O     O_R   0.500010 0.434550 0.060580 -0.612014
O41   O     O_R   0.434550 0.499990 0.060580 -0.612014
O42   O     O_R   0.499990 0.565450 0.060580 -0.612015
O43   O     O_R   0.565450 0.500010 0.060580 -0.612014
O44   O     O_R   0.565470 0.036970 0.500000 -0.622716
O45   O     O_R   0.036970 0.434530 0.500000 -0.622715
O46   O     O_R   0.434530 0.963030 0.500000 -0.622714
O47   O     O_R   0.963030 0.565470 0.500000 -0.622715
O48   O     O_R   0.934530 0.536970 0.000000 -0.622714
Zn1   Zn    Zn3+2 0.500000 0.049360 0.500000 0.981305
Zn2   Zn    Zn3+2 0.000000 0.000000 0.580910 1.019335
Zn3   Zn    Zn3+2 0.500000 0.500000 0.919090 1.019333
Zn4   Zn    Zn3+2 0.500000 0.500000 0.080910 1.019333
Zn5   Zn    Zn3+2 0.950640 0.500000 0.500000 0.981305
Zn6   Zn    Zn3+2 0.500000 0.950640 0.500000 0.981306
Zn7   Zn    Zn3+2 0.049360 0.500000 0.500000 0.981306
Zn8   Zn    Zn3+2 0.000000 0.549360 0.000000 0.981307
Zn9   Zn    Zn3+2 0.450640 0.000000 0.000000 0.981306
Zn10  Zn    Zn3+2 0.000000 0.450640 0.000000 0.981306
Zn11  Zn    Zn3+2 0.549360 0.000000 0.000000 0.981307
Zn12  Zn    Zn3+2 1.000000 0.000000 0.419090 1.019335

loop_
_geom_bond_atom_site_label_1
_geom_bond_atom_site_label_2
_ccdc_geom_bond_type
C118  O15   A    
C45   N3    T    
C65   C92   S    
C107  O12   A    
O3    Zn10  S    
C141  H1    S    
C159  H10   S    
C125  O33   A    
C89   C102  A    
C28   C84   S    
C154  H5    S    
O7    Zn10  S    
C11   H21   S    
O18   Zn8   S    
C63   N20   T    
C69   C96   S    
C70   C88   A    
C78   C139  A    
C134  C137  T    
C21   C110  S    
C34   C150  S    
C135  C136  T    
C114  O11   A    
C127  O40   A    
C40   C46   S    
C23   C112  S    
C15   H25   S    
C12   C23   A    
O45   Zn7   S    
C28   C145  A    
O40   Zn4   S    
C54   C81   S    
C44   C71   S    
C19   C160  A    
C122  O24   A    
C77   C106  A    
O13   Zn7   S    
O14   Zn1   S    
C52   N9    T    
C97   C124  S    
C25   C113  S    
O28   Zn12  S    
C36   N12   T    
C32   C128  S    
C14   C155  A    
C33   C153  A    
C9    C22   A    
C126  O32   A    
C116  C134  S    
C11   C25   A    
C155  H6    S    
C54   N11   T    
C62   C89   S    
C13   C81   A    
C77   C94   A    
C16   C25   A    
C27   C142  A    
C31   C151  A    
C57   C86   A    
C7    H17   S    
O35   Zn2   S    
C75   C128  A    
C109  O34   A    
C108  O44   A    
C86   C97   A    
C24   C82   A    
C18   C107  S    
C31   C117  S    
C85   C98   A    
C92   C103  A    
C10   C152  A    
C4    C19   A    
C3    H13   S    
C98   C125  S    
C12   H22   S    
C124  O35   A    
C78   C96   A    
C149  H32   S    
O15   Zn7   S    
O44   Zn1   S    
O21   Zn11  S    
C67   C94   S    
C24   C38   S    
C62   N19   T    
C146  H29   S    
C18   C159  A    
C123  O31   A    
C105  O1    A    
O8    Zn9   S    
C114  O9    A    
C52   C79   S    
C119  O20   A    
C91   C104  A    
C13   C37   S    
C41   N30   T    
C129  O43   A    
C118  O17   A    
C61   N18   T    
C46   C85   A    
C19   C108  S    
C148  H31   S    
C30   C156  A    
C103  C131  S    
C133  C138  T    
O48   Zn8   S    
O10   Zn5   S    
C83   C99   A    
C30   C106  S    
C45   C72   S    
C42   C68   S    
C5    H15   S    
C48   C75   S    
O32   Zn2   S    
O1    Zn1   S    
C29   C148  A    
C129  O37   A    
C157  H8    S    
C13   C84   A    
C112  O3    A    
C60   C87   S    
C33   C157  A    
C88   C101  A    
C99   C126  S    
C131  O39   A    
C49   N6    T    
C55   N13   T    
O43   Zn4   S    
C68   C95   A    
O25   Zn10  S    
C71   C117  A    
O31   Zn2   S    
C81   C99   A    
C69   N26   T    
O17   Zn5   S    
C47   N4    T    
C143  C160  A    
C53   C80   S    
C94   C101  A    
C70   C106  A    
C24   C95   A    
O42   Zn4   S    
C29   C95   S    
C35   C83   A    
C30   C149  A    
C5    C18   A    
C153  H4    S    
C156  H7    S    
C29   C144  A    
C115  O13   A    
O6    Zn11  S    
O30   Zn12  S    
C112  O5    A    
O12   Zn5   S    
C120  O19   A    
C143  H23   S    
C121  C138  S    
C35   C39   S    
C123  O27   A    
O38   Zn3   S    
C61   C88   S    
C1    C57   A    
C76   C93   A    
C122  O26   A    
C72   C90   A    
C39   N28   T    
O41   Zn4   S    
C121  O25   A    
C32   C152  A    
C67   N25   T    
C50   N7    T    
C151  H2    S    
O9    Zn1   S    
C8    C21   A    
O33   Zn2   S    
C49   C76   S    
C59   N16   T    
C1    C150  A    
C126  O30   A    
C28   C143  A    
C130  O38   A    
C5    C146  A    
C55   C82   S    
O22   Zn8   S    
C17   C158  A    
C74   C91   A    
C15   C156  A    
C125  O29   A    
C2    C73   A    
C71   C89   A    
C66   C93   S    
C32   C154  A    
C75   C92   A    
O4    Zn11  S    
C121  O22   A    
C72   C128  A    
C7    C20   A    
C43   C70   S    
O39   Zn3   S    
C79   C150  A    
C101  C129  S    
C1    C26   S    
O26   Zn9   S    
O16   Zn6   S    
C31   C155  A    
C132  C140  T    
C120  O21   A    
C142  C159  A    
C42   N31   T    
C26   C141  A    
C58   C85   S    
C76   C117  A    
C108  O23   A    
C34   N1    T    
C56   C83   S    
C142  H12   S    
C87   C100  A    
C60   N17   T    
C2    C36   S    
C105  O46   A    
C68   C87   A    
C6    C17   A    
C9    C151  A    
C116  O14   A    
C64   N21   T    
C51   N8    T    
C80   C98   A    
C16   C157  A    
O11   Zn6   S    
C114  C132  S    
C38   N27   T    
C79   C97   A    
C3    C144  A    
C119  C136  S    
C47   C74   S    
C12   C154  A    
C113  O4    A    
C9    H19   S    
C93   C102  A    
C7    C148  A    
O47   Zn5   S    
C14   H24   S    
C35   C84   A    
O29   Zn12  S    
C158  H9    S    
C17   C105  S    
O37   Zn3   S    
C10   C23   A    
C107  O45   A    
C115  C133  S    
C74   C139  A    
C116  O16   A    
O5    Zn8   S    
O20   Zn10  S    
C53   N10   T    
C48   N5    T    
C100  C123  S    
C10   H20   S    
C20   C109  S    
O46   Zn6   S    
O23   Zn6   S    
C96   C104  A    
C131  O41   A    
C40   N29   T    
C41   C57   S    
C65   N22   T    
C109  O47   A    
C3    C20   A    
C145  H28   S    
O19   Zn9   S    
C110  O48   A    
C6    C147  A    
C14   C22   A    
C104  C127  S    
C6    H16   S    
C58   N15   T    
C33   C139  S    
C27   C146  A    
C59   C86   S    
C4    C145  A    
C63   C90   S    
C82   C100  A    
C44   N2    T    
C4    H14   S    
C160  H11   S    
C43   N32   T    
O27   Zn12  S    
C46   C73   A    
C66   N24   T    
C26   C147  A    
C119  O18   A    
C90   C103  A    
C51   C78   S    
C152  H3    S    
C2    C80   A    
C110  O7    A    
C11   C153  A    
C122  C140  S    
C113  O8    A    
C130  O42   A    
C8    H18   S    
C141  C158  A    
C15   C21   A    
C56   N14   T    
O24   Zn11  S    
C124  O28   A    
C22   C111  S    
C50   C77   S    
O34   Zn7   S    
O36   Zn3   S    
C111  O6    A    
C127  O36   A    
C16   H26   S    
C120  C137  S    
C147  H30   S    
C64   C91   S    
O2    Zn9   S    
C27   C73   S    
C8    C149  A    
C37   N23   T    
C115  O10   A    
C118  C135  S    
C111  O2    A    
C144  H27   S    
C102  C130  S    
