data_mof_unit_65737.cif
_audit_creation_date              2012-12-10T19:38:09-0500
_audit_creation_method            fapswitch 2.2
_symmetry_space_group_name_H-M    P1
_symmetry_Int_Tables_number       1
_space_group_crystal_system       triclinic
_cell_length_a                    27.374979
_cell_length_b                    26.96236
_cell_length_c                    18.441996
_cell_angle_alpha                 89.716397
_cell_angle_beta                  90.071894
_cell_angle_gamma                 89.965426
_cell_volume                      13611.7473159

loop_
_atom_site_label
_atom_site_type_symbol
_atom_type_description
_atom_site_fract_x
_atom_site_fract_y
_atom_site_fract_z
_atom_type_partial_charge
C1    C     C_R   0.067075 0.432801 0.500102 1.000133
C2    C     C_R   0.999960 0.499987 0.843232 -0.208151
C3    C     C_R   0.498306 0.001130 0.156948 -0.209508
C4    C     C_R   0.497195 0.001798 0.843756 -0.242046
C5    C     C_R   0.003996 0.455570 0.197083 0.474583
C6    C     C_R   0.003766 0.544461 0.802895 0.475030
C7    C     C_R   0.995876 0.544463 0.196461 0.475257
C8    C     C_R   0.996154 0.455517 0.803500 0.475514
C9    C     C_R   0.495947 0.956253 0.196700 0.476334
C10   C     C_R   0.490439 0.045258 0.802134 0.478051
C11   C     C_R   0.501638 0.045379 0.197176 0.475064
C12   C     C_R   0.933027 0.567262 0.499793 1.001039
C13   C     C_R   0.505564 0.957610 0.805548 0.556090
C14   C     C_R   0.003771 0.456309 0.273793 0.079512
C15   C     C_R   0.003552 0.543713 0.726187 0.079425
C16   C     C_R   0.996129 0.543697 0.273193 0.078073
C17   C     C_R   0.996395 0.456282 0.726773 0.078100
C18   C     C_R   0.496955 0.956472 0.273377 0.079273
C19   C     C_R   0.492074 0.043690 0.725289 0.087270
C20   C     C_R   0.502266 0.044050 0.273829 0.079185
C21   C     C_R   0.507417 0.957330 0.729357 0.054362
C22   C     C_R   0.852859 0.401396 0.539225 -0.073751
C23   C     C_R   0.933078 0.432665 0.500164 1.000388
C24   C     C_R   0.096491 0.649993 0.463792 -0.067567
C25   C     C_R   0.147897 0.596455 0.539087 -0.074454
C26   C     C_R   0.906080 0.348805 0.466272 -0.067606
C27   C     C_R   0.149412 0.406407 0.463319 -0.073556
C28   C     C_R   0.903998 0.650351 0.533640 -0.068571
C29   C     C_R   0.851471 0.595886 0.462437 -0.073571
C30   C     C_R   0.099183 0.351316 0.537656 -0.067964
C31   C     C_R   0.402884 0.850447 0.537620 -0.070100
C32   C     C_R   0.648485 0.095168 0.460238 -0.072931
C33   C     C_R   0.599495 0.147966 0.539091 -0.065910
C34   C     C_R   0.066996 0.567250 0.499987 1.000237
C35   C     C_R   0.351849 0.903781 0.461453 -0.071746
C36   C     C_R   0.595485 0.849422 0.466719 -0.068798
C37   C     C_R   0.352392 0.098013 0.537027 -0.075121
C38   C     C_R   0.406709 0.151765 0.467064 -0.069205
C39   C     C_R   0.648429 0.903849 0.537304 -0.077248
C40   C     C_R   0.818128 0.363639 0.541343 0.583204
C41   C     C_R   0.132501 0.686444 0.465172 0.582125
C42   C     C_R   0.183829 0.633025 0.540046 0.583686
C43   C     C_R   0.871202 0.311236 0.468621 0.581869
C44   C     C_R   0.187094 0.371617 0.464961 0.582918
C45   C     C_R   0.566937 0.932718 0.500210 0.998862
C46   C     C_R   0.867761 0.686615 0.532579 0.583009
C47   C     C_R   0.815295 0.632265 0.461811 0.583613
C48   C     C_R   0.136920 0.316661 0.538898 0.583205
C49   C     C_R   0.366395 0.814510 0.537581 0.589069
C50   C     C_R   0.685961 0.130148 0.461634 0.582267
C51   C     C_R   0.637005 0.182817 0.540039 0.582374
C52   C     C_R   0.315468 0.867639 0.461682 0.582144
C53   C     C_R   0.631613 0.813040 0.467624 0.584484
C54   C     C_R   0.317789 0.135893 0.539316 0.584228
C55   C     C_R   0.371953 0.189482 0.469570 0.583556
C56   C     C_R   0.433082 0.067320 0.499934 1.006393
C57   C     C_R   0.684484 0.867355 0.537809 0.586550
C58   C     C_R   0.827125 0.318665 0.505688 -0.242906
C59   C     C_R   0.176285 0.677949 0.502881 -0.243308
C60   C     C_R   0.181044 0.326851 0.503097 -0.243346
C61   C     C_R   0.823280 0.677539 0.497156 -0.243492
C62   C     C_R   0.322639 0.823052 0.499851 -0.245268
C63   C     C_R   0.680438 0.173851 0.501900 -0.242930
C64   C     C_R   0.676268 0.822061 0.502606 -0.243407
C65   C     C_R   0.327431 0.181573 0.505359 -0.243412
C66   C     C_R   0.999947 0.499995 0.925390 0.375790
C67   C     C_R   0.433028 0.932702 0.500036 0.998154
C68   C     C_R   0.999939 0.500017 0.074582 0.375829
C69   C     C_R   0.496571 0.002115 0.925781 0.377363
C70   C     C_R   0.497412 0.001670 0.074873 0.376371
C71   C     C_R   0.896559 0.393981 0.501050 -0.185562
C72   C     C_R   0.104479 0.604946 0.500372 -0.186259
C73   C     C_R   0.105709 0.396256 0.500282 -0.186309
C74   C     C_R   0.895537 0.604941 0.499011 -0.185429
C75   C     C_R   0.395354 0.895157 0.499911 -0.181764
C76   C     C_R   0.605487 0.104044 0.499580 -0.189867
C77   C     C_R   0.604255 0.894892 0.501004 -0.188311
C78   C     C_R   0.567091 0.067206 0.499877 1.004236
C79   C     C_R   0.396579 0.105994 0.500335 -0.187299
C80   C     C_R   0.214228 0.715686 0.502722 0.389040
C81   C     C_R   0.790179 0.279932 0.505773 0.390671
C82   C     C_R   0.785102 0.715053 0.497874 0.389140
C83   C     C_R   0.220322 0.290436 0.504820 0.388549
C84   C     C_R   0.719627 0.210329 0.503769 0.388041
C85   C     C_R   0.284597 0.785439 0.500440 0.389531
C86   C     C_R   0.290717 0.220575 0.506031 0.390305
C87   C     C_R   0.714414 0.784508 0.501578 0.388694
C88   C     C_R   0.999945 0.500021 0.156738 -0.207818
F1    F     F_    0.008229 0.411255 0.162970 -0.616357
F2    F     F_    0.124977 0.729552 0.428283 -0.614844
F3    F     F_    0.225550 0.624890 0.578339 -0.614508
F4    F     F_    0.881000 0.267170 0.436211 -0.615437
F5    F     F_    0.229887 0.382276 0.431016 -0.615357
F6    F     F_    0.875736 0.730081 0.567685 -0.614566
F7    F     F_    0.772864 0.623584 0.425700 -0.615079
F8    F     F_    0.129784 0.272612 0.573450 -0.614326
F9    F     F_    0.373499 0.771784 0.575600 -0.612420
F10   F     F_    0.728119 0.120608 0.425425 -0.615493
F11   F     F_    0.630316 0.225860 0.576801 -0.614497
F12   F     F_    0.007750 0.588799 0.837012 -0.616129
F13   F     F_    0.273692 0.875822 0.423544 -0.615059
F14   F     F_    0.623362 0.769525 0.432792 -0.614576
F15   F     F_    0.274380 0.127422 0.572842 -0.614449
F16   F     F_    0.382324 0.234139 0.438735 -0.615190
F17   F     F_    0.727038 0.875963 0.573638 -0.614316
F18   F     F_    0.991560 0.588778 0.161715 -0.616221
F19   F     F_    0.992122 0.411179 0.838229 -0.616152
F20   F     F_    0.492602 0.912048 0.162074 -0.615306
F21   F     F_    0.482097 0.089350 0.835192 -0.615554
F22   F     F_    0.504171 0.090039 0.163018 -0.616510
F23   F     F_    0.513613 0.914292 0.841576 -0.590306
F24   F     F_    0.775160 0.371616 0.576253 -0.614736
H1    H     H_    0.978808 0.387905 0.296322 0.216021
H2    H     H_    0.462221 0.892929 0.299192 0.220924
H3    H     H_    0.512095 0.113855 0.702890 0.214233
H4    H     H_    0.451542 0.102994 0.696526 0.220920
H5    H     H_    0.537052 0.107528 0.299053 0.220252
H6    H     H_    0.475449 0.111447 0.297499 0.216407
H7    H     H_    0.495703 0.905879 0.651758 0.238739
H8    H     H_    0.555227 0.912694 0.678186 0.223741
H9    H     H_    0.837534 0.440603 0.629540 0.244849
H10   H     H_    0.811431 0.462788 0.552732 0.232664
H11   H     H_    0.034647 0.689882 0.450891 0.226980
H12   H     H_    0.040186 0.393751 0.299879 0.220941
H13   H     H_    0.059316 0.668748 0.373221 0.241498
H14   H     H_    0.161458 0.558013 0.631342 0.245873
H15   H     H_    0.187337 0.533995 0.555998 0.230873
H16   H     H_    0.969297 0.310827 0.456832 0.227363
H17   H     H_    0.944636 0.329696 0.377550 0.240362
H18   H     H_    0.163386 0.444966 0.371388 0.244864
H19   H     H_    0.186180 0.470635 0.447812 0.230527
H20   H     H_    0.965839 0.690592 0.542686 0.227347
H21   H     H_    0.942821 0.669956 0.622035 0.241519
H22   H     H_    0.812194 0.533027 0.449597 0.230861
H23   H     H_    0.978288 0.612035 0.703376 0.216058
H24   H     H_    0.836269 0.556458 0.372228 0.245701
H25   H     H_    0.039021 0.308643 0.548259 0.229640
H26   H     H_    0.060962 0.331603 0.626687 0.240315
H27   H     H_    0.463788 0.809207 0.552269 0.232434
H28   H     H_    0.440362 0.833707 0.628918 0.252032
H29   H     H_    0.661012 0.058991 0.366320 0.244671
H30   H     H_    0.685368 0.031584 0.440787 0.230715
H31   H     H_    0.539419 0.190031 0.554866 0.229731
H32   H     H_    0.563291 0.164734 0.630922 0.240259
H33   H     H_    0.338113 0.941550 0.368659 0.245503
H34   H     H_    0.039704 0.606391 0.700220 0.220738
H35   H     H_    0.313109 0.966610 0.443943 0.230594
H36   H     H_    0.533410 0.809433 0.458668 0.227759
H37   H     H_    0.556114 0.829684 0.378874 0.241912
H38   H     H_    0.310661 0.036542 0.547782 0.233340
H39   H     H_    0.335894 0.057129 0.625848 0.244961
H40   H     H_    0.446584 0.172331 0.380000 0.240605
H41   H     H_    0.470221 0.189532 0.460528 0.227846
H42   H     H_    0.663907 0.943313 0.627373 0.243935
H43   H     H_    0.687947 0.966586 0.549875 0.232206
H44   H     H_    0.020679 0.612267 0.294780 0.216158
H45   H     H_    0.959367 0.605992 0.298470 0.220680
H46   H     H_    0.021430 0.387865 0.705066 0.215769
H47   H     H_    0.960055 0.393753 0.701418 0.220624
H48   H     H_    0.523727 0.888560 0.295059 0.216432
N1    N     N_R   0.000000 0.500000 0.310560 -0.133768
N2    N     N_R   0.496037 0.958910 0.964248 -0.062358
N3    N     N_R   0.496434 0.958678 0.036655 -0.058248
N4    N     N_R   0.497337 0.045219 0.963906 -0.061024
N5    N     N_R   0.784007 0.250912 0.446706 -0.072778
N6    N     N_R   0.261926 0.702360 0.503792 -0.070001
N7    N     N_R   0.202249 0.764429 0.500440 -0.068532
N8    N     N_R   0.760812 0.273367 0.564049 -0.069365
N9    N     N_R   0.226031 0.260236 0.563154 -0.068105
N10   N     N_R   0.737488 0.701505 0.499877 -0.070511
N11   N     N_R   0.796831 0.763850 0.497760 -0.068613
N12   N     N_R   1.000000 0.500000 0.689440 -0.133976
N13   N     N_R   0.250694 0.285493 0.447380 -0.069881
N14   N     N_R   0.236899 0.798785 0.499356 -0.070021
N15   N     N_R   0.726114 0.239072 0.563066 -0.068125
N16   N     N_R   0.749269 0.216645 0.445711 -0.069324
N17   N     N_R   0.296567 0.736704 0.502718 -0.069427
N18   N     N_R   0.762027 0.798048 0.499515 -0.070560
N19   N     N_R   0.285358 0.251097 0.447984 -0.072414
N20   N     N_R   0.260661 0.225824 0.563745 -0.068888
N21   N     N_R   0.702681 0.735708 0.501637 -0.067835
N22   N     N_3   0.007211 0.410877 0.313578 -0.356001
N23   N     N_R   0.500000 0.000000 0.310560 -0.134211
N24   N     N_3   0.006819 0.589141 0.686363 -0.356301
N25   N     N_3   0.992480 0.589086 0.312381 -0.356301
N26   N     N_3   0.993020 0.410881 0.687539 -0.356671
N27   N     N_3   0.494854 0.910776 0.312729 -0.357747
N28   N     N_3   0.486042 0.088505 0.684674 -0.352085
N29   N     N_3   0.504840 0.089246 0.313677 -0.355909
N30   N     N_3   0.518972 0.911336 0.695495 -0.361872
N31   N     N_3   0.843492 0.447728 0.574479 -0.416997
N32   N     N_3   0.051264 0.659170 0.426868 -0.421115
N33   N     N_3   0.155619 0.550342 0.576495 -0.415731
N34   N     N_R   0.500000 0.000000 0.689440 -0.159087
N35   N     N_3   0.951897 0.340509 0.430824 -0.420823
N36   N     N_3   0.155825 0.452644 0.425745 -0.414729
N37   N     N_3   0.949864 0.660006 0.568358 -0.422502
N38   N     N_3   0.843328 0.549367 0.427037 -0.416526
N39   N     N_3   0.053653 0.340315 0.572467 -0.422974
N40   N     N_3   0.448110 0.841077 0.574415 -0.442213
N41   N     N_3   0.654509 0.049927 0.420644 -0.412114
N42   N     N_3   0.554750 0.157717 0.576682 -0.421396
N43   N     N_3   0.344452 0.949644 0.423252 -0.413778
N44   N     N_3   0.549407 0.839839 0.432564 -0.422926
N45   N     N_R   0.999946 0.543164 0.035915 -0.060707
N46   N     N_3   0.342492 0.051049 0.570773 -0.417705
N47   N     N_3   0.453035 0.160480 0.433200 -0.423055
N48   N     N_3   0.656793 0.950376 0.572572 -0.418838
N49   N     N_R   0.999933 0.456848 0.964058 -0.060675
N50   N     N_R   0.999935 0.456860 0.036558 -0.060650
N51   N     N_R   0.999956 0.543152 0.963415 -0.060545
N52   N     N_R   0.497741 0.044979 0.036457 -0.061081
O1    O     O_R   0.050940 0.449070 0.560830 -0.597722
O2    O     O_R   0.449060 0.050930 0.439170 -0.597040
O3    O     O_R   0.449060 0.050930 0.560830 -0.597701
O4    O     O_R   0.550940 0.949070 0.439170 -0.590312
O5    O     O_R   0.449060 0.949070 0.439170 -0.595669
O6    O     O_R   0.550940 0.050930 0.560830 -0.593656
O7    O     O_R   0.550940 0.050930 0.439170 -0.597830
O8    O     O_R   0.449060 0.949070 0.560830 -0.628180
O9    O     O_R   0.949060 0.550930 0.439170 -0.600534
O10   O     O_R   0.949060 0.550930 0.560830 -0.597525
O11   O     O_R   0.050940 0.449070 0.439170 -0.599325
O12   O     O_R   0.949060 0.449070 0.439170 -0.596941
O13   O     O_R   0.050940 0.550930 0.560830 -0.600066
O14   O     O_R   0.050940 0.550930 0.439170 -0.596858
O15   O     O_R   0.949060 0.449070 0.560830 -0.600682
O16   O     O_R   0.550940 0.949070 0.560830 -0.646943
Zn1   Zn    Zn3+2 0.000000 0.500000 0.581210 1.004172
Zn2   Zn    Zn3+2 1.000000 0.500000 0.418790 1.004833
Zn3   Zn    Zn3+2 0.500000 1.000000 0.581210 0.975328
Zn4   Zn    Zn3+2 0.500000 1.000000 0.418790 1.004990

loop_
_geom_bond_atom_site_label_1
_geom_bond_atom_site_label_2
_ccdc_geom_bond_type
N45   N51   A    
N8    N15   A    
C57   F17   S    
C82   N10   A    
C26   C71   A    
C12   C74   S    
C70   N52   A    
C37   N46   S    
C18   N27   S    
H40   N47   S    
H19   N36   S    
C66   N51   A    
H7    N30   S    
O7    Zn4   S    
C68   N50   A    
C70   N3    A    
C53   F14   S    
C21   N30   S    
C17   N12   A    
C25   N33   S    
H10   N31   S    
C40   F24   S    
C54   C65   A    
H44   N25   S    
N5    N16   A    
C86   N19   A    
H4    N28   S    
C28   C46   A    
C56   C79   S    
C29   C47   A    
O3    Zn3   S    
H45   N25   S    
C39   C77   A    
H47   N26   S    
C30   C48   A    
C67   O8    A    
C34   O14   A    
H29   N41   S    
H9    N31   S    
H18   N36   S    
C16   N25   S    
H15   N33   S    
O5    Zn4   S    
C78   O7    A    
H6    N29   S    
C38   C79   A    
N13   N19   A    
C39   C57   A    
C47   F7    S    
C33   N42   S    
C4    C13   A    
C45   O4    A    
C10   F21   S    
C42   F3    S    
C32   N41   S    
C4    C69   S    
C56   O3    A    
C32   C76   A    
C44   F5    S    
C43   C58   A    
O4    Zn4   S    
C6    C15   A    
H41   N47   S    
C5    C88   A    
C27   C44   A    
C38   C55   A    
H25   N39   S    
O10   Zn1   S    
O9    Zn2   S    
H38   N46   S    
C69   N4    A    
N11   N18   A    
C36   C53   A    
C21   N34   A    
C84   N15   A    
C17   N26   S    
N9    N20   A    
H24   N38   S    
O11   Zn2   S    
H26   N39   S    
C30   N39   S    
C28   C74   A    
C39   N48   S    
C11   F22   S    
C24   C41   A    
C2    C6    A    
H23   N24   S    
C31   C49   A    
C26   N35   S    
H46   N26   S    
C80   N6    A    
C31   N40   S    
C55   C65   A    
C26   C43   A    
C48   C60   A    
C50   C63   A    
C24   C72   A    
C51   F11   S    
C52   F13   S    
C62   C85   S    
C11   C20   A    
C50   F10   S    
C40   C58   A    
C38   N47   S    
C46   C61   A    
H30   N41   S    
C23   C71   S    
C54   F15   S    
C65   C86   S    
C3    C70   S    
C51   C63   A    
C69   N2    A    
C41   C59   A    
H43   N48   S    
C58   C81   S    
C20   N29   S    
H33   N43   S    
C30   C73   A    
C53   C64   A    
H27   N40   S    
C29   C74   A    
C1    O11   A    
O14   Zn2   S    
C55   F16   S    
O13   Zn1   S    
H2    N27   S    
C9    F20   S    
C45   O16   A    
C6    F12   S    
C61   C82   S    
C59   C80   S    
H8    N30   S    
H12   N22   S    
C3    C9    A    
O12   Zn2   S    
C19   N28   S    
C37   C79   A    
C33   C76   A    
C31   C75   A    
C7    C88   A    
C46   F6    S    
C67   O5    A    
C10   C19   A    
C35   C75   A    
C15   N24   S    
C34   O13   A    
C86   N20   A    
N49   N50   A    
C12   O10   A    
C7    F18   S    
C13   C21   A    
C24   N32   S    
C25   C72   A    
C44   C60   A    
C66   N49   A    
H37   N44   S    
C32   C50   A    
C5    C14   A    
C14   N22   S    
H5    N29   S    
C20   N23   A    
H32   N42   S    
C37   C54   A    
H16   N35   S    
C7    C16   A    
O15   Zn1   S    
C43   F4    S    
N6    N17   A    
N7    N14   A    
N10   N21   A    
C1    O1    A    
C68   C88   S    
C67   C75   S    
C4    C10   A    
H1    N22   S    
C34   C72   S    
C22   C71   A    
C87   N21   A    
O1    Zn1   S    
H36   N44   S    
C57   C64   A    
N2    N3    A    
H22   N38   S    
C82   N11   A    
H21   N37   S    
C49   C62   A    
C48   F8    S    
O8    Zn3   S    
H17   N35   S    
C56   O2    A    
N34   Zn3   S    
C2    C8    A    
C8    C17   A    
C76   C78   S    
C2    C66   S    
C5    F1    S    
C25   C42   A    
C47   C61   A    
C27   C73   A    
C23   O15   A    
N12   Zn1   S    
C27   N36   S    
C16   N1    A    
C33   C51   A    
C28   N37   S    
H34   N24   S    
C63   C84   S    
C36   C77   A    
C1    C73   S    
C14   N1    A    
C83   N13   A    
C22   N31   S    
O2    Zn4   S    
C13   F23   S    
C85   N14   A    
C52   C62   A    
C78   O6    A    
C87   N18   A    
H3    N28   S    
C35   C52   A    
H14   N33   S    
C35   N43   S    
C80   N7    A    
H28   N40   S    
C18   N23   A    
N4    N52   A    
C83   N9    A    
H35   N43   S    
H20   N37   S    
C60   C83   S    
C81   N8    A    
C15   N12   A    
C41   F2    S    
H13   N32   S    
O16   Zn3   S    
H39   N46   S    
C8    F19   S    
C22   C40   A    
C12   O9    A    
C3    C11   A    
C49   F9    S    
N1    Zn2   S    
C9    C18   A    
H31   N42   S    
C23   O12   A    
C19   N34   A    
C85   N17   A    
C29   N38   S    
C42   C59   A    
C68   N45   A    
C81   N5    A    
C45   C77   S    
O6    Zn3   S    
C36   N44   S    
H48   N27   S    
H11   N32   S    
C84   N16   A    
N23   Zn4   S    
C64   C87   S    
H42   N48   S    
