data_mof_unit_34568.cif
_audit_creation_date              2012-12-10T19:47:52-0500
_audit_creation_method            fapswitch 2.2
_symmetry_space_group_name_H-M    P1
_symmetry_Int_Tables_number       1
_space_group_crystal_system       triclinic
_cell_length_a                    18.208649
_cell_length_b                    18.237349
_cell_length_c                    21.814961
_cell_angle_alpha                 89.523739
_cell_angle_beta                  90.606866
_cell_angle_gamma                 90.244554
_cell_volume                      7243.53751555

loop_
_atom_site_label
_atom_site_type_symbol
_atom_type_description
_atom_site_fract_x
_atom_site_fract_y
_atom_site_fract_z
_atom_type_partial_charge
C1    C     C_R   0.999708 0.358718 0.998594 1.012101
C2    C     C_1   0.282155 0.999722 0.000581 -0.038579
C3    C     C_3   0.187912 0.029869 0.764940 0.114441
C4    C     C_3   0.115628 0.045556 0.797326 -0.267211
C5    C     C_3   0.062760 0.088917 0.756311 -0.981348
C6    C     C_3   0.305866 0.449568 0.836400 0.176052
C7    C     C_3   0.278957 0.504846 0.884656 -0.505576
C8    C     C_3   0.251761 0.467739 0.943194 -0.686409
C9    C     C_3   0.811247 0.959793 0.769637 0.117425
C10   C     C_3   0.884014 0.942994 0.802352 -0.274043
C11   C     C_3   0.934060 0.896371 0.762936 -0.966931
C12   C     C_3   0.791958 0.641183 0.109420 0.121136
C13   C     C_1   0.000433 0.717835 0.999067 -0.158744
C14   C     C_3   0.749626 0.694541 0.068025 -0.329808
C15   C     C_3   0.724334 0.657869 0.008856 -0.912220
C16   C     C_3   0.217201 0.875394 0.226539 0.143356
C17   C     C_3   0.149367 0.844426 0.193507 -0.355551
C18   C     C_3   0.164004 0.828913 0.126094 -0.666777
C19   C     C_3   0.262913 0.327716 0.194336 0.174595
C20   C     C_3   0.318534 0.266506 0.206808 -0.361685
C21   C     C_3   0.294066 0.193360 0.179484 -0.664225
C22   C     C_3   0.791793 0.102263 0.233711 0.140912
C23   C     C_3   0.863078 0.131658 0.206059 -0.364441
C24   C     C_1   0.717840 0.000596 0.000100 -0.052704
C25   C     C_3   0.850684 0.165091 0.142378 -0.655312
C26   C     C_3   0.237224 0.012768 0.375388 0.152306
C27   C     C_3   0.223412 0.931520 0.389443 -0.465743
C28   C     C_3   0.225673 0.916304 0.458377 -0.847743
C29   C     C_3   0.735741 0.689065 0.277694 0.131162
C30   C     C_3   0.656207 0.693538 0.298554 -0.369724
C31   C     C_3   0.646917 0.665274 0.363923 -0.736293
C32   C     C_3   0.789528 0.886372 0.266150 0.173477
C33   C     C_3   0.866505 0.864027 0.287777 -0.376732
C34   C     C_3   0.870201 0.848977 0.356756 -0.701820
C35   C     C_1   0.499615 0.782158 0.499204 -0.195295
C36   C     C_3   0.221587 0.342903 0.371849 0.138135
C37   C     C_3   0.292754 0.321906 0.405200 -0.297345
C38   C     C_3   0.277908 0.273522 0.461126 -0.920868
C39   C     C_3   0.243662 0.828886 0.755086 0.093041
C40   C     C_3   0.182239 0.777728 0.733254 -0.302506
C41   C     C_3   0.160761 0.722855 0.783343 -0.938705
C42   C     C_3   0.721197 0.389736 0.734962 0.091480
C43   C     C_3   0.642651 0.363377 0.722695 -0.386742
C44   C     C_3   0.630523 0.344311 0.655394 -0.671972
C45   C     C_3   0.767996 0.162029 0.751276 0.104601
C46   C     C_1   0.782188 0.498878 0.503283 -0.073781
C47   C     C_3   0.841317 0.196754 0.733236 -0.324588
C48   C     C_3   0.871238 0.247518 0.783043 -0.908371
C49   C     C_3   0.294845 0.581877 0.725788 0.071443
C50   C     C_3   0.372417 0.595006 0.701877 -0.288145
C51   C     C_3   0.399184 0.672565 0.715738 -0.930858
C52   C     C_2   0.104078 0.370388 0.843956 0.984425
C53   C     C_2   0.647055 0.921596 0.850896 0.964504
C54   C     C_2   0.885255 0.621606 0.841421 0.999615
C55   C     C_2   0.352535 0.075636 0.847821 0.964917
C56   C     C_2   0.070004 0.347942 0.149205 0.967178
C57   C     C_1   0.500200 0.217852 0.499624 -0.198639
C58   C     C_2   0.632792 0.097938 0.148920 0.980868
C59   C     C_2   0.976083 0.664252 0.149983 0.913524
C60   C     C_2   0.364069 0.903842 0.146785 0.959154
C61   C     C_2   0.629910 0.894101 0.349875 0.954905
C62   C     C_2   0.164774 0.525591 0.347172 0.915369
C63   C     C_2   0.373986 0.113971 0.334643 0.940670
C64   C     C_2   0.842966 0.554344 0.356781 0.970690
C65   C     C_2   0.610250 0.124212 0.651734 0.964950
C66   C     C_2   0.146621 0.575233 0.648500 0.915648
C67   C     C_2   0.393434 0.873415 0.651924 0.968625
C68   C     C_1   0.217817 0.499478 0.498915 -0.084715
C69   C     C_2   0.859771 0.411349 0.648981 0.926162
C70   C     C_R   0.999682 0.500234 0.879475 0.944113
C71   C     C_R   0.500454 0.000232 0.879903 0.858345
C72   C     C_R   0.000887 0.495552 0.120247 0.955594
C73   C     C_R   0.358724 0.999898 0.000021 0.955288
C74   C     C_R   0.498500 0.999708 0.120138 0.855571
C75   C     C_R   0.499954 0.999139 0.379358 0.955128
C76   C     C_R   0.995879 0.500904 0.379555 0.910459
C77   C     C_R   0.500324 0.999890 0.620689 0.922946
C78   C     C_R   0.000370 0.499647 0.620308 0.860121
C79   C     C_R   0.121454 0.436604 0.805718 -0.174223
C80   C     C_R   0.637790 0.984844 0.808166 -0.207586
C81   C     C_R   0.874129 0.556135 0.801643 -0.195806
C82   C     C_R   0.363330 0.013070 0.805706 -0.206253
C83   C     C_R   0.094724 0.394493 0.200894 -0.190169
C84   C     C_R   0.000128 0.641313 0.998949 0.996876
C85   C     C_R   0.632710 0.036307 0.193558 -0.213736
C86   C     C_R   0.928516 0.611470 0.183694 -0.193038
C87   C     C_R   0.364930 0.959937 0.195213 -0.227633
C88   C     C_R   0.632421 0.954470 0.303568 -0.158521
C89   C     C_R   0.129907 0.464515 0.311888 -0.227255
C90   C     C_R   0.369542 0.041354 0.303274 -0.213563
C91   C     C_R   0.873936 0.568483 0.296526 -0.159817
C92   C     C_R   0.623572 0.066126 0.698455 -0.144012
C93   C     C_R   0.138499 0.519871 0.697951 -0.199674
C94   C     C_R   0.379250 0.930967 0.697954 -0.145976
C95   C     C_R   0.641282 0.000167 0.000310 0.949144
C96   C     C_R   0.863807 0.469580 0.695796 -0.218172
C97   C     C_R   0.192940 0.448936 0.783092 0.411079
C98   C     C_R   0.700522 0.016422 0.780957 0.325678
C99   C     C_R   0.804094 0.537988 0.777531 0.386933
C100  C     C_R   0.301475 0.978943 0.778680 0.325884
C101  C     C_R   0.156258 0.371130 0.236165 0.356173
C102  C     C_R   0.699610 0.018444 0.223050 0.331612
C103  C     C_R   0.857117 0.632001 0.198762 0.345850
C104  C     C_R   0.299424 0.970599 0.228776 0.363479
C105  C     C_R   0.699479 0.971360 0.274399 0.312461
C106  C     C_R   0.499855 0.858689 0.499602 0.970660
C107  C     C_R   0.174581 0.407223 0.290942 0.357562
C108  C     C_R   0.301136 0.012561 0.282867 0.384306
C109  C     C_R   0.828447 0.608456 0.255103 0.365898
C110  C     C_R   0.691530 0.064981 0.730595 0.318115
C111  C     C_R   0.201988 0.496591 0.731726 0.333768
C112  C     C_R   0.311738 0.929963 0.729644 0.319505
C113  C     C_R   0.799110 0.487871 0.728387 0.362844
C114  C     C_R   0.140792 0.999943 0.000269 0.910181
C115  C     C_R   0.000129 0.859189 0.000066 0.925997
C116  C     C_R   0.859205 0.000208 0.999781 0.913593
C117  C     C_R   0.858876 0.499714 0.503173 0.988037
C118  C     C_R   0.999512 0.140809 0.999700 0.929715
C119  C     C_R   0.640795 0.499570 0.500425 0.911199
C120  C     C_R   0.499977 0.359188 0.500159 0.924975
C121  C     C_R   0.359205 0.499772 0.499762 0.904457
C122  C     C_R   0.499902 0.640810 0.499770 0.924405
C123  C     C_R   0.067761 0.501116 0.720278 -0.059184
C124  C     C_R   0.564286 0.022996 0.721099 -0.043923
C125  C     C_R   0.932822 0.494826 0.718534 -0.055772
C126  C     C_R   0.437526 0.975997 0.720448 -0.042996
C127  C     C_R   0.060092 0.474143 0.283751 -0.039078
C128  C     C_R   0.500091 0.141324 0.499400 0.984194
C129  C     C_R   0.566400 0.985799 0.279635 -0.043423
C130  C     C_R   0.943057 0.540647 0.276886 -0.079318
C131  C     C_R   0.434206 0.010769 0.279267 -0.041522
C132  C     C_R   0.566001 0.009131 0.218568 -0.061214
C133  C     C_R   0.051798 0.454121 0.222369 -0.061108
C134  C     C_R   0.432490 0.988065 0.218733 -0.071189
C135  C     C_R   0.959537 0.551008 0.215115 -0.044519
C136  C     C_R   0.567895 0.000870 0.782274 -0.060034
C137  C     C_R   0.063196 0.478761 0.781043 -0.067507
C138  C     C_R   0.433507 0.999019 0.781011 -0.057362
C139  C     C_R   0.141245 0.499948 0.498995 0.946145
C140  C     C_R   0.935669 0.518645 0.778828 -0.056039
C141  C     C_R   0.000421 0.498724 0.686359 0.002509
C142  C     C_R   0.500826 0.999599 0.687447 -0.030147
C143  C     C_R   0.998310 0.504617 0.313120 -0.038525
C144  C     C_R   0.500334 0.998307 0.312628 -0.015137
C145  C     C_R   0.498809 0.999051 0.185966 -0.015829
C146  C     C_R   0.003590 0.498504 0.186432 -0.036097
C147  C     C_R   0.500642 0.000582 0.814136 -0.001582
C148  C     C_R   0.999396 0.499628 0.812956 -0.012718
C149  C     C_1   0.998834 0.217318 0.998810 -0.204601
C150  C     C_1   0.998860 0.282174 0.998258 -0.173510
C151  C     C_1   0.217289 0.999769 0.000748 -0.116560
C152  C     C_1   0.000392 0.782676 0.999665 -0.200956
C153  C     C_1   0.782704 0.000562 0.999625 -0.113729
C154  C     C_1   0.499687 0.717321 0.499272 -0.188693
C155  C     C_1   0.717292 0.498883 0.501894 -0.147315
C156  C     C_1   0.500128 0.282682 0.500187 -0.194754
C157  C     C_1   0.282705 0.499397 0.499313 -0.116173
C158  C     C_3   0.698881 0.530581 0.837523 0.146968
C159  C     C_3   0.741232 0.493146 0.890888 -0.402221
C160  C     C_3   0.688929 0.452850 0.933829 -0.972213
H1    H     H_    0.666435 0.490380 0.810829 0.146776
H2    H     H_    0.089082 0.992890 0.810779 0.220935
H3    H     H_    0.724584 0.204823 0.749739 0.117981
H4    H     H_    0.882268 0.152866 0.725302 0.237209
H5    H     H_    0.833757 0.228222 0.689834 0.239275
H6    H     H_    0.830367 0.290011 0.794582 0.240247
H7    H     H_    0.921929 0.275089 0.766650 0.316416
H8    H     H_    0.885008 0.215437 0.825100 0.265325
H9    H     H_    0.295272 0.588979 0.776281 0.093798
H10   H     H_    0.258601 0.624683 0.705851 0.168931
H11   H     H_    0.410693 0.554827 0.723419 0.199438
H12   H     H_    0.372719 0.586895 0.651462 0.267897
H13   H     H_    0.127166 0.077487 0.839558 0.263103
H14   H     H_    0.363389 0.713369 0.692192 0.277248
H15   H     H_    0.456121 0.679713 0.698900 0.287723
H16   H     H_    0.398880 0.682518 0.765903 0.255740
H17   H     H_    0.027082 0.296925 0.870354 0.334386
H18   H     H_    0.611092 0.821615 0.877625 0.341973
H19   H     H_    0.955047 0.700214 0.871296 0.334525
H20   H     H_    0.386072 0.176172 0.874480 0.345179
H21   H     H_    0.099411 0.273419 0.086047 0.342271
H22   H     H_    0.588106 0.194454 0.122801 0.333883
H23   H     H_    0.989828 0.769359 0.123076 0.337640
H24   H     H_    0.087761 0.142225 0.742753 0.283281
H25   H     H_    0.406727 0.809543 0.115509 0.334698
H26   H     H_    0.571643 0.810806 0.386669 0.333588
H27   H     H_    0.257830 0.569443 0.382464 0.338461
H28   H     H_    0.438062 0.195710 0.367372 0.331584
H29   H     H_    0.784833 0.601630 0.424487 0.327153
H30   H     H_    0.540888 0.201335 0.619176 0.327995
H31   H     H_    0.113886 0.672391 0.613033 0.342653
H32   H     H_    0.463916 0.797589 0.621044 0.334317
H33   H     H_    0.900909 0.316256 0.617946 0.338919
H34   H     H_    0.011397 0.099830 0.781632 0.266843
H35   H     H_    0.048719 0.057158 0.714529 0.263126
H36   H     H_    0.341126 0.476871 0.802173 0.127625
H37   H     H_    0.343715 0.410642 0.859953 0.158786
H38   H     H_    0.326103 0.540798 0.897238 0.186130
H39   H     H_    0.235315 0.541164 0.865797 0.207131
H40   H     H_    0.293651 0.429291 0.961905 0.228507
H41   H     H_    0.657578 0.567489 0.857974 0.171091
H42   H     H_    0.199894 0.437799 0.934414 0.294908
H43   H     H_    0.240834 0.510080 0.978196 0.213556
H44   H     H_    0.823269 0.987453 0.725178 0.173211
H45   H     H_    0.781851 0.907080 0.760821 0.145340
H46   H     H_    0.912686 0.995243 0.813480 0.221221
H47   H     H_    0.872853 0.913120 0.845910 0.261952
H48   H     H_    0.906935 0.843393 0.751777 0.284237
H49   H     H_    0.985934 0.884870 0.788413 0.269683
H50   H     H_    0.947617 0.925978 0.719784 0.262690
H51   H     H_    0.754457 0.595704 0.123430 0.141264
H52   H     H_    0.781031 0.452728 0.873150 0.207664
H53   H     H_    0.838477 0.618384 0.083100 0.175822
H54   H     H_    0.700958 0.715225 0.092796 0.218448
H55   H     H_    0.785523 0.742035 0.056400 0.254053
H56   H     H_    0.772700 0.639395 0.982729 0.295464
H57   H     H_    0.692989 0.697675 0.980165 0.276763
H58   H     H_    0.688426 0.610036 0.019126 0.248330
H59   H     H_    0.204493 0.876690 0.275873 0.103430
H60   H     H_    0.264184 0.837366 0.220094 0.122694
H61   H     H_    0.132819 0.792297 0.216372 0.190731
H62   H     H_    0.103001 0.883582 0.197067 0.224434
H63   H     H_    0.772182 0.534735 0.917521 0.254735
H64   H     H_    0.211513 0.791418 0.121552 0.249180
H65   H     H_    0.175041 0.880781 0.100920 0.295778
H66   H     H_    0.115203 0.802312 0.104980 0.221890
H67   H     H_    0.286978 0.379469 0.212799 0.118156
H68   H     H_    0.256059 0.335346 0.144023 0.165562
H69   H     H_    0.372165 0.282479 0.186703 0.173811
H70   H     H_    0.326576 0.259787 0.257088 0.252547
H71   H     H_    0.242673 0.173819 0.201330 0.300224
H72   H     H_    0.337385 0.151620 0.187754 0.223822
H73   H     H_    0.284873 0.199141 0.129262 0.239091
H74   H     H_    0.649299 0.491819 0.953896 0.262443
H75   H     H_    0.804120 0.084864 0.281752 0.144176
H76   H     H_    0.750689 0.147396 0.234582 0.128883
H77   H     H_    0.886308 0.174500 0.236684 0.184311
H78   H     H_    0.903713 0.086520 0.203147 0.224635
H79   H     H_    0.809278 0.209552 0.144182 0.241332
H80   H     H_    0.831649 0.122508 0.109733 0.292110
H81   H     H_    0.903029 0.188725 0.125404 0.246452
H82   H     H_    0.192995 0.045133 0.396910 0.167548
H83   H     H_    0.288954 0.029855 0.398539 0.149459
H84   H     H_    0.168528 0.915377 0.371230 0.234355
H85   H     H_    0.720793 0.426606 0.971682 0.273576
H86   H     H_    0.266484 0.897942 0.367575 0.217494
H87   H     H_    0.280486 0.930736 0.477753 0.276755
H88   H     H_    0.215254 0.857120 0.467123 0.274652
H89   H     H_    0.182849 0.948611 0.481814 0.249334
H90   H     H_    0.738655 0.721902 0.234933 0.147954
H91   H     H_    0.772587 0.714109 0.312754 0.162511
H92   H     H_    0.638305 0.751502 0.296003 0.194513
H93   H     H_    0.620325 0.661451 0.267028 0.236917
H94   H     H_    0.661708 0.606363 0.367072 0.290667
H95   H     H_    0.588763 0.671649 0.377117 0.248587
H96   H     H_    0.658323 0.409605 0.908522 0.262975
H97   H     H_    0.681675 0.697391 0.396211 0.249398
H98   H     H_    0.792305 0.898186 0.216002 0.136534
H99   H     H_    0.751142 0.839877 0.273573 0.089953
H100  H     H_    0.882967 0.813705 0.263063 0.194799
H101  H     H_    0.906153 0.908386 0.276118 0.217990
H102  H     H_    0.828982 0.807053 0.370238 0.260739
H103  H     H_    0.860008 0.900100 0.382572 0.289264
H104  H     H_    0.925708 0.828488 0.369401 0.221066
H105  H     H_    0.193627 0.291840 0.355989 0.166684
H106  H     H_    0.185480 0.372057 0.404504 0.137199
H107  H     H_    0.175518 0.999692 0.721895 0.172327
H108  H     H_    0.329124 0.292289 0.373315 0.241137
H109  H     H_    0.321860 0.372334 0.420203 0.237427
H110  H     H_    0.243598 0.303305 0.494495 0.262114
H111  H     H_    0.330757 0.258738 0.483766 0.270724
H112  H     H_    0.249274 0.222300 0.447208 0.284497
H113  H     H_    0.227031 0.852584 0.799624 0.187969
H114  H     H_    0.294621 0.796182 0.762337 0.123758
H115  H     H_    0.133135 0.810597 0.720208 0.242580
H116  H     H_    0.200802 0.747701 0.692153 0.236047
H117  H     H_    0.209351 0.691103 0.799135 0.235429
H118  H     H_    0.215023 0.083157 0.753527 0.143249
H119  H     H_    0.118747 0.684118 0.765348 0.308536
H120  H     H_    0.137253 0.752041 0.823045 0.273459
H121  H     H_    0.730851 0.388704 0.785389 0.068056
H122  H     H_    0.759525 0.349787 0.714655 0.160032
H123  H     H_    0.631668 0.313673 0.751037 0.175392
H124  H     H_    0.603143 0.406498 0.736145 0.219007
H125  H     H_    0.666351 0.297955 0.642363 0.254815
H126  H     H_    0.642920 0.392331 0.625721 0.305732
H127  H     H_    0.572375 0.327995 0.647969 0.234907
H128  H     H_    0.773281 0.141067 0.799181 0.179420
O1    O     O_R   0.939380 0.392670 0.000020 -0.613965
O2    O     O_R   0.892670 0.560620 0.500020 -0.632582
O3    O     O_R   0.560620 0.107330 0.500020 -0.591799
O4    O     O_R   0.107330 0.439380 0.500020 -0.658647
O5    O     O_R   0.439380 0.107330 0.499980 -0.625105
O6    O     O_R   0.892670 0.439380 0.499980 -0.586032
O7    O     O_R   0.560620 0.892670 0.499980 -0.602776
O8    O     O_R   0.107330 0.560620 0.499980 -0.586045
O9    O     O_R   0.939380 0.500000 0.908420 -0.649454
O10   O     O_R   0.500000 0.060620 0.908420 -0.602481
O11   O     O_R   0.060620 0.500000 0.908420 -0.649775
O12   O     O_R   0.392670 0.060620 0.000020 -0.625086
O13   O     O_R   0.500000 0.939380 0.908420 -0.602083
O14   O     O_R   0.939380 0.500000 0.091580 -0.643816
O15   O     O_R   0.500000 0.939380 0.091580 -0.601672
O16   O     O_R   0.060620 0.500000 0.091580 -0.607385
O17   O     O_R   0.500000 0.060620 0.091580 -0.604670
O18   O     O_R   0.439380 0.000000 0.408420 -0.652831
O19   O     O_R   1.000000 0.560620 0.408420 -0.583832
O20   O     O_R   0.560620 0.000000 0.408420 -0.624533
O21   O     O_R   1.000000 0.439380 0.408420 -0.627736
O22   O     O_R   0.439380 0.000000 0.591580 -0.629753
O23   O     O_R   0.060620 0.607330 0.000020 -0.602325
O24   O     O_R   0.000000 0.439380 0.591580 -0.599684
O25   O     O_R   0.560620 0.000000 0.591580 -0.623849
O26   O     O_R   0.000000 0.560620 0.591580 -0.596621
O27   O     O_R   0.107300 0.999970 0.948290 -0.615059
O28   O     O_R   0.999970 0.892700 0.948290 -0.625203
O29   O     O_R   0.892700 0.000030 0.948290 -0.615172
O30   O     O_R   0.000030 0.107300 0.948290 -0.624429
O31   O     O_R   0.107300 0.000030 0.051710 -0.608409
O32   O     O_R   0.999970 0.107300 0.051710 -0.618093
O33   O     O_R   0.892700 0.999970 0.051710 -0.612616
O34   O     O_R   0.607330 0.939380 0.000020 -0.624136
O35   O     O_R   0.000030 0.892700 0.051710 -0.626194
O36   O     O_R   0.607300 0.499970 0.448290 -0.620023
O37   O     O_R   0.499970 0.392700 0.448290 -0.613790
O38   O     O_R   0.392700 0.500030 0.448290 -0.609302
O39   O     O_R   0.500030 0.607300 0.448290 -0.631428
O40   O     O_R   0.607300 0.500030 0.551710 -0.607400
O41   O     O_R   0.499970 0.607300 0.551710 -0.617299
O42   O     O_R   0.392700 0.499970 0.551710 -0.608010
O43   O     O_R   0.500030 0.392700 0.551710 -0.630119
O44   O     O_3   0.742696 0.574754 0.798289 -0.584290
O45   O     O_R   0.939380 0.607330 0.999980 -0.644752
O46   O     O_3   0.232856 0.987391 0.804503 -0.615131
O47   O     O_3   0.250297 0.407191 0.807180 -0.567591
O48   O     O_3   0.769192 0.005608 0.807415 -0.613267
O49   O     O_3   0.817710 0.679408 0.161336 -0.630545
O50   O     O_3   0.232427 0.947165 0.205001 -0.561830
O51   O     O_3   0.194528 0.308563 0.220608 -0.581049
O52   O     O_3   0.765650 0.042371 0.198922 -0.588083
O53   O     O_3   0.234885 0.028200 0.311257 -0.589896
O54   O     O_3   0.754031 0.615175 0.267138 -0.605051
O55   O     O_3   0.765706 0.948000 0.299102 -0.585782
O56   O     O_R   0.392670 0.939380 0.999980 -0.613025
O57   O     O_3   0.238896 0.388523 0.321447 -0.602366
O58   O     O_3   0.255021 0.884370 0.710417 -0.612977
O59   O     O_3   0.731030 0.461230 0.710052 -0.573499
O60   O     O_3   0.750494 0.105777 0.709224 -0.609593
O61   O     O_3   0.271723 0.510266 0.709292 -0.593528
O62   O     O_2   0.152616 0.336081 0.870447 -0.582266
O63   O     O_R   0.031700 0.344523 0.846393 -0.843496
O64   O     O_2   0.699991 0.918306 0.885652 -0.615143
O65   O     O_R   0.598293 0.862283 0.847437 -0.773316
O66   O     O_2   0.834015 0.648523 0.868984 -0.609435
O67   O     O_R   0.060620 0.392670 0.999980 -0.616519
O68   O     O_R   0.954679 0.654561 0.845122 -0.832620
O69   O     O_2   0.299790 0.077069 0.881917 -0.611933
O70   O     O_R   0.399757 0.136202 0.844710 -0.775217
O71   O     O_2   0.004428 0.337582 0.140020 -0.670928
O72   O     O_R   0.121824 0.311773 0.113748 -0.780266
O73   O     O_2   0.680134 0.102212 0.109775 -0.628298
O74   O     O_R   0.581723 0.154440 0.154869 -0.783377
O75   O     O_2   0.040390 0.649802 0.140133 -0.642421
O76   O     O_R   0.949557 0.734267 0.135850 -0.775786
O77   O     O_2   0.316343 0.904586 0.107159 -0.642661
O78   O     O_R   0.607330 0.060620 0.999980 -0.610101
O79   O     O_R   0.414030 0.845882 0.149987 -0.786532
O80   O     O_2   0.682749 0.881542 0.383355 -0.595893
O81   O     O_R   0.566403 0.851170 0.354799 -0.842568
O82   O     O_2   0.131263 0.582379 0.356024 -0.618576
O83   O     O_R   0.238999 0.522058 0.363922 -0.764928
O84   O     O_2   0.318123 0.148173 0.345714 -0.648908
O85   O     O_R   0.442377 0.145854 0.347545 -0.814340
O86   O     O_2   0.830621 0.491493 0.373525 -0.648631
O87   O     O_R   0.820355 0.614521 0.390959 -0.807383
O88   O     O_2   0.658756 0.142866 0.616452 -0.582018
O89   O     O_R   0.439380 0.892670 0.500020 -0.607857
O90   O     O_R   0.542199 0.159350 0.649736 -0.829853
O91   O     O_2   0.196853 0.570723 0.612200 -0.622588
O92   O     O_R   0.101426 0.637010 0.647516 -0.795827
O93   O     O_2   0.344857 0.853755 0.616486 -0.585390
O94   O     O_R   0.462261 0.839821 0.650804 -0.827409
O95   O     O_2   0.808829 0.409765 0.612164 -0.622501
O96   O     O_R   0.910185 0.353763 0.651217 -0.793042
Zn1   Zn    Zn3+2 0.919060 0.500000 0.000000 0.944612
Zn2   Zn    Zn3+2 0.000000 0.000000 0.069040 0.979966
Zn3   Zn    Zn3+2 0.500000 0.500000 0.430960 0.988160
Zn4   Zn    Zn3+2 0.500000 0.500000 0.569040 0.975332
Zn5   Zn    Zn3+2 0.500000 0.080940 0.000000 0.993265
Zn6   Zn    Zn3+2 0.080940 0.500000 0.000000 0.978971
Zn7   Zn    Zn3+2 0.500000 0.919060 0.000000 0.988576
Zn8   Zn    Zn3+2 0.419060 0.000000 0.500000 0.977255
Zn9   Zn    Zn3+2 0.000000 0.580940 0.500000 1.035548
Zn10  Zn    Zn3+2 0.580940 0.000000 0.500000 1.068000
Zn11  Zn    Zn3+2 0.000000 0.419060 0.500000 0.994646
Zn12  Zn    Zn3+2 0.000000 1.000000 0.930960 0.932706

loop_
_geom_bond_atom_site_label_1
_geom_bond_atom_site_label_2
_ccdc_geom_bond_type
C101  C107  A    
O42   Zn4   S    
C117  O2    A    
C19   C20   S    
C35   C154  T    
C27   H84   S    
C57   C128  S    
C6    H36   S    
C46   C155  T    
C47   H5    S    
C40   H116  S    
C16   H59   S    
H27   O83   S    
C134  C145  A    
C112  O58   S    
C28   H89   S    
C65   O88   D    
C128  O3    A    
C130  C135  A    
C95   O78   A    
C67   C94   S    
O20   Zn10  S    
C50   H11   S    
C38   H111  S    
C104  O50   S    
O15   Zn7   S    
H31   O92   S    
C62   O83   S    
C160  H74   S    
C101  O51   S    
C122  O41   A    
C12   O49   S    
C45   C47   S    
H21   O72   S    
C71   O13   A    
C69   O95   D    
C78   C141  S    
C115  O35   A    
C66   O91   D    
C81   C99   A    
C3    O46   S    
C118  O32   A    
C46   C117  S    
C28   H87   S    
H26   O81   S    
C43   C44   S    
C37   C38   S    
C135  C146  A    
O22   Zn8   S    
C123  C141  A    
C26   C27   S    
C30   H93   S    
C1    O1    A    
C1    C150  S    
C127  C143  A    
C15   H58   S    
C55   O70   S    
C74   O17   A    
C43   H123  S    
C90   C131  A    
O19   Zn9   S    
C39   H114  S    
C79   C137  A    
C4    H13   S    
C158  C159  S    
C63   O85   S    
O35   Zn2   S    
C70   C148  S    
C56   C83   S    
C42   O59   S    
C89   C127  A    
O1    Zn1   S    
C75   O18   A    
C120  O43   A    
C20   H69   S    
C31   H94   S    
C79   C97   A    
C93   C123  A    
C4    C5    S    
C52   O62   D    
C6    C7    S    
C92   C124  A    
C45   H3    S    
C82   C138  A    
C41   H120  S    
O9    Zn1   S    
C75   O20   A    
C103  O49   S    
C32   H98   S    
O25   Zn10  S    
C51   H16   S    
C17   H61   S    
H30   O90   S    
C20   C21   S    
C56   O72   S    
C22   C23   S    
C114  O31   A    
C64   C91   S    
C53   O65   S    
C54   C81   S    
C5    H34   S    
C58   O74   S    
C9    O48   S    
C81   C140  A    
C71   C147  S    
C78   O26   A    
C74   C145  S    
H23   O76   S    
C19   H68   S    
C106  O7    A    
O14   Zn1   S    
C16   O50   S    
C7    C8    S    
C129  C144  A    
C44   H125  S    
C118  O30   A    
C13   C84   S    
H25   O79   S    
C45   H128  S    
C34   H103  S    
O10   Zn5   S    
C132  C145  A    
C36   C37   S    
C9    H44   S    
O3    Zn10  S    
C61   O81   S    
C139  O8    A    
C72   C146  S    
C121  O38   A    
C25   H79   S    
C119  O40   A    
C19   H67   S    
C125  C141  A    
C70   O11   A    
C52   C79   S    
C9    C10   S    
C5    H24   S    
C59   O76   S    
C120  O37   A    
C87   C134  A    
H20   O70   S    
C6    O47   S    
C37   H109  S    
C88   C129  A    
C116  O33   A    
O40   Zn4   S    
C125  C140  A    
C57   C156  T    
C53   C80   S    
C39   C40   S    
C23   H78   S    
C26   H83   S    
C21   H72   S    
C84   O45   A    
C87   C104  A    
C37   H108  S    
C36   O57   S    
C51   H14   S    
C29   C30   S    
C18   H65   S    
C72   O14   A    
C110  O60   S    
C1    O67   A    
C17   C18   S    
C115  O28   A    
C2    C73   S    
C64   O87   S    
C66   C93   S    
O26   Zn9   S    
C78   O24   A    
C67   O93   D    
C8    H40   S    
H29   O87   S    
H22   O74   S    
C3    C4    S    
C42   H121  S    
O12   Zn5   S    
C44   H127  S    
C100  O46   S    
C83   C101  A    
O56   Zn7   S    
C6    H37   S    
C25   H81   S    
C99   O44   S    
C123  C137  A    
C39   O58   S    
C31   H95   S    
C10   H46   S    
C90   C108  A    
O18   Zn8   S    
H17   O63   S    
C88   C105  A    
C54   O68   S    
C48   H7    S    
C94   C112  A    
O38   Zn3   S    
C70   O9    A    
C16   H60   S    
O41   Zn4   S    
C41   H117  S    
C10   C11   S    
C22   H75   S    
C86   C135  A    
C49   C50   S    
H19   O68   S    
C158  H41   S    
C14   C15   S    
O78   Zn5   S    
C50   H12   S    
C32   O55   S    
C38   H112  S    
C84   O23   A    
C85   C102  A    
C22   O52   S    
C98   C110  A    
C36   H105  S    
C108  O53   S    
C160  H85   S    
C131  C134  A    
O33   Zn2   S    
C98   O48   S    
C29   O54   S    
C29   H91   S    
O16   Zn6   S    
C72   O16   A    
C11   H50   S    
C30   C31   S    
C97   C111  A    
C66   O92   S    
C62   C89   S    
C33   H101  S    
C120  C156  S    
C14   H54   S    
C102  C105  A    
C28   H88   S    
O31   Zn2   S    
O17   Zn5   S    
C137  C148  A    
C158  H1    S    
C21   H73   S    
C16   C17   S    
C15   H57   S    
C18   H64   S    
C55   O69   D    
C129  C132  A    
C39   H113  S    
O7    Zn10  S    
C36   H106  S    
C114  C151  S    
C106  O89   A    
C139  O4    A    
C13   C152  T    
C121  O42   A    
C95   O34   A    
C128  O5    A    
C3    H107  S    
C124  C136  A    
C20   H70   S    
C12   H51   S    
C24   C95   S    
C54   O66   D    
C40   H115  S    
C126  C142  A    
C159  H52   S    
O67   Zn6   S    
O36   Zn3   S    
C41   H119  S    
C122  O39   A    
C159  C160  S    
C89   C107  A    
C50   C51   S    
O45   Zn1   S    
C51   H15   S    
C38   H110  S    
C116  C153  S    
C93   C111  A    
O32   Zn2   S    
C100  C112  A    
C77   O25   A    
C4    H2    S    
C96   C113  A    
C42   C43   S    
C63   O84   D    
C68   C157  T    
H33   O96   S    
C104  C108  A    
C64   O86   D    
C24   C153  T    
C2    C151  T    
C45   O60   S    
C60   O77   D    
O2    Zn9   S    
C80   C98   A    
O21   Zn11  S    
C8    H43   S    
C127  C133  A    
C69   O96   S    
C15   H56   S    
C99   C113  A    
C44   H126  S    
C80   C136  A    
C34   H104  S    
C117  O6    A    
C103  C109  A    
C32   C33   S    
C160  H96   S    
C7    H38   S    
C149  C150  T    
C97   O47   S    
C49   H9    S    
C91   C109  A    
C49   H10   S    
O27   Zn12  S    
C19   O51   S    
C30   H92   S    
H32   O94   S    
C59   C86   S    
C75   C144  S    
O39   Zn3   S    
C43   H124  S    
C76   C143  S    
C48   H6    S    
C68   C139  S    
C133  C146  A    
O30   Zn12  S    
C107  O57   S    
C59   O75   D    
C131  C144  A    
C65   C92   S    
C73   O56   A    
O11   Zn6   S    
C69   C96   S    
C92   C110  A    
C140  C148  A    
C91   C130  A    
C65   O90   S    
C85   C132  A    
C23   H77   S    
C21   H71   S    
C33   H100  S    
C77   C142  S    
C17   H62   S    
C18   H66   S    
C113  O59   S    
C56   O71   D    
C115  C152  S    
C96   C125  A    
O6    Zn11  S    
C105  O55   S    
C5    H35   S    
C76   O19   A    
C77   O22   A    
C60   O79   S    
C121  C157  S    
C73   O12   A    
C122  C154  S    
C124  C142  A    
C26   O53   S    
C86   C103  A    
C42   H122  S    
C60   C87   S    
C94   C126  A    
O13   Zn7   S    
C34   H102  S    
C74   O15   A    
C27   H86   S    
O24   Zn11  S    
C3    H118  S    
C25   H80   S    
C49   O61   S    
C61   O80   D    
C12   H53   S    
O34   Zn7   S    
C10   H47   S    
C61   C88   S    
C47   C48   S    
C48   H8    S    
C138  C147  A    
O37   Zn3   S    
O8    Zn9   S    
C33   C34   S    
O5    Zn8   S    
C31   H97   S    
C55   C82   S    
C130  C143  A    
C102  O52   S    
O28   Zn12  S    
C22   H76   S    
C40   C41   S    
C12   C14   S    
C118  C149  S    
C11   H48   S    
C47   H4    S    
C58   C85   S    
O43   Zn4   S    
C52   O63   S    
C109  O54   S    
C126  C138  A    
C119  C155  S    
C82   C100  A    
C32   H99   S    
C114  O27   A    
C116  O29   A    
C26   H82   S    
O29   Zn12  S    
C62   O82   D    
O23   Zn6   S    
C158  O44   S    
C29   H90   S    
C58   O73   D    
C8    H42   S    
C71   O10   A    
H28   O85   S    
C35   C106  S    
C9    H45   S    
C11   H49   S    
C53   O64   D    
C159  H63   S    
C63   C90   S    
C14   H55   S    
C23   C25   S    
O89   Zn8   S    
C7    H39   S    
O4    Zn11  S    
C83   C133  A    
C136  C147  A    
C76   O21   A    
C119  O36   A    
C111  O61   S    
C67   O94   S    
C27   C28   S    
H18   O65   S    
