data_mof_unit_68330.cif
_audit_creation_date              2012-12-11T14:19:35-0500
_audit_creation_method            fapswitch 2.2
_symmetry_space_group_name_H-M    P1
_symmetry_Int_Tables_number       1
_space_group_crystal_system       triclinic
_cell_length_a                    8.325498
_cell_length_b                    12.706589
_cell_length_c                    15.15003
_cell_angle_alpha                 93.676945
_cell_angle_beta                  99.788672
_cell_angle_gamma                 98.456163
_cell_volume                      1555.65386988

loop_
_atom_site_label
_atom_site_type_symbol
_atom_type_description
_atom_site_fract_x
_atom_site_fract_y
_atom_site_fract_z
_atom_type_partial_charge
Ba1   Ba    Ba6+2 0.153570 0.551840 0.456200 1.659975
Ba2   Ba    Ba6+2 0.656590 0.448150 0.543720 1.673026
C1    C     C_3   0.393604 0.854598 0.128496 0.190498
C2    C     C_R   0.709358 0.825134 0.506775 -0.316115
C3    C     C_R   0.679839 0.000888 0.462231 -0.057741
C4    C     C_3   0.018059 0.799311 0.180335 0.340457
C5    C     C_R   0.607405 0.895508 0.470863 0.028389
C6    C     C_R   0.880623 0.855657 0.531012 0.063955
C7    C     C_R   0.949477 0.966661 0.534655 -0.053228
C8    C     C_R   0.847795 0.040726 0.497169 -0.117906
C9    C     C_R   0.917932 0.151471 0.495566 0.022302
C10   C     C_R   0.180299 0.114350 0.577049 -0.001835
C11   C     C_R   0.115881 0.005678 0.573647 -0.168245
C12   C     C_3   0.424635 0.807154 0.219554 0.487631
C13   C     C_R   0.233705 0.449634 0.768455 -0.268030
C14   C     C_R   0.140939 0.399610 0.826940 -0.042209
C15   C     C_R   0.215539 0.396601 0.918545 0.329321
C16   C     C_3   0.992546 0.909960 0.150483 -0.010163
C17   C     C_R   0.373589 0.460292 0.953104 0.070206
C18   C     C_R   0.458520 0.513863 0.891099 -0.122712
C19   C     C_R   0.392130 0.504664 0.799288 0.049995
C20   C     C_R   0.621475 0.510319 0.083104 -0.139419
C21   C     C_R   0.688973 0.528175 0.175502 0.076615
C22   C     C_R   0.421797 0.468873 0.211347 0.003519
C23   C     C_3   0.569455 0.778922 0.685863 0.268570
C24   C     C_R   0.350660 0.458628 0.119963 -0.068290
C25   C     C_R   0.449245 0.475163 0.052817 0.036263
C26   C     C_R   0.589229 0.505730 0.238688 -0.266624
C27   C     C_3   0.643891 0.244070 0.259708 0.502499
C28   C     C_3   0.528231 0.138817 0.226100 -0.372128
C29   C     C_3   0.078967 0.680276 0.729514 0.302682
C30   C     C_3   0.093978 0.712597 0.829503 0.377854
C31   C     C_3   0.226609 0.233345 0.361446 0.264700
C32   C     C_3   0.249135 0.117213 0.363295 -0.412559
C33   C     C_3   0.952695 0.809535 0.928697 -0.229024
C34   C     C_3   0.563107 0.895921 0.709943 -0.333834
C35   C     C_3   0.698651 0.787502 0.307515 -0.098220
C36   C     C_3   0.880265 0.012091 0.258962 -0.242662
C37   C     C_3   0.812669 0.266124 0.138361 -0.157143
C38   C     C_3   0.917618 0.148416 0.747984 0.352788
C39   C     C_3   0.985817 0.067749 0.808017 -0.425698
C40   C     C_3   0.432598 0.211253 0.794208 0.372173
C41   C     C_3   0.477598 0.178763 0.889114 -0.370903
C42   C     C_R   0.080254 0.186438 0.541641 0.117404
H1    H     H_    0.330304 0.735897 0.220364 0.044217
H2    H     H_    0.228814 0.077003 0.294847 0.136664
H3    H     H_    0.163488 0.074354 0.401682 0.077106
H4    H     H_    0.374535 0.111863 0.397361 0.139282
H5    H     H_    0.506120 0.908577 0.119882 0.066275
H6    H     H_    0.697746 0.770012 0.679256 0.026306
H7    H     H_    0.483275 0.753755 0.621052 0.053618
H8    H     H_    0.640444 0.923093 0.776817 0.125595
H9    H     H_    0.609168 0.945121 0.658912 0.086245
H10   H     H_    0.433930 0.906786 0.712319 0.127023
H11   H     H_    0.296361 0.904762 0.124285 -0.009440
H12   H     H_    0.512586 0.090036 0.282333 0.113913
H13   H     H_    0.820197 0.105417 0.693066 0.074409
H14   H     H_    0.019502 0.187135 0.716539 -0.075105
H15   H     H_    0.028523 0.005526 0.766932 0.101145
H16   H     H_    0.091520 0.108639 0.859411 0.115799
H17   H     H_    0.889444 0.029095 0.843052 0.127971
H18   H     H_    0.298814 0.216161 0.780831 -0.082675
H19   H     H_    0.505170 0.291027 0.790563 0.073524
H20   H     H_    0.447739 0.237940 0.938429 0.080963
H21   H     H_    0.611743 0.175162 0.905327 0.145728
H22   H     H_    0.099733 0.766709 0.139645 0.042433
H23   H     H_    0.406234 0.154115 0.192005 0.110007
H24   H     H_    0.406983 0.099036 0.894927 0.105689
H25   H     H_    0.605436 0.048722 0.423138 0.092102
H26   H     H_    0.196664 0.953245 0.603051 0.107342
H27   H     H_    0.656548 0.742001 0.506682 0.059677
H28   H     H_    0.704880 0.526595 0.036598 0.081844
H29   H     H_    0.218343 0.438081 0.103664 0.161793
H30   H     H_    0.574243 0.566868 0.913101 0.077182
H31   H     H_    0.642616 0.516982 0.309609 0.076760
H32   H     H_    0.074747 0.808136 0.252878 0.036309
H33   H     H_    0.177944 0.453356 0.699335 0.057316
H34   H     H_    0.578701 0.091881 0.176358 0.091413
H35   H     H_    0.103585 0.969561 0.177479 0.037630
H36   H     H_    0.980089 0.909308 0.077402 0.042515
H37   H     H_    0.580568 0.296236 0.298613 0.032274
H38   H     H_    0.023718 0.580859 0.881418 0.309163
H39   H     H_    0.839121 0.691078 0.829816 0.214221
H40   H     H_    0.834552 0.839974 0.929871 0.115836
H41   H     H_    0.054218 0.878828 0.937353 0.093828
H42   H     H_    0.974163 0.757228 0.984004 0.159784
H43   H     H_    0.348320 0.808003 0.001813 0.311765
H44   H     H_    0.580755 0.705320 0.184039 0.204212
H45   H     H_    0.194026 0.655001 0.715759 -0.014130
H46   H     H_    0.825234 0.791663 0.298771 0.136462
H47   H     H_    0.666877 0.722595 0.349874 0.045157
H48   H     H_    0.708526 0.868342 0.336425 0.068397
H49   H     H_    0.776279 0.974731 0.125093 0.193307
H50   H     H_    0.762972 0.022692 0.279881 0.132204
H51   H     H_    0.947106 0.091041 0.248657 0.132918
H52   H     H_    0.952336 0.974617 0.313043 0.098953
H53   H     H_    0.085385 0.330306 0.583593 0.312599
H54   H     H_    0.040149 0.285913 0.939777 0.313927
H55   H     H_    0.578308 0.304057 0.135962 0.159740
H56   H     H_    0.973929 0.614077 0.707873 0.051434
H57   H     H_    0.831693 0.318512 0.083864 0.104555
H58   H     H_    0.779214 0.182192 0.108135 0.075625
H59   H     H_    0.930938 0.275890 0.186757 0.163692
H60   H     H_    0.199283 0.779608 0.848244 0.094720
H61   H     H_    0.097232 0.240115 0.363187 0.061307
H62   H     H_    0.307020 0.275517 0.423060 0.137889
N1    N     N_2   0.942358 0.748828 0.844419 -0.430215
N2    N     N_2   0.584420 0.773889 0.224242 -0.418182
N3    N     N_2   0.847637 0.943752 0.176389 -0.388202
N4    N     N_2   0.682144 0.297253 0.181784 -0.451634
O1    O     O_2   0.168170 0.764170 0.543850 -0.468405
O2    O     O_2   0.804526 0.418917 0.821680 -0.503618
O3    O     O_3   0.846398 0.219528 0.798957 -0.590810
O4    O     O_3   0.898670 0.629780 0.545890 -0.489936
O5    O     O_3   0.409490 0.443300 0.392340 -0.482067
O6    O     O_2   0.674250 0.555830 0.719690 -0.488606
O7    O     O_3   0.522598 0.720367 0.754951 -0.641027
O8    O     O_2   0.513146 0.117538 0.567293 -0.501372
O9    O     O_3   0.470447 0.135132 0.732905 -0.595047
O10   O     O_3   0.365980 0.695510 0.380810 -0.485369
O11   O     O_2   0.257633 0.878633 0.422622 -0.493363
O12   O     O_3   0.265096 0.272096 0.281731 -0.660501
O13   O     O_3   0.055007 0.772446 0.687150 -0.663755
O14   O     O_3   0.418874 0.886745 0.288914 -0.670254
O15   O     O_2   0.136040 0.444100 0.280280 -0.451819
O16   O     O_3   0.934510 0.640480 0.335500 -0.498578
O17   O     O_2   0.034367 0.570274 0.179316 -0.496588
O18   O     O_3   0.128911 0.629041 0.882080 -0.751896
O19   O     O_3   0.352964 0.772438 0.058375 -0.725492
O20   O     O_3   0.148388 0.291832 0.546730 -0.736000
O21   O     O_3   0.141653 0.330123 0.973791 -0.783120
O22   O     O_3   0.869077 0.728555 0.162444 -0.616992
O23   O     O_2   0.642110 0.235770 0.456130 -0.506484
O24   O     O_3   0.911620 0.370210 0.454030 -0.443820
O25   O     O_3   0.444310 0.304480 0.619110 -0.418062
O26   O     O_3   0.790366 0.223459 0.311811 -0.661836
O27   O     O_3   0.400800 0.556680 0.607590 -0.463930
O28   O     O_3   0.875770 0.359510 0.664420 -0.489334
P1    P     P_3+3 0.998660 0.747790 0.570900 0.974550
P2    P     P_3+3 0.306970 0.411860 0.294270 0.985388
P3    P     P_3+3 0.890083 0.611080 0.215965 0.957213
P4    P     P_3+3 0.811620 0.252200 0.429030 0.974234
P5    P     P_3+3 0.918236 0.351306 0.780357 0.945231
P6    P     P_3+3 0.408903 0.836568 0.395001 0.929481
P7    P     P_3+3 0.496397 0.583685 0.721382 0.953294
P8    P     P_3+3 0.400329 0.166239 0.623596 0.992372

loop_
_geom_bond_atom_site_label_1
_geom_bond_atom_site_label_2
_ccdc_geom_bond_type
C6    C7    A    
C15   O21   S    
C33   H41   S    
C17   C18   A    
O10   P6    S    
C16   N3    S    
C39   H17   S    
C2    C6    A    
C26   H31   S    
C1    H5    S    
O1    P1    D    
C22   P2    S    
O9    P8    S    
O23   P4    D    
Ba2   O24   S    
C35   H46   S    
C6    P1    S    
O2    P5    D    
O27   P7    S    
Ba1   O15   S    
H53   O20   S    
O28   P5    S    
O6    P7    D    
H44   N2    S    
C33   H42   S    
C40   O9    S    
C11   H26   S    
C42   O20   S    
C13   C14   A    
O13   P1    S    
C24   H29   S    
O7    P7    S    
Ba1   Ba2   S    
O17   P3    D    
C10   P8    S    
C7    C11   A    
C23   H6    S    
C3    H25   S    
C34   H9    S    
C1    H11   S    
C37   N4    S    
C29   C30   S    
C16   H35   S    
C29   H45   S    
C30   N1    S    
C36   H51   S    
O26   P4    S    
C30   H60   S    
C32   H2    S    
C17   C25   S    
C7    C8    A    
C40   H18   S    
C28   H23   S    
Ba1   P1    S    
C12   N2    S    
C34   H10   S    
O11   P6    D    
O4    P1    S    
Ba2   O6    S    
C2    C5    A    
C20   H28   S    
C5    P6    S    
C41   H20   S    
C37   H57   S    
C12   H1    S    
O15   P2    D    
C4    C16   S    
Ba2   O23   S    
C12   O14   S    
C35   H47   S    
Ba2   O28   S    
C27   N4    S    
O8    P8    D    
C14   P5    S    
C31   H61   S    
Ba1   O16   S    
C39   H15   S    
C35   N2    S    
C4    O22   S    
C3    C5    A    
C14   C15   A    
C21   C26   A    
H55   N4    S    
C28   H12   S    
O3    P5    S    
Ba1   O10   S    
C19   P7    S    
H54   O21   S    
C23   H7    S    
C27   H37   S    
C27   C28   S    
O24   P4    S    
Ba2   O5    S    
C38   O3    S    
C13   C19   A    
C41   H21   S    
O25   P8    S    
C36   H50   S    
C31   C32   S    
C24   C25   A    
C18   H30   S    
C9    C42   A    
C29   H56   S    
C18   C19   A    
C36   N3    S    
C37   H59   S    
Ba1   P2    S    
H38   O18   S    
C1    C12   S    
C38   C39   S    
C20   C25   A    
C31   O12   S    
Ba2   P4    S    
C32   H4    S    
Ba1   O4    S    
Ba1   O24   S    
Ba1   O27   S    
C37   H58   S    
O22   P3    S    
C38   H13   S    
C35   H48   S    
C1    O19   S    
Ba2   O27   S    
O14   P6    S    
C31   H62   S    
C22   C26   A    
C39   H16   S    
C22   C24   A    
C23   O7    S    
C33   H40   S    
C4    H32   S    
C34   H8    S    
C41   H24   S    
O16   P3    S    
Ba2   O25   S    
C38   H14   S    
C30   O18   S    
C29   O13   S    
C3    C8    A    
C10   C42   A    
Ba1   O1    S    
Ba2   O4    S    
H43   O19   S    
C13   H33   S    
C15   C17   A    
H39   N1    S    
C9    P4    S    
C33   N1    S    
C8    C9    A    
C23   C34   S    
O12   P2    S    
C28   H34   S    
C4    H22   S    
C27   O26   S    
C10   C11   A    
C16   H36   S    
C40   C41   S    
C36   H52   S    
C20   C21   A    
C21   P3    S    
C32   H3    S    
Ba1   O5    S    
O5    P2    S    
C40   H19   S    
C2    H27   S    
H49   N3    S    
