data_mof_unit_62845.cif
_audit_creation_date              2012-12-10T19:48:53-0500
_audit_creation_method            fapswitch 2.2
_symmetry_space_group_name_H-M    P1
_symmetry_Int_Tables_number       1
_space_group_crystal_system       triclinic
_cell_length_a                    26.053681
_cell_length_b                    26.053077
_cell_length_c                    22.22308
_cell_angle_alpha                 89.999984
_cell_angle_beta                  54.106164
_cell_angle_gamma                 90.0
_cell_volume                      12220.0652833

loop_
_atom_site_label
_atom_site_type_symbol
_atom_type_description
_atom_site_fract_x
_atom_site_fract_y
_atom_site_fract_z
_atom_type_partial_charge
C1    C     C_R   0.849470 0.750034 0.301057 0.511154
C2    C     C_R   0.445488 0.250761 0.500162 0.028837
C3    C     C_R   0.304320 0.974099 0.456574 0.020617
C4    C     C_R   0.749178 0.554455 0.500500 0.030496
C5    C     C_R   0.749178 0.445544 0.500501 0.030496
C6    C     C_R   0.249178 0.054455 0.500500 0.030496
C7    C     C_R   0.249178 0.945544 0.500500 0.030496
C8    C     C_R   0.691802 0.526994 0.546065 -0.158856
C9    C     C_R   0.691802 0.473006 0.546065 -0.158857
C10   C     C_R   0.191802 0.026994 0.546064 -0.158856
C11   C     C_R   0.191802 0.973006 0.546064 -0.158856
C12   C     C_3   0.874368 0.470428 0.401567 -0.266263
C13   C     C_R   0.945487 0.249241 0.500165 0.028839
C14   C     C_3   0.874369 0.529571 0.401567 -0.266262
C15   C     C_3   0.374369 0.970428 0.401568 -0.266263
C16   C     C_3   0.374369 0.029571 0.401568 -0.266263
C17   C     C_R   0.750018 0.890012 0.500065 0.507849
C18   C     C_R   0.750018 0.109988 0.500065 0.507851
C19   C     C_R   0.250018 0.390012 0.500065 0.507849
C20   C     C_R   0.250018 0.609988 0.500065 0.507850
C21   C     C_R   0.890008 0.750061 0.500019 0.510651
C22   C     C_R   0.890008 0.249939 0.500020 0.510654
C23   C     C_R   0.390008 0.250061 0.500019 0.510653
C24   C     C_R   0.945488 0.750760 0.500163 0.028836
C25   C     C_R   0.390008 0.749939 0.500020 0.510652
C26   C     C_R   0.610019 0.749969 0.500025 0.514490
C27   C     C_R   0.610019 0.250031 0.500025 0.514481
C28   C     C_R   0.110019 0.249969 0.500025 0.514489
C29   C     C_R   0.110019 0.750031 0.500025 0.514483
C30   C     C_R   0.547904 0.782375 0.456084 0.058377
C31   C     C_R   0.547903 0.217624 0.456085 0.058362
C32   C     C_R   0.047903 0.282375 0.456084 0.058377
C33   C     C_R   0.047904 0.717625 0.456083 0.058361
C34   C     C_R   0.554437 0.749207 0.500088 0.031092
C35   C     C_R   0.495924 0.782498 0.456309 0.016327
C36   C     C_R   0.554438 0.250794 0.500086 0.031082
C37   C     C_R   0.054437 0.249207 0.500089 0.031093
C38   C     C_R   0.054438 0.750794 0.500087 0.031084
C39   C     C_R   0.504380 0.714395 0.545277 -0.159514
C40   C     C_R   0.504382 0.285608 0.545271 -0.159513
C41   C     C_R   0.004379 0.214396 0.545279 -0.159514
C42   C     C_R   0.004381 0.785607 0.545274 -0.159512
C43   C     C_2   0.638688 0.810759 0.329203 0.249819
C44   C     C_2   0.638686 0.189229 0.329211 0.249815
C45   C     C_2   0.138689 0.310754 0.329201 0.249815
C46   C     C_R   0.495924 0.217502 0.456310 0.016331
C47   C     C_2   0.138688 0.689235 0.329207 0.249816
C48   C     C_R   0.995924 0.282498 0.456309 0.016327
C49   C     C_R   0.995924 0.717503 0.456309 0.016328
C50   C     C_3   0.518983 0.825681 0.402251 -0.242743
C51   C     C_3   0.518979 0.174313 0.402259 -0.242730
C52   C     C_3   0.018985 0.325679 0.402248 -0.242745
C53   C     C_R   0.849470 0.249966 0.301057 0.511153
C54   C     C_3   0.018982 0.674316 0.402255 -0.242726
C55   C     C_3   0.578330 0.825824 0.402223 -0.104406
C56   C     C_3   0.578325 0.174171 0.402233 -0.104406
C57   C     C_3   0.078331 0.325821 0.402220 -0.104405
C58   C     C_3   0.078327 0.674174 0.402228 -0.104405
C59   C     C_3   0.467834 0.734971 0.956930 -0.214291
C60   C     C_3   0.466618 0.259676 0.956931 -0.214374
C61   C     C_3   0.967299 0.237037 0.956930 -0.214322
C62   C     C_3   0.967987 0.765563 0.956930 -0.214283
C63   C     C_3   0.535361 0.803984 0.956941 -0.213817
C64   C     C_R   0.349470 0.250034 0.301057 0.511154
C65   C     C_3   0.540605 0.197640 0.956942 -0.213737
C66   C     C_3   0.037417 0.303415 0.956941 -0.213785
C67   C     C_3   0.034821 0.695880 0.956941 -0.213825
C68   C     C_3   0.492268 0.803981 0.043104 -0.214134
C69   C     C_3   0.497514 0.197645 0.043105 -0.214161
C70   C     C_3   0.994324 0.303412 0.043104 -0.214147
C71   C     C_3   0.991728 0.695883 0.043104 -0.214129
C72   C     C_1   0.389173 0.749974 0.221618 0.000907
C73   C     C_1   0.389174 0.250026 0.221618 0.000910
C74   C     C_1   0.889173 0.249974 0.221618 0.000908
C75   C     C_R   0.349470 0.749966 0.301057 0.511153
C76   C     C_1   0.889173 0.750026 0.221618 0.000909
C77   C     C_3   0.536571 0.749984 0.926841 0.066009
C78   C     C_3   0.536571 0.250016 0.926841 0.065999
C79   C     C_3   0.036571 0.249985 0.926841 0.066004
C80   C     C_3   0.036571 0.750015 0.926841 0.066011
C81   C     C_R   0.650566 0.749995 0.698951 0.503061
C82   C     C_R   0.650566 0.250005 0.698951 0.503061
C83   C     C_R   0.150566 0.249995 0.698951 0.503061
C84   C     C_R   0.150566 0.750005 0.698951 0.503062
C85   C     C_3   0.424740 0.734968 0.043096 -0.211847
C86   C     C_R   0.450391 0.714399 0.545295 -0.157617
C87   C     C_3   0.423523 0.259678 0.043097 -0.211572
C88   C     C_3   0.924205 0.237033 0.043096 -0.211731
C89   C     C_3   0.924892 0.765567 0.043096 -0.211879
C90   C     C_3   0.463377 0.749979 0.073190 0.064021
C91   C     C_3   0.463378 0.250022 0.073190 0.063960
C92   C     C_3   0.963377 0.249978 0.073190 0.063995
C93   C     C_3   0.963377 0.750021 0.073190 0.064028
C94   C     C_3   0.518270 0.710990 0.043098 -0.214089
C95   C     C_3   0.514240 0.292743 0.043097 -0.214215
C96   C     C_3   0.016749 0.209494 0.043098 -0.214140
C97   C     C_R   0.450393 0.285604 0.545290 -0.157616
C98   C     C_3   0.018657 0.788610 0.043098 -0.214077
C99   C     C_3   0.561362 0.710993 0.956936 -0.213829
C100  C     C_3   0.557335 0.292738 0.956934 -0.213848
C101  C     C_3   0.059841 0.209497 0.956935 -0.213837
C102  C     C_3   0.061750 0.788606 0.956936 -0.213826
C103  C     C_1   0.422579 0.749977 0.154784 -0.070830
C104  C     C_1   0.422579 0.250025 0.154784 -0.070841
C105  C     C_1   0.922579 0.249976 0.154784 -0.070835
C106  C     C_1   0.922579 0.750023 0.154784 -0.070827
C107  C     C_1   0.577389 0.749989 0.845240 -0.075144
C108  C     C_R   0.950390 0.214400 0.545298 -0.157616
C109  C     C_1   0.577390 0.250011 0.845240 -0.075138
C110  C     C_1   0.077389 0.249989 0.845240 -0.075141
C111  C     C_1   0.077389 0.750011 0.845240 -0.075144
C112  C     C_1   0.610828 0.749993 0.778400 -0.006341
C113  C     C_1   0.610828 0.250007 0.778400 -0.006341
C114  C     C_1   0.110828 0.249993 0.778400 -0.006341
C115  C     C_1   0.110828 0.750007 0.778400 -0.006341
C116  C     C_R   0.739013 0.974102 0.456679 0.021743
C117  C     C_R   0.739013 0.025898 0.456679 0.021742
C118  C     C_R   0.239015 0.474103 0.456678 0.021740
C119  C     C_R   0.950392 0.785603 0.545293 -0.157617
C120  C     C_R   0.239015 0.525897 0.456678 0.021741
C121  C     C_R   0.750344 0.945559 0.500506 0.030155
C122  C     C_R   0.750344 0.054441 0.500506 0.030156
C123  C     C_R   0.250343 0.445559 0.500507 0.030155
C124  C     C_R   0.250343 0.554441 0.500507 0.030155
C125  C     C_R   0.762267 0.973010 0.545968 -0.159647
C126  C     C_R   0.762267 0.026990 0.545968 -0.159647
C127  C     C_R   0.262263 0.473010 0.545971 -0.159647
C128  C     C_R   0.262263 0.526990 0.545971 -0.159647
C129  C     C_R   0.749952 0.610020 0.500059 0.509572
C130  C     C_R   0.445487 0.749240 0.500164 0.028837
C131  C     C_R   0.749952 0.389979 0.500059 0.509571
C132  C     C_R   0.249952 0.110020 0.500059 0.509572
C133  C     C_R   0.249952 0.889979 0.500059 0.509571
C134  C     C_3   0.723821 0.029572 0.401813 -0.268325
C135  C     C_3   0.723821 0.970428 0.401813 -0.268323
C136  C     C_3   0.223827 0.529572 0.401808 -0.268324
C137  C     C_3   0.223827 0.470428 0.401807 -0.268321
C138  C     C_R   0.804320 0.525901 0.456574 0.020617
C139  C     C_R   0.804320 0.474099 0.456574 0.020617
C140  C     C_R   0.304320 0.025901 0.456574 0.020618
H1    H     H_    0.517525 0.832780 0.936305 0.115812
H2    H     H_    0.526694 0.189799 0.063744 0.118446
H3    H     H_    0.022956 0.313624 0.063746 0.118172
H4    H     H_    0.019823 0.683803 0.063745 0.117960
H5    H     H_    0.562545 0.671771 0.936297 0.115445
H6    H     H_    0.554705 0.330870 0.936293 0.115543
H7    H     H_    0.059529 0.170653 0.936296 0.115479
H8    H     H_    0.063324 0.827918 0.936297 0.115438
H9    H     H_    0.610695 0.720982 0.936306 0.116872
H10   H     H_    0.607460 0.286634 0.936307 0.116684
H11   H     H_    0.109527 0.217985 0.936306 0.116798
H12   H     H_    0.525736 0.166214 0.936309 0.115840
H13   H     H_    0.110981 0.778229 0.936306 0.116890
H14   H     H_    0.498811 0.671766 0.063729 0.115655
H15   H     H_    0.490966 0.330877 0.063726 0.115489
H16   H     H_    0.995796 0.170648 0.063729 0.115580
H17   H     H_    0.999591 0.827923 0.063729 0.115677
H18   H     H_    0.467299 0.696190 0.936291 0.117231
H19   H     H_    0.462321 0.297202 0.936292 0.117394
H20   H     H_    0.965287 0.198699 0.936290 0.117296
H21   H     H_    0.967839 0.804451 0.936291 0.117212
H22   H     H_    0.403562 0.696185 0.063730 0.118481
H23   H     H_    0.020704 0.333268 0.936306 0.115819
H24   H     H_    0.398581 0.297204 0.063732 0.119491
H25   H     H_    0.901552 0.198693 0.063730 0.118865
H26   H     H_    0.904103 0.804457 0.063730 0.118382
H27   H     H_    0.546962 0.720977 0.063738 0.120291
H28   H     H_    0.543725 0.286645 0.063739 0.120012
H29   H     H_    0.045795 0.217980 0.063737 0.120191
H30   H     H_    0.047248 0.778234 0.063738 0.120315
H31   H     H_    0.647069 0.546940 0.581607 0.143628
H32   H     H_    0.647069 0.453060 0.581607 0.143629
H33   H     H_    0.147069 0.046940 0.581606 0.143628
H34   H     H_    0.016699 0.667366 0.936305 0.115811
H35   H     H_    0.147069 0.953060 0.581605 0.143627
H36   H     H_    0.489209 0.860597 0.427883 0.110222
H37   H     H_    0.489201 0.139400 0.427898 0.110216
H38   H     H_    0.989211 0.360596 0.427877 0.110224
H39   H     H_    0.989205 0.639402 0.427890 0.110220
H40   H     H_    0.582868 0.860886 0.427314 0.078026
H41   H     H_    0.582859 0.139110 0.427331 0.078024
H42   H     H_    0.082871 0.360885 0.427308 0.078029
H43   H     H_    0.082863 0.639112 0.427323 0.078026
H44   H     H_    0.448757 0.762499 0.936295 0.117069
H45   H     H_    0.453790 0.832775 0.063739 0.117777
H46   H     H_    0.450391 0.229391 0.936295 0.116845
H47   H     H_    0.949296 0.265670 0.936296 0.116987
H48   H     H_    0.948636 0.738330 0.936295 0.117092
H49   H     H_    0.506631 0.687335 0.580658 0.143877
H50   H     H_    0.506634 0.312670 0.580650 0.143878
H51   H     H_    0.006629 0.187337 0.580661 0.143876
H52   H     H_    0.006632 0.812667 0.580654 0.143876
H53   H     H_    0.771548 0.953064 0.581424 0.143667
H54   H     H_    0.771548 0.046935 0.581424 0.143666
H55   H     H_    0.271543 0.453064 0.581429 0.143667
H56   H     H_    0.462007 0.166219 0.063742 0.117310
H57   H     H_    0.271543 0.546935 0.581429 0.143668
H58   H     H_    0.412774 0.687317 0.580651 0.143910
H59   H     H_    0.412778 0.312688 0.580644 0.143909
H60   H     H_    0.912772 0.187319 0.580654 0.143907
H61   H     H_    0.912776 0.812685 0.580648 0.143909
H62   H     H_    0.676311 0.046630 0.426312 0.133595
H63   H     H_    0.676311 0.953370 0.426312 0.133596
H64   H     H_    0.176317 0.546630 0.426304 0.133597
H65   H     H_    0.176318 0.453370 0.426303 0.133599
H66   H     H_    0.763278 0.046646 0.348295 0.142102
H67   H     H_    0.956969 0.333262 0.063740 0.117585
H68   H     H_    0.763279 0.953354 0.348295 0.142101
H69   H     H_    0.263286 0.546646 0.348291 0.142101
H70   H     H_    0.263286 0.453354 0.348291 0.142102
H71   H     H_    0.897470 0.453374 0.425953 0.136768
H72   H     H_    0.897470 0.546626 0.425952 0.136769
H73   H     H_    0.397470 0.953374 0.425954 0.136768
H74   H     H_    0.397470 0.046626 0.425954 0.136767
H75   H     H_    0.888328 0.453356 0.348093 0.145533
H76   H     H_    0.888328 0.546643 0.348093 0.145534
H77   H     H_    0.388328 0.953357 0.348093 0.145534
H78   H     H_    0.952964 0.667372 0.063739 0.117830
H79   H     H_    0.388329 0.046643 0.348093 0.145533
H80   H     H_    0.527458 0.813518 0.349135 0.174373
H81   H     H_    0.527455 0.186472 0.349141 0.174387
H82   H     H_    0.027459 0.313514 0.349132 0.174371
H83   H     H_    0.027457 0.686477 0.349137 0.174388
H84   H     H_    0.679670 0.835761 0.303938 0.101456
H85   H     H_    0.679673 0.164233 0.303965 0.101473
H86   H     H_    0.179672 0.335757 0.303932 0.101462
H87   H     H_    0.179676 0.664240 0.303959 0.101475
H88   H     H_    0.385020 0.762493 0.063734 0.125191
H89   H     H_    0.520481 0.815677 0.063745 0.118002
H90   H     H_    0.386656 0.229393 0.063733 0.124670
H91   H     H_    0.885560 0.265662 0.063735 0.125016
H92   H     H_    0.884899 0.738337 0.063734 0.125233
H93   H     H_    0.584216 0.815681 0.936311 0.117425
H94   H     H_    0.590424 0.189790 0.936310 0.117532
H95   H     H_    0.086691 0.313628 0.936312 0.117472
H96   H     H_    0.083557 0.683798 0.936312 0.117414
O1    O     O_3   0.750020 0.750020 0.500000 -0.436714
O2    O     O_R   0.741140 0.134170 0.457020 -0.548392
O3    O     O_R   0.241140 0.365830 0.457020 -0.548391
O4    O     O_R   0.241140 0.634170 0.457020 -0.548392
O5    O     O_R   0.862350 0.719680 0.336040 -0.539594
O6    O     O_R   0.862350 0.280320 0.336040 -0.539596
O7    O     O_R   0.362350 0.219680 0.336040 -0.539595
O8    O     O_R   0.362350 0.780320 0.336040 -0.539594
O9    O     O_R   0.698420 0.780360 0.663960 -0.539950
O10   O     O_R   0.698420 0.219640 0.663960 -0.539954
O11   O     O_R   0.198420 0.280360 0.663960 -0.539952
O12   O     O_3   0.750020 0.249980 0.500000 -0.436713
O13   O     O_R   0.198420 0.719640 0.663960 -0.539950
O14   O     O_R   0.801620 0.780400 0.336040 -0.537155
O15   O     O_R   0.801620 0.219600 0.336040 -0.537158
O16   O     O_R   0.301620 0.280400 0.336040 -0.537155
O17   O     O_R   0.301620 0.719600 0.336040 -0.537160
O18   O     O_R   0.637700 0.719640 0.663960 -0.540408
O19   O     O_R   0.637700 0.280360 0.663960 -0.540404
O20   O     O_R   0.137700 0.219640 0.663960 -0.540406
O21   O     O_R   0.137700 0.780360 0.663960 -0.540408
O22   O     O_R   0.801870 0.634220 0.457010 -0.544305
O23   O     O_3   0.250020 0.250020 0.500000 -0.436714
O24   O     O_R   0.801870 0.365780 0.457010 -0.544306
O25   O     O_R   0.301870 0.134220 0.457010 -0.544307
O26   O     O_R   0.301870 0.865780 0.457010 -0.544306
O27   O     O_R   0.758890 0.865820 0.542980 -0.549855
O28   O     O_R   0.758890 0.134180 0.542980 -0.549855
O29   O     O_R   0.258890 0.365820 0.542980 -0.549855
O30   O     O_R   0.258890 0.634180 0.542980 -0.549855
O31   O     O_R   0.887320 0.719660 0.457000 -0.544485
O32   O     O_R   0.887320 0.280340 0.457000 -0.544484
O33   O     O_R   0.387320 0.219660 0.457000 -0.544484
O34   O     O_3   0.250020 0.749980 0.500000 -0.436713
O35   O     O_R   0.387320 0.780340 0.457000 -0.544484
O36   O     O_R   0.655700 0.780400 0.457020 -0.542395
O37   O     O_R   0.655700 0.219600 0.457020 -0.542405
O38   O     O_R   0.155700 0.280400 0.457020 -0.542395
O39   O     O_R   0.155700 0.719600 0.457020 -0.542406
O40   O     O_R   0.844340 0.780370 0.542980 -0.549902
O41   O     O_R   0.844340 0.219630 0.542980 -0.549902
O42   O     O_R   0.344340 0.280370 0.542980 -0.549902
O43   O     O_R   0.344340 0.719630 0.542980 -0.549902
O44   O     O_R   0.612730 0.719670 0.543000 -0.550314
O45   O     O_R   0.698170 0.634220 0.542990 -0.549288
O46   O     O_R   0.612730 0.280330 0.543000 -0.550312
O47   O     O_R   0.112730 0.219670 0.543000 -0.550315
O48   O     O_R   0.112730 0.780330 0.543000 -0.550312
O49   O     O_2   0.642239 0.771010 0.297782 -0.498139
O50   O     O_2   0.642237 0.228967 0.297770 -0.498141
O51   O     O_2   0.142240 0.271004 0.297785 -0.498146
O52   O     O_2   0.142236 0.728974 0.297769 -0.498152
O53   O     O_R   0.698170 0.365780 0.542990 -0.549288
O54   O     O_R   0.198170 0.134220 0.542990 -0.549288
O55   O     O_R   0.198170 0.865780 0.542990 -0.549289
O56   O     O_R   0.741140 0.865830 0.457020 -0.548392
Zn1   Zn    Zn3+2 0.675940 0.706640 0.561420 0.933875
Zn2   Zn    Zn3+2 0.762700 0.206610 0.561410 0.931052
Zn3   Zn    Zn3+2 0.262700 0.293390 0.561410 0.931054
Zn4   Zn    Zn3+2 0.262700 0.706610 0.561410 0.931056
Zn5   Zn    Zn3+2 0.737340 0.793410 0.438590 0.935723
Zn6   Zn    Zn3+2 0.737340 0.206590 0.438590 0.935714
Zn7   Zn    Zn3+2 0.237340 0.293410 0.438590 0.935724
Zn8   Zn    Zn3+2 0.237340 0.706590 0.438590 0.935713
Zn9   Zn    Zn3+2 0.675940 0.293360 0.561420 0.933876
Zn10  Zn    Zn3+2 0.175940 0.206640 0.561420 0.933875
Zn11  Zn    Zn3+2 0.175940 0.793360 0.561420 0.933874
Zn12  Zn    Zn3+2 0.824100 0.706650 0.438580 0.934345
Zn13  Zn    Zn3+2 0.824100 0.293350 0.438580 0.934343
Zn14  Zn    Zn3+2 0.324100 0.206650 0.438580 0.934344
Zn15  Zn    Zn3+2 0.324100 0.793350 0.438580 0.934343
Zn16  Zn    Zn3+2 0.762700 0.793390 0.561410 0.931054

loop_
_geom_bond_atom_site_label_1
_geom_bond_atom_site_label_2
_ccdc_geom_bond_type
C52   H82   S    
C87   C91   S    
C55   H40   S    
C25   O43   A    
C95   H28   S    
C26   O44   A    
O1    Zn12  S    
C66   C79   S    
C99   H9    S    
C45   C57   S    
C7    C133  S    
C72   C75   S    
C42   C119  A    
C16   H79   S    
C53   O15   A    
O17   Zn8   S    
C128  H57   S    
O23   Zn14  S    
C68   C90   S    
O26   Zn15  S    
C44   H85   S    
O20   Zn10  S    
O9    Zn16  S    
C85   H22   S    
C83   C114  S    
O56   Zn5   S    
C32   C57   S    
C23   O42   A    
O3    Zn7   S    
C22   O41   A    
C116  C121  A    
C65   H94   S    
C108  H60   S    
C6    C132  S    
C41   H51   S    
O21   Zn11  S    
C135  H63   S    
O22   Zn12  S    
C69   H2    S    
C98   C102  S    
C101  H11   S    
C58   H43   S    
C127  H55   S    
C98   H17   S    
C125  H53   S    
C12   C139  S    
C85   H88   S    
C102  H13   S    
C18   C122  S    
C82   O19   A    
C21   O40   A    
C62   H48   S    
O13   Zn4   S    
C84   O13   A    
C85   C90   S    
O34   Zn11  S    
C71   C93   S    
C72   C103  T    
C83   O20   A    
C33   C38   A    
C137  H70   S    
O40   Zn16  S    
O38   Zn7   S    
C54   H83   S    
C96   H16   S    
C51   H81   S    
C118  C120  A    
O34   Zn4   S    
C131  O24   A    
C48   C52   S    
C21   C24   S    
C83   O11   A    
C31   C36   A    
C122  C126  A    
C61   H47   S    
C15   H73   S    
C30   C34   A    
O32   Zn13  S    
C64   O7    A    
C66   C70   S    
C5    C9    A    
C19   C123  S    
C70   H3    S    
C71   H78   S    
C133  O55   A    
C62   C80   S    
C47   O52   D    
C39   H49   S    
C59   H18   S    
C62   H21   S    
C67   H34   S    
C92   C96   S    
O45   Zn1   S    
O37   Zn6   S    
C31   C46   A    
C29   C38   S    
C64   C73   S    
O35   Zn15  S    
C31   C56   S    
C110  C114  T    
C8    H31   S    
C27   O37   A    
C87   H24   S    
C99   H5    S    
O12   Zn6   S    
C16   C140  S    
C13   C108  A    
C25   C130  S    
C57   H42   S    
C5    C139  A    
C67   H96   S    
O15   Zn6   S    
C15   C16   S    
C131  O53   A    
C34   C39   A    
C84   O21   A    
C138  C139  A    
C61   H20   S    
C20   O30   A    
C86   C130  A    
C70   H67   S    
C20   O4    A    
C46   C51   S    
C136  H69   S    
C80   C102  S    
O19   Zn9   S    
C117  C122  A    
C59   C85   S    
C121  C125  A    
C19   O3    A    
C93   C106  S    
C123  C127  A    
C81   C112  S    
C14   H76   S    
C32   C37   A    
C16   H74   S    
C35   C130  A    
C25   O35   A    
C1    O5    A    
C26   O36   A    
C43   C55   S    
C96   H29   S    
C63   C68   S    
C101  H7    S    
C76   C106  T    
C1    C76   S    
C12   H71   S    
C12   C14   S    
C136  C137  S    
C75   O17   A    
C134  C135  S    
C39   C86   A    
C19   O29   A    
O24   Zn13  S    
C74   C105  T    
C28   C37   S    
C61   C79   S    
C29   O48   A    
C77   C99   S    
C78   C109  S    
C37   C41   A    
C89   H26   S    
C20   C124  S    
C10   C11   A    
C91   C95   S    
C98   H30   S    
C47   H87   S    
C88   H25   S    
C2    C23   S    
C79   C101  S    
C69   C91   S    
C18   O2    A    
C29   O39   A    
O48   Zn11  S    
C33   C58   S    
O53   Zn9   S    
C97   H59   S    
C53   C74   S    
C60   H19   S    
O18   Zn1   S    
O55   Zn11  S    
C27   O46   A    
O27   Zn16  S    
C3    C7    A    
C63   C77   S    
C134  H66   S    
C56   H41   S    
C33   C49   A    
C62   C89   S    
O29   Zn3   S    
C54   H39   S    
O30   Zn4   S    
C75   O8    A    
O41   Zn2   S    
C14   C138  S    
C2    C97   A    
C15   H77   S    
C124  C128  A    
C10   H33   S    
O23   Zn3   S    
C96   C101  S    
C32   C48   A    
O31   Zn12  S    
O16   Zn7   S    
O28   Zn2   S    
C117  C134  S    
O1    Zn5   S    
C90   C94   S    
O7    Zn14  S    
O12   Zn9   S    
C82   C113  S    
O8    Zn15  S    
C40   C97   A    
C116  C135  S    
C95   C100  S    
C120  C136  S    
C44   C56   S    
C28   O38   A    
O14   Zn5   S    
C60   C78   S    
C63   H1    S    
O12   Zn2   S    
O5    Zn12  S    
O47   Zn10  S    
C17   C121  S    
C78   C100  S    
C125  C126  A    
C132  O54   A    
C127  C128  A    
O39   Zn8   S    
C23   O33   A    
C24   C119  A    
C65   C78   S    
C79   C110  S    
C70   C92   S    
C67   C80   S    
C6    C10   A    
C4    C129  S    
C17   O56   A    
C27   C36   S    
C87   H90   S    
C44   O50   D    
C30   C55   S    
C66   H95   S    
O23   Zn10  S    
C11   H35   S    
C45   O51   D    
C14   H72   S    
C100  H10   S    
O1    Zn16  S    
O4    Zn8   S    
C65   C69   S    
O42   Zn3   S    
C80   C111  S    
C50   H80   S    
O10   Zn2   S    
C13   C22   S    
C67   C71   S    
C118  C123  A    
C89   H92   S    
C6    C140  A    
C52   H38   S    
C90   C103  S    
C52   C57   S    
C4    C138  A    
O33   Zn14  S    
C92   C105  S    
C5    C131  S    
C88   H91   S    
C9    H32   S    
C12   H75   S    
O43   Zn4   S    
C71   H4    S    
C28   O47   A    
O12   Zn13  S    
C41   C108  A    
C119  H61   S    
C91   C104  S    
C4    C8    A    
C59   C77   S    
C137  H65   S    
C2    C46   A    
C7    C11   A    
C45   H86   S    
C30   C35   A    
C38   C42   A    
C49   C54   S    
O11   Zn3   S    
O23   Zn7   S    
C116  C117  A    
C50   H36   S    
C51   C56   S    
C126  H54   S    
C36   C40   A    
O46   Zn9   S    
C102  H8    S    
C26   C34   S    
C73   C104  T    
C88   C92   S    
C100  H6    S    
C8    C9    A    
O54   Zn10  S    
C81   O18   A    
C118  C137  S    
C109  C113  T    
C64   O16   A    
C89   C93   S    
C60   C87   S    
C134  H62   S    
C133  O26   A    
C81   O9    A    
C77   C107  S    
C82   O10   A    
C53   O6    A    
C129  O22   A    
C1    O14   A    
C69   H56   S    
C17   O27   A    
C18   O28   A    
C61   C88   S    
C22   O32   A    
C63   H93   S    
O34   Zn15  S    
C94   H14   S    
O6    Zn13  S    
C35   C50   S    
O44   Zn1   S    
C107  C112  T    
C129  O45   A    
O1    Zn1   S    
O2    Zn6   S    
C86   H58   S    
C68   H45   S    
C84   C115  S    
O25   Zn14  S    
C136  H64   S    
C3    C15   S    
C68   H89   S    
O34   Zn8   S    
C54   C58   S    
C24   C49   A    
C60   H46   S    
C94   H27   S    
C13   C48   A    
C50   C55   S    
C65   H12   S    
C43   H84   S    
C51   H37   S    
C47   C58   S    
C94   C99   S    
O36   Zn5   S    
C66   H23   S    
C95   H15   S    
C59   H44   S    
C21   O31   A    
C42   H52   S    
C40   H50   S    
C132  O25   A    
C111  C115  T    
C3    C140  A    
C93   C98   S    
C120  C124  A    
C135  H68   S    
C43   O49   D    
