data_mof_unit_35961.cif
_audit_creation_date              2012-12-10T16:50:09-0500
_audit_creation_method            fapswitch 2.2
_symmetry_space_group_name_H-M    P1
_symmetry_Int_Tables_number       1
_space_group_crystal_system       triclinic
_cell_length_a                    7.834478
_cell_length_b                    8.560917
_cell_length_c                    10.579177
_cell_angle_alpha                 91.411725
_cell_angle_beta                  85.468773
_cell_angle_gamma                 93.574541
_cell_volume                      705.816348001

loop_
_atom_site_label
_atom_site_type_symbol
_atom_type_description
_atom_site_fract_x
_atom_site_fract_y
_atom_site_fract_z
_atom_type_partial_charge
C1    C     C_R   0.545480 0.794426 0.496754 0.937679
C2    C     C_R   0.454505 0.205552 0.502865 0.974652
C3    C     C_R   0.499167 0.502899 0.260891 0.866728
C4    C     C_R   0.416843 0.787645 0.878873 -0.227933
C5    C     C_R   0.369112 0.919304 0.950156 -0.247622
C6    C     C_R   0.360720 0.916976 0.082826 0.532324
C7    C     C_R   0.407470 0.784416 0.142792 -0.264131
C8    C     C_R   0.453488 0.649340 0.071695 0.011537
C9    C     C_2   0.976513 0.610102 0.646679 1.136968
C10   C     C_3   0.142038 0.074865 0.147459 0.057736
C11   C     C_3   0.128020 0.240540 0.100492 -0.343270
C12   C     C_R   0.457638 0.650709 0.939258 0.093878
C13   C     C_3   0.941960 0.277629 0.091915 -0.911474
C14   C     C_R   0.506569 0.514882 0.871231 -0.058925
C15   C     C_R   0.553676 0.382496 0.929792 -0.219636
C16   C     C_R   0.548292 0.380929 0.058969 -0.212779
C17   C     C_R   0.498602 0.512331 0.128646 -0.075421
C18   C     C_2   0.569276 0.958012 0.494526 -0.359204
C19   C     C_2   0.430641 0.041906 0.504220 -0.363310
C20   C     C_R   0.502118 0.504449 0.739037 0.860940
H1    H     H_    0.589691 0.278905 0.875446 0.162041
H2    H     H_    0.076685 0.065636 0.244375 0.165724
H3    H     H_    0.071305 0.989588 0.085614 0.136891
H4    H     H_    0.187095 0.325753 0.167204 0.241336
H5    H     H_    0.197526 0.253371 0.005325 0.239909
H6    H     H_    0.880804 0.196839 0.022640 0.268006
H7    H     H_    0.936562 0.399666 0.059855 0.285224
H8    H     H_    0.870099 0.266091 0.186350 0.262040
H9    H     H_    0.423163 0.794819 0.776683 0.167610
H10   H     H_    0.339254 0.023343 0.902257 0.153636
H11   H     H_    0.406026 0.788602 0.245034 0.169127
H12   H     H_    0.579377 0.275962 0.105226 0.191183
H13   H     H_    0.700308 0.008846 0.485146 0.194427
H14   H     H_    0.299609 0.991037 0.513419 0.194824
H15   H     H_    0.013472 0.398091 0.392991 0.184428
H16   H     H_    0.922798 0.591451 0.835548 0.323261
N1    N     N_2   0.950330 0.457950 0.466250 -0.207211
N2    N     N_2   0.049670 0.542050 0.533750 -0.159819
O1    O     O_R   0.389250 0.738570 0.508280 -0.638461
O2    O     O_R   0.972604 0.529207 0.760145 -0.800219
O3    O     O_3   0.317208 0.047017 0.155541 -0.666544
O4    O     O_R   0.678390 0.711630 0.486650 -0.591876
O5    O     O_R   0.355400 0.513470 0.694050 -0.607744
O6    O     O_R   0.644540 0.486530 0.672420 -0.611162
O7    O     O_R   0.321610 0.288370 0.513350 -0.621661
O8    O     O_R   0.610750 0.261430 0.491720 -0.620024
O9    O     O_R   0.355460 0.513470 0.327580 -0.645013
O10   O     O_R   0.644600 0.486530 0.305950 -0.622995
O11   O     O_2   0.930114 0.743691 0.646690 -0.667290
Zn1   Zn    Zn3+2 0.306930 0.517990 0.514440 0.963224
Zn2   Zn    Zn3+2 0.693070 0.482010 0.485560 0.968393

loop_
_geom_bond_atom_site_label_1
_geom_bond_atom_site_label_2
_ccdc_geom_bond_type
O5    Zn1   S    
C6    C7    A    
N2    Zn1   S    
C10   H3    S    
C4    C12   A    
C1    O4    A    
C4    H9    S    
C15   H1    S    
O4    Zn2   S    
C8    C12   A    
O1    Zn1   S    
C7    C8    A    
C13   H8    S    
C10   H2    S    
C10   O3    S    
C11   C13   S    
C1    C18   S    
N1    N2    D    
O7    Zn1   S    
C11   H4    S    
O6    Zn2   S    
C3    O9    A    
C9    N2    S    
H15   N1    S    
C12   C14   A    
C3    C17   S    
O9    Zn1   S    
O10   Zn2   S    
C2    O7    A    
C5    C6    A    
N1    Zn2   S    
C18   H13   S    
C13   H6    S    
C7    H11   S    
C10   C11   S    
C11   H5    S    
C15   C16   A    
C14   C20   S    
C3    O10   A    
H16   O2    S    
C20   O5    A    
C9    O11   D    
C5    H10   S    
C1    O1    A    
C16   H12   S    
C18   C19   D    
C2    O8    A    
C20   O6    A    
C2    C19   S    
C14   C15   A    
O8    Zn2   S    
C19   H14   S    
C9    O2    S    
C13   H7    S    
C8    C17   A    
C16   C17   A    
C4    C5    A    
C6    O3    S    
