data_mof_unit_54514.cif
_audit_creation_date              2012-12-10T19:00:16-0500
_audit_creation_method            fapswitch 2.2
_symmetry_space_group_name_H-M    P1
_symmetry_Int_Tables_number       1
_space_group_crystal_system       triclinic
_cell_length_a                    9.564684
_cell_length_b                    10.885372
_cell_length_c                    13.559568
_cell_angle_alpha                 90.21172
_cell_angle_beta                  73.284407
_cell_angle_gamma                 90.087518
_cell_volume                      1352.09215866

loop_
_atom_site_label
_atom_site_type_symbol
_atom_type_description
_atom_site_fract_x
_atom_site_fract_y
_atom_site_fract_z
_atom_type_partial_charge
C1    C     C_R   0.501269 0.737075 0.498086 0.827302
C2    C     C_R   0.445307 0.526470 0.973272 0.059418
C3    C     C_R   0.474385 0.480997 0.871297 0.071865
C4    C     C_R   0.547799 0.503374 0.028831 -0.037837
C5    C     C_R   0.688813 0.459400 0.976166 -0.032814
C6    C     C_R   0.710474 0.405696 0.878913 -0.140856
C7    C     C_R   0.600677 0.409109 0.830646 -0.110131
C8    C     C_R   0.511764 0.515444 0.136002 0.475248
C9    C     C_R   0.769312 0.507322 0.127169 0.176933
C10   C     C_R   0.379410 0.512591 0.811794 -0.206125
C11   C     C_R   0.377549 0.935716 0.537466 -0.066355
C12   C     C_R   0.422731 0.498113 0.699423 0.797384
C13   C     C_R   0.504321 0.869647 0.495820 -0.105035
C14   C     C_R   0.634015 0.937218 0.451808 0.211443
C15   C     C_R   0.629372 0.066517 0.453175 -0.206199
C16   C     C_R   0.498871 0.130024 0.499411 -0.093881
C17   C     C_R   0.373631 0.059925 0.540239 -0.042747
C18   C     C_3   0.211321 0.060089 0.590760 -0.018650
C19   C     C_3   0.219311 0.918909 0.587610 0.486864
C20   C     C_R   0.958463 0.443953 0.422210 0.000077
C21   C     C_R   0.896754 0.564587 0.571490 0.573375
C22   C     C_R   0.045232 0.564353 0.571611 0.621017
C23   C     C_R   0.498962 0.262735 0.501029 0.798607
C24   C     C_R   0.106566 0.447401 0.420639 0.094378
C25   C     C_3   0.135081 0.318532 0.385282 -0.473191
C26   C     C_3   0.973243 0.309439 0.395507 0.765710
C27   C     C_R   0.577579 0.505604 0.300357 0.860635
C28   C     C_R   0.802258 0.466929 0.023948 0.236126
C29   C     C_R   0.621109 0.511298 0.186627 -0.268427
C30   C     C_R   0.254154 0.582421 0.856084 -0.245992
C31   C     C_R   0.226992 0.628427 0.955017 0.619949
C32   C     C_R   0.322056 0.602851 0.012848 -0.210177
Cu1   Cu    Cu3+1 0.359330 0.500020 0.500010 1.029648
Cu2   Cu    Cu3+1 0.640670 0.499980 0.499990 1.035138
H1    H     H_    0.727150 0.116820 0.415984 0.232246
H2    H     H_    0.144976 0.097398 0.542803 0.195970
H3    H     H_    0.194939 0.871756 0.663274 0.126683
H4    H     H_    0.207709 0.314093 0.304970 0.205570
H5    H     H_    0.169189 0.260005 0.440477 0.201221
H6    H     H_    0.810183 0.357433 0.840575 0.145018
H7    H     H_    0.182727 0.610410 0.811144 0.230540
H8    H     H_    0.302540 0.650667 0.085426 0.216383
H9    H     H_    0.619081 0.358238 0.759495 0.160313
N1    N     N_R   0.852320 0.499070 0.499340 -0.263715
N2    N     N_R   0.148230 0.499110 0.499340 -0.264483
O1    O     O_R   0.381190 0.680360 0.500000 -0.517506
O2    O     O_R   0.618780 0.680320 0.499990 -0.544380
O3    O     O_R   0.323230 0.500000 0.650990 -0.559515
O4    O     O_R   0.560820 0.499960 0.650980 -0.526136
O5    O     O_R   0.381220 0.319680 0.500010 -0.609497
O6    O     O_R   0.618810 0.319640 0.500000 -0.530311
O7    O     O_R   0.439180 0.500040 0.349020 -0.508029
O8    O     O_R   0.676770 0.500000 0.349010 -0.573371
N3    N     N_2   0.884010 0.541828 0.170273 -0.407582
H10   H     H_    0.988714 0.515879 0.130822 0.292907
C33   C     C_3   0.876667 0.663754 0.215405 -0.529770
H11   H     H_    0.964382 0.723069 0.167972 0.262381
H12   H     H_    0.893172 0.656493 0.292855 0.231683
H13   H     H_    0.770390 0.709631 0.222793 0.203329
N4    N     N_2   0.169763 0.106706 0.695539 -0.440219
H14   H     H_    0.222999 0.067920 0.744070 0.252362
C34   C     C_3   0.154198 0.238268 0.706184 -0.582976
H15   H     H_    0.078473 0.260429 0.782394 0.215161
H16   H     H_    0.108074 0.277882 0.646828 0.239603
H17   H     H_    0.261842 0.279638 0.700832 0.215692
F1    F     F_    0.150918 0.868147 0.520197 -0.657346
F2    F     F_    0.798095 0.628890 0.645270 -0.622169
F3    F     F_    0.084280 0.628512 0.645266 -0.629864
N5    N     N_2   0.940739 0.279648 0.299981 -0.419112
H18   H     H_    0.965769 0.348295 0.245883 0.240908
C35   C     C_3   0.988941 0.160106 0.256165 -0.726054
H19   H     H_    0.923210 0.132170 0.204419 0.233304
H20   H     H_    0.975664 0.089734 0.317028 0.258143
H21   H     H_    0.105711 0.163905 0.210634 0.228291
F4    F     F_    0.899650 0.235668 0.477005 -0.683875
N6    N     N_2   0.949585 0.439896 0.968331 -0.412729
H22   H     H_    0.978779 0.461499 0.891176 0.271705
C36   C     C_3   0.999242 0.319836 0.988890 -0.741697
H23   H     H_    0.982815 0.307312 0.072418 0.246162
H24   H     H_    0.117718 0.310591 0.949188 0.239241
H25   H     H_    0.938381 0.246858 0.961120 0.234754
F5    F     F_    0.368739 0.518214 0.191540 -0.680270
F6    F     F_    0.113824 0.706579 0.991592 -0.678452
N7    N     N_2   0.766844 0.876795 0.401145 -0.473408
H26   H     H_    0.814350 0.909803 0.327946 0.237631
C37   C     C_3   0.869676 0.871465 0.460971 -0.489757
H27   H     H_    0.910101 0.964946 0.471427 0.250886
H28   H     H_    0.963575 0.812906 0.420202 0.237668
H29   H     H_    0.817781 0.831055 0.537844 0.283768

loop_
_geom_bond_atom_site_label_1
_geom_bond_atom_site_label_2
_ccdc_geom_bond_type
C27   C29   S    
Cu1   N2    S    
C14   N7    S    
C12   O3    A    
C12   O4    A    
Cu1   O7    S    
C11   C19   S    
Cu2   O6    S    
C8    F5    S    
C24   N2    A    
C2    C32   A    
N7    C37   S    
C3    C7    A    
C30   C31   A    
C36   H24   S    
C1    O1    A    
C15   C16   A    
C21   N1    A    
C31   F6    S    
C33   H11   S    
C19   F1    S    
N4    C34   S    
C18   C19   S    
C4    C8    A    
N5    C35   S    
C34   H16   S    
C19   H3    S    
C20   C24   A    
C16   C17   A    
C30   H7    S    
C7    H9    S    
C9    C29   A    
C21   C22   A    
C21   F2    S    
Cu1   O1    S    
C15   H1    S    
C20   N1    A    
Cu1   Cu2   S    
N6    H22   S    
N3    C33   S    
Cu2   N1    S    
C24   C25   S    
C35   H20   S    
C36   H23   S    
C1    O2    A    
C23   O5    A    
C25   C26   S    
N4    H14   S    
C2    C4    A    
C34   H15   S    
C25   H4    S    
C5    C28   A    
C10   C30   A    
C23   O6    A    
C31   C32   A    
C17   C18   S    
N7    H26   S    
C22   F3    S    
C10   C12   S    
C18   N4    S    
C16   C23   S    
C6    H6    S    
C1    C13   S    
C8    C29   A    
C28   N6    S    
C27   O7    A    
Cu1   O3    S    
N3    H10   S    
C11   C17   A    
Cu2   O4    S    
C34   H17   S    
C37   H27   S    
N6    C36   S    
C4    C5    A    
C37   H29   S    
C35   H21   S    
C27   O8    A    
C6    C7    A    
C9    N3    S    
C33   H13   S    
C2    C3    A    
Cu1   O5    S    
C35   H19   S    
C3    C10   A    
C25   H5    S    
C11   C13   A    
C36   H25   S    
C5    C6    A    
C20   C26   S    
C33   H12   S    
C37   H28   S    
N5    H18   S    
C22   N2    A    
Cu2   O8    S    
C26   F4    S    
C26   N5    S    
C32   H8    S    
C14   C15   A    
Cu2   O2    S    
C13   C14   A    
C18   H2    S    
C9    C28   A    
