data_mof_unit_61818.cif
_audit_creation_date              2012-12-10T17:30:41-0500
_audit_creation_method            fapswitch 2.2
_symmetry_space_group_name_H-M    P1
_symmetry_Int_Tables_number       1
_space_group_crystal_system       triclinic
_cell_length_a                    21.672522
_cell_length_b                    21.665659
_cell_length_c                    22.132746
_cell_angle_alpha                 60.061804
_cell_angle_beta                  119.552951
_cell_angle_gamma                 91.476294
_cell_volume                      7491.77173021

loop_
_atom_site_label
_atom_site_type_symbol
_atom_type_description
_atom_site_fract_x
_atom_site_fract_y
_atom_site_fract_z
_atom_type_partial_charge
C1    C     C_R   0.618756 0.501862 0.497586 0.789268
C2    C     C_3   0.292987 0.706922 0.083855 0.081734
C3    C     C_3   0.219681 0.705246 0.972056 -0.266147
C4    C     C_3   0.207189 0.790408 0.916362 0.087099
C5    C     C_3   0.209441 0.718326 0.029689 0.111045
C6    C     C_3   0.196548 0.802115 0.974071 0.151653
C7    C     C_1   0.339066 0.661690 0.175305 0.050835
C8    C     C_1   0.161180 0.836706 0.824836 0.017422
C9    C     C_3   0.680956 0.486305 0.432581 0.265472
C10   C     C_3   0.752382 0.488227 0.432724 -0.401753
C11   C     C_3   0.705836 0.578123 0.477932 -0.371867
C12   C     C_R   0.421126 0.579934 0.340089 0.879249
C13   C     C_3   0.753545 0.440741 0.584658 -0.489656
C14   C     C_3   0.687122 0.503232 0.496332 0.008337
C15   C     C_3   0.810585 0.500852 0.499783 0.058997
C16   C     C_3   0.778563 0.576910 0.480172 -0.028684
C17   C     C_3   0.825467 0.438044 0.586098 -0.393444
C18   C     C_3   0.769115 0.179392 0.027328 0.499298
C19   C     C_3   0.688947 0.229377 0.972875 -0.196343
C20   C     C_1   0.625342 0.375149 0.750040 -0.153021
C21   C     C_1   0.876085 0.125267 0.250072 -0.130078
C22   C     C_3   0.789350 0.240590 0.970745 -0.195999
C23   C     C_R   0.379741 0.499556 0.498899 0.850755
C24   C     C_3   0.709655 0.291145 0.917417 0.099780
C25   C     C_3   0.813123 0.270924 0.026975 -0.215210
C26   C     C_3   0.792691 0.209152 0.082744 0.059812
C27   C     C_3   0.732796 0.322242 0.972113 -0.128914
C28   C     C_3   0.712975 0.259746 0.029075 -0.215194
C29   C     C_1   0.663402 0.337240 0.825570 -0.009241
C30   C     C_1   0.838610 0.163232 0.174583 0.037113
C31   C     C_3   0.286344 0.428429 0.506687 -0.333946
C32   C     C_3   0.213838 0.432402 0.504459 -0.108836
C33   C     C_3   0.321244 0.505601 0.566118 -0.438580
C34   C     C_R   0.580093 0.420016 0.660122 0.796261
C35   C     C_3   0.244280 0.568691 0.405023 0.058377
C36   C     C_3   0.308464 0.500583 0.493315 -0.109829
C37   C     C_3   0.185929 0.507695 0.491882 -0.131109
C38   C     C_3   0.253280 0.501116 0.572080 -0.043736
C39   C     C_3   0.172636 0.581970 0.405681 0.599107
C40   C     C_R   0.998573 0.880612 0.499182 0.797388
C41   C     C_R   0.079629 0.919915 0.659940 0.811006
C42   C     C_R   0.001469 0.118877 0.501549 0.804943
C43   C     C_R   0.920302 0.080082 0.339919 0.800585
C44   C     C_R   0.002215 0.379416 0.500254 0.799763
C45   C     C_3   0.290793 0.778799 0.970585 0.126164
C46   C     C_R   0.879816 0.499643 0.500372 0.817126
C47   C     C_R   0.002369 0.620218 0.500683 0.849016
C48   C     C_R   0.119666 0.504557 0.498300 0.830185
C49   C     C_3   0.989524 0.827817 0.418194 -0.059992
C50   C     C_3   0.982658 0.757482 0.416625 -0.409185
C51   C     C_3   0.071882 0.752960 0.575969 -0.565382
C52   C     C_3   0.934360 0.778296 0.507899 0.045273
C53   C     C_3   0.996676 0.812250 0.498519 0.069091
C54   C     C_3   0.002730 0.688185 0.503310 -0.010086
C55   C     C_3   0.080411 0.680949 0.577437 0.546689
C56   C     C_3   0.279775 0.791025 0.027458 0.149164
C57   C     C_3   0.938548 0.705171 0.510826 -0.492081
C58   C     C_3   0.080606 0.199230 0.528860 -0.435607
C59   C     C_3   0.084154 0.267602 0.534636 0.203235
C60   C     C_3   0.945457 0.255238 0.412147 -0.403823
C61   C     C_3   0.984963 0.180451 0.564400 -0.415985
C62   C     C_3   0.002839 0.187409 0.501619 -0.020619
C63   C     C_3   0.003912 0.309212 0.502057 -0.117483
C64   C     C_3   0.951907 0.328589 0.408449 -0.075300
C65   C     C_3   0.970210 0.256395 0.553372 0.507637
C66   C     C_1   0.376737 0.624430 0.250573 -0.083156
C67   C     C_1   0.123713 0.874774 0.749514 -0.137701
C68   C     C_3   0.304956 0.693817 0.026878 -0.226318
Cu1   Cu    Cu3+1 0.500030 0.437550 0.499970 1.061763
Cu2   Cu    Cu3+1 0.499970 0.562450 0.500030 0.980026
Cu3   Cu    Cu3+1 0.062480 0.999860 0.500010 0.977044
Cu4   Cu    Cu3+1 0.937520 0.999990 0.499990 0.994273
Cu5   Cu    Cu3+1 0.041430 0.458600 0.582880 1.133096
Cu6   Cu    Cu3+1 0.958570 0.541400 0.417120 1.058483
H1    H     H_    0.740048 0.532180 0.370036 0.234237
H2    H     H_    0.659092 0.626172 0.417771 0.208257
H3    H     H_    0.761028 0.450638 0.632312 0.190876
H4    H     H_    0.742781 0.385660 0.602762 0.194808
H5    H     H_    0.846789 0.382815 0.601266 0.233164
H6    H     H_    0.868267 0.443813 0.636676 0.202146
H7    H     H_    0.713645 0.586816 0.526484 0.165825
H8    H     H_    0.820154 0.581778 0.532260 0.143112
H9    H     H_    0.638016 0.212030 0.950147 0.175030
H10   H     H_    0.682122 0.267390 0.053824 0.168068
H11   H     H_    0.717228 0.381985 0.948224 0.154077
H12   H     H_    0.864381 0.287725 0.049996 0.168480
H13   H     H_    0.820215 0.232379 0.946270 0.174939
H14   H     H_    0.331473 0.379455 0.568637 0.181291
H15   H     H_    0.280583 0.419070 0.459420 0.246744
H16   H     H_    0.228550 0.385653 0.567377 0.244085
H17   H     H_    0.369855 0.458595 0.626636 0.148444
H18   H     H_    0.268835 0.445061 0.628877 0.163673
H19   H     H_    0.265474 0.617713 0.396207 0.155436
H20   H     H_    0.336903 0.556500 0.559819 0.260360
H21   H     H_    0.040907 0.839726 0.420972 0.158381
H22   H     H_    0.924980 0.767420 0.366794 0.217097
H23   H     H_    0.017521 0.748417 0.397072 0.237837
H24   H     H_    0.119094 0.775684 0.578225 0.180487
H25   H     H_    0.945095 0.763735 0.568860 0.160409
H26   H     H_    0.885379 0.709887 0.459019 0.171979
H27   H     H_    0.943908 0.658840 0.568083 0.214806
H28   H     H_    0.075168 0.741195 0.632672 0.212125
H29   H     H_    0.093754 0.207750 0.483003 0.168575
H30   H     H_    0.193969 0.669995 0.949321 0.181346
H31   H     H_    0.122901 0.147481 0.589482 0.212516
H32   H     H_    0.097157 0.306897 0.489568 0.113227
H33   H     H_    0.954397 0.255104 0.366782 0.186372
H34   H     H_    0.936397 0.158846 0.557457 0.183544
H35   H     H_    0.032865 0.137995 0.628956 0.220319
H36   H     H_    0.888526 0.250249 0.392485 0.164266
H37   H     H_    0.350408 0.649872 0.048608 0.189618
H38   H     H_    0.895386 0.362678 0.377887 0.208943
H39   H     H_    0.677902 0.428103 0.455835 0.123450
H40   H     H_    0.776032 0.434509 0.446136 0.152678
O1    O     O_R   0.591180 0.447260 0.499980 -0.571203
O2    O     O_R   0.947190 0.908860 0.499960 -0.555710
O3    O     O_R   0.113220 0.939420 0.620930 -0.573026
O4    O     O_R   0.007690 0.939530 0.620920 -0.579682
O5    O     O_R   0.052810 0.090990 0.500040 -0.590161
O6    O     O_R   0.947280 0.091100 0.500030 -0.591119
O7    O     O_R   0.992310 0.060320 0.379080 -0.577334
O8    O     O_R   0.886780 0.060430 0.379070 -0.566788
O9    O     O_R   0.035070 0.373890 0.570020 -0.466360
O10   O     O_R   0.965090 0.443800 0.430050 -0.619246
O11   O     O_R   0.943830 0.465050 0.569970 -0.572021
O12   O     O_R   0.591140 0.552730 0.500040 -0.602193
O13   O     O_R   0.873850 0.534970 0.430000 -0.578098
O14   O     O_R   0.034910 0.556200 0.569950 -0.521072
O15   O     O_R   0.964930 0.626120 0.429980 -0.573848
O16   O     O_R   0.126150 0.465040 0.570000 -0.580693
O17   O     O_R   0.056170 0.534950 0.430030 -0.520264
O18   O     O_R   0.439570 0.507730 0.379050 -0.498648
O19   O     O_R   0.439520 0.613200 0.379110 -0.610012
O20   O     O_R   0.408860 0.447270 0.499960 -0.556795
O21   O     O_R   0.408820 0.552740 0.500020 -0.596703
O22   O     O_R   0.560480 0.386800 0.620890 -0.577657
O23   O     O_R   0.560430 0.492270 0.620950 -0.582237
O24   O     O_R   0.052720 0.908740 0.499970 -0.603412
N1    N     N_3   0.312067 0.837739 0.057147 -0.552947
H41   H     H_    0.295621 0.891184 0.004419 0.259788
H42   H     H_    0.369620 0.817698 0.089834 0.227738
N2    N     N_3   0.767094 0.640479 0.402232 -0.583715
H43   H     H_    0.720578 0.645101 0.350409 0.285007
H44   H     H_    0.755619 0.689180 0.398738 0.213446
N3    N     N_3   0.335170 0.813145 0.937771 -0.559936
H45   H     H_    0.390000 0.793166 0.988959 0.236349
H46   H     H_    0.334002 0.793218 0.902983 0.236213
S1    S     S_3+6 0.793723 0.083728 0.064880 0.003415
O25   O     O_2   0.876709 0.053536 0.115743 -0.290522
O26   O     O_2   0.765094 0.040887 0.118637 -0.287436
O27   O     O_3   0.755885 0.075978 0.982858 -0.516909
H47   H     H_    0.771822 0.021927 0.007995 0.385745
N4    N     N_3   0.159329 0.414464 0.447269 -0.554452
H48   H     H_    0.107228 0.428183 0.435563 0.232189
H49   H     H_    0.156529 0.439902 0.391553 0.313022
N5    N     N_3   0.138087 0.860712 0.945907 -0.537800
H50   H     H_    0.143475 0.852225 0.999299 0.264436
H51   H     H_    0.087490 0.852699 0.912979 0.227232
S2    S     S_3+6 0.231666 0.566039 0.317620 0.028390
O28   O     O_2   0.299776 0.519732 0.341694 -0.321001
O29   O     O_2   0.170302 0.534911 0.284558 -0.202517
O30   O     O_3   0.213113 0.653369 0.239070 -0.443409
H52   H     H_    0.257182 0.669438 0.262888 0.332870
S3    S     S_3+6 0.082664 0.612330 0.305785 0.116473
O31   O     O_2   0.085946 0.665123 0.231379 -0.160748
O32   O     O_2   0.057904 0.549625 0.298796 -0.318304
O33   O     O_3   0.014665 0.661105 0.295405 -0.455649
H53   H     H_    0.969353 0.675494 0.241196 0.359626
S4    S     S_3+6 0.166052 0.666069 0.405677 0.025532
O34   O     O_2   0.133185 0.734543 0.318750 -0.208125
O35   O     O_2   0.115331 0.666519 0.432911 -0.322810
O36   O     O_3   0.247533 0.672832 0.467847 -0.570405
H54   H     H_    0.234284 0.713811 0.471373 0.376495
N6    N     N_3   0.237724 0.555160 0.587770 -0.466092
H55   H     H_    0.286500 0.548619 0.639278 0.230334
H56   H     H_    0.200965 0.542004 0.606557 0.282650
N7    N     N_3   0.926266 0.892430 0.341112 -0.535487
H57   H     H_    0.922949 0.897807 0.289834 0.273657
H58   H     H_    0.937258 0.940760 0.338216 0.231817
N8    N     N_3   0.164676 0.685798 0.062628 -0.485079
H59   H     H_    0.111151 0.700484 0.011523 0.224275
H60   H     H_    0.185812 0.627954 0.097371 0.265193
N9    N     N_3   0.138559 0.674435 0.562917 -0.545503
H61   H     H_    0.131549 0.725034 0.512519 0.213148
H62   H     H_    0.190333 0.663060 0.614605 0.249391
N10   N     N_3   0.860014 0.831775 0.441514 -0.526926
H63   H     H_    0.823420 0.811089 0.459135 0.210333
H64   H     H_    0.841119 0.835893 0.385766 0.268066
S5    S     S_3+6 0.114786 0.601257 0.684181 -0.003104
O37   O     O_2   0.169791 0.617637 0.745772 -0.297723
O38   O     O_2   0.053988 0.585181 0.698978 -0.310591
O39   O     O_3   0.159911 0.524490 0.704448 -0.522850
H65   H     H_    0.177995 0.485237 0.763287 0.374807
S6    S     S_3+6 0.168979 0.243558 0.631275 0.033491
O40   O     O_2   0.170447 0.300307 0.651559 -0.222197
O41   O     O_2   0.183472 0.168052 0.703875 -0.228414
O42   O     O_3   0.239070 0.239529 0.618918 -0.526097
H66   H     H_    0.240522 0.197436 0.612765 0.347160
N11   N     N_3   0.975705 0.372818 0.351434 -0.563480
H67   H     H_    0.018723 0.340126 0.361489 0.231048
H68   H     H_    0.993015 0.416160 0.356494 0.261675
S7    S     S_3+6 0.003807 0.238083 0.656662 0.031645
O43   O     O_2   0.961649 0.301884 0.644167 -0.315067
O44   O     O_2   0.986619 0.169063 0.703875 -0.292882
O45   O     O_3   0.094137 0.226287 0.717344 -0.410904
H69   H     H_    0.101476 0.218979 0.768595 0.376771
N12   N     N_3   0.889006 0.291078 0.503794 -0.616351
H70   H     H_    0.867949 0.265736 0.541013 0.260422
H71   H     H_    0.859351 0.282069 0.456400 0.187708
S8    S     S_3+6 0.598673 0.542051 0.327035 -0.017359
O46   O     O_2   0.611380 0.535914 0.269079 -0.244549
O47   O     O_2   0.534968 0.512008 0.325083 -0.301580
O48   O     O_3   0.575988 0.632584 0.290984 -0.551025
H72   H     H_    0.539288 0.638632 0.303368 0.336386

loop_
_geom_bond_atom_site_label_1
_geom_bond_atom_site_label_2
_ccdc_geom_bond_type
C3    H30   S    
C58   C62   S    
Cu6   O10   S    
C63   C65   S    
Cu1   O20   S    
C28   H10   S    
Cu5   Cu6   S    
C46   O11   A    
S6    O41   D    
C35   C36   S    
C18   C26   S    
C24   C27   S    
C4    C8    S    
C61   H35   S    
C33   H20   S    
C49   C50   S    
C52   H25   S    
N3    H45   S    
C47   O14   A    
C41   C67   S    
O45   H69   S    
C11   H7    S    
C51   H28   S    
S3    O32   D    
C50   C54   S    
S7    O44   D    
C47   O15   A    
C45   N3    S    
C55   S5    S    
N5    H50   S    
C3    C68   S    
S1    O26   D    
Cu5   O16   S    
C2    C68   S    
C11   H2    S    
C33   H17   S    
C39   S3    S    
C5    C6    S    
C11   C14   S    
Cu5   O11   S    
C42   O5    A    
C38   N6    S    
S6    O42   S    
Cu3   O5    S    
C15   C16   S    
C38   H18   S    
C17   H5    S    
C33   C36   S    
C60   C62   S    
C18   C19   S    
S4    O34   D    
C27   H11   S    
C61   H34   S    
C24   C29   S    
C44   O9    A    
N6    H55   S    
S8    O46   D    
C32   H16   S    
C65   S7    S    
C2    C7    S    
C45   C56   S    
N7    H58   S    
S7    O45   S    
C40   O24   A    
Cu2   O19   S    
O27   H47   S    
S1    O27   S    
C48   O17   A    
C41   O4    A    
N4    H49   S    
C9    C10   S    
C43   O7    A    
C31   C36   S    
C51   C55   S    
C61   C62   S    
C10   H40   S    
C4    C45   S    
C20   C34   S    
Cu2   O12   S    
C51   H24   S    
S6    O40   D    
N11   H67   S    
C59   S6    S    
C21   C43   S    
Cu6   O17   S    
S4    O35   D    
C48   O16   A    
O42   H66   S    
C52   N10   S    
Cu6   O13   S    
C19   H9    S    
C16   H8    S    
N3    H46   S    
N8    H60   S    
C60   C64   S    
Cu3   O24   S    
C49   N7    S    
C20   C29   T    
C35   H19   S    
C44   C63   S    
C13   H3    S    
C59   H32   S    
C32   C37   S    
S7    O43   D    
Cu3   O3    S    
N12   H70   S    
C46   O13   A    
C60   H36   S    
S1    O25   D    
C4    C6    S    
O33   H53   S    
C56   N1    S    
C31   H15   S    
C58   C59   S    
O48   H72   S    
C57   H26   S    
C12   C66   S    
C22   C25   S    
C17   H6    S    
C49   H21   S    
C32   N4    S    
C51   C53   S    
C68   H37   S    
S5    O39   S    
C16   N2    S    
C9    C14   S    
C5    N8    S    
C37   C38   S    
C10   H1    S    
S2    O28   D    
C34   O22   A    
C9    S8    S    
Cu4   O6    S    
C45   C68   S    
S2    O29   D    
S2    O30   S    
N9    H61   S    
C22   H13   S    
C1    O12   A    
C37   C48   S    
C19   C28   S    
C58   H29   S    
C43   O8    A    
C60   H33   S    
Cu2   O23   S    
C47   C54   S    
N7    H57   S    
Cu1   O22   S    
S8    O47   D    
C12   O19   A    
Cu2   O21   S    
S4    O36   S    
C22   C24   S    
Cu6   O15   S    
C2    C5    S    
N10   H64   S    
C3    C4    S    
S8    O48   S    
C11   C16   S    
O36   H54   S    
N12   H71   S    
O30   H52   S    
C21   C30   T    
S5    O37   D    
C15   C17   S    
C42   C62   S    
C54   C55   S    
S3    O31   D    
C50   H23   S    
C31   H14   S    
C12   O18   A    
C23   O20   A    
Cu4   O8    S    
C18   C22   S    
C59   C63   S    
Cu3   O7    S    
C31   C32   S    
C6    C56   S    
C3    C5    S    
N1    H41   S    
C40   C53   S    
C26   C30   S    
C65   N12   S    
C23   O21   A    
C25   C27   S    
Cu5   O14   S    
C57   H27   S    
Cu1   O1    S    
Cu4   O2    S    
C34   O23   A    
C26   C28   S    
C33   C38   S    
C50   H22   S    
C13   C17   S    
C10   C15   S    
C58   H31   S    
C9    H39   S    
O39   H65   S    
N9    H62   S    
C19   C24   S    
C25   C26   S    
Cu3   Cu4   S    
C37   C39   S    
C2    C56   S    
C7    C66   T    
N1    H42   S    
C42   O6    A    
C40   O2    A    
Cu1   O18   S    
C49   C53   S    
C35   C39   S    
N5    H51   S    
C25   H12   S    
C44   O10   A    
N2    H44   S    
S3    O33   S    
Cu1   Cu2   S    
N6    H56   S    
C35   S2    S    
C64   H38   S    
C52   C57   S    
C13   H4    S    
C18   S1    S    
C63   C64   S    
C61   C65   S    
C8    C67   T    
C39   S4    S    
C23   C36   S    
C64   N11   S    
Cu4   O4    S    
C27   C28   S    
N11   H68   S    
C55   N9    S    
N2    H43   S    
C1    C14   S    
C1    O1    A    
C15   C46   S    
S5    O38   D    
N10   H63   S    
C13   C14   S    
C41   O3    A    
C6    N5    S    
N8    H59   S    
C52   C53   S    
N4    H48   S    
C54   C57   S    
Cu5   O9    S    
