data_mof_unit_66863.cif
_audit_creation_date              2013-03-05T15:57:21-0500
_audit_creation_method            fapswitch 2.2
_symmetry_space_group_name_H-M    P1
_symmetry_Int_Tables_number       1
_space_group_crystal_system       triclinic
_cell_length_a                    17.447144
_cell_length_b                    18.862575
_cell_length_c                    8.573211
_cell_angle_alpha                 89.634134
_cell_angle_beta                  101.53953
_cell_angle_gamma                 90.73479
_cell_volume                      2764.14906213

loop_
_atom_site_label
_atom_site_type_symbol
_atom_site_description
_atom_site_fract_x
_atom_site_fract_y
_atom_site_fract_z
_atom_type_partial_charge
P1    P     P_3+3 0.834140 0.419320 0.003900 1.031902
P2    P     P_3+3 0.834140 0.580680 0.503900 1.038048
P3    P     P_3+3 0.334140 0.919320 0.003900 1.038317
P4    P     P_3+3 0.334140 0.080680 0.503900 1.040176
O1    O     O_2   0.841960 0.394640 0.833410 -0.476667
O2    O     O_2   0.841960 0.605360 0.333410 -0.527833
O3    O     O_2   0.341960 0.894640 0.833410 -0.475716
O4    O     O_2   0.341960 0.105360 0.333410 -0.493177
O5    O     O_3   0.907950 0.463080 0.102990 -0.408736
O6    O     O_3   0.907950 0.536920 0.602990 -0.400143
O7    O     O_3   0.407950 0.963080 0.102990 -0.422194
O8    O     O_3   0.407950 0.036920 0.602990 -0.427504
O9    O     O_3   0.972780 0.329600 0.629720 -0.410748
O10   O     O_3   0.972780 0.670400 0.129720 -0.431422
O11   O     O_3   0.472780 0.829600 0.629720 -0.427938
O12   O     O_3   0.472780 0.170400 0.129720 -0.438939
O13   O     O_2   0.835815 0.281286 0.684058 -0.455061
O14   O     O_2   0.850959 0.739687 0.197591 -0.513564
O15   O     O_2   0.332815 0.785644 0.674772 -0.437199
O16   O     O_2   0.347987 0.235275 0.193223 -0.492241
O17   O     O_3   0.742731 0.460963 0.969396 -0.703302
O18   O     O_3   0.755421 0.520178 0.484764 -0.653215
O19   O     O_3   0.242229 0.960629 0.972044 -0.685584
O20   O     O_3   0.240671 0.040446 0.469512 -0.665257
O21   O     O_3   0.930736 0.185002 0.638277 -0.585811
O22   O     O_3   0.954590 0.816505 0.088489 -0.584211
O23   O     O_3   0.425892 0.686574 0.659876 -0.602234
O24   O     O_3   0.457278 0.315855 0.113884 -0.577080
H1    H     H_    0.018589 0.180761 0.509008 0.051456
H2    H     H_    0.055019 0.792394 0.005785 0.047331
H3    H     H_    0.513350 0.671499 0.537666 0.080063
H4    H     H_    0.572968 0.299422 0.105454 0.072427
C1    C     C_3   0.971346 0.075920 0.548535 0.108131
C2    C     C_3   0.010882 0.896052 0.922366 0.052455
C3    C     C_3   0.460996 0.571880 0.601151 0.090561
C4    C     C_3   0.527789 0.388633 0.956778 0.081841
H5    H     H_    0.505023 0.543904 0.551735 0.147818
H6    H     H_    0.558017 0.384717 0.854936 0.021776
H7    H     H_    0.009030 0.052181 0.473342 0.037601
H8    H     H_    0.048827 0.899309 0.833015 0.049456
H9    H     H_    0.995815 0.065538 0.676024 0.148505
H10   H     H_    0.036689 0.928388 0.026591 0.128366
H11   H     H_    0.476090 0.567523 0.732862 0.139017
H12   H     H_    0.564425 0.421762 0.047274 0.148088
P5    P     P_3+3 0.165830 0.418670 0.685610 1.027465
P6    P     P_3+3 0.165830 0.581330 0.185610 1.014603
P7    P     P_3+3 0.665830 0.918670 0.685610 1.027360
P8    P     P_3+3 0.665830 0.081330 0.185610 1.013358
P9    P     P_3+3 0.105078 0.269208 0.116485 1.039750
P10   P     P_3+3 0.106361 0.730537 0.619222 1.018966
P11   P     P_3+3 0.603488 0.768196 0.115577 1.032992
P12   P     P_3+3 0.605175 0.231458 0.616287 1.019097
O25   O     O_2   0.157990 0.394030 0.856030 -0.495644
O26   O     O_2   0.157990 0.605970 0.356030 -0.454665
O27   O     O_2   0.657990 0.894030 0.856030 -0.507655
O28   O     O_2   0.657990 0.105970 0.356030 -0.459386
O29   O     O_3   0.027110 0.329490 0.059550 -0.462163
O30   O     O_3   0.027110 0.670510 0.559550 -0.476466
O31   O     O_3   0.527110 0.829490 0.059550 -0.466951
O32   O     O_3   0.527110 0.170510 0.559550 -0.475485
O33   O     O_2   0.161349 0.279132 0.999975 -0.430116
O34   O     O_2   0.165099 0.719415 0.509210 -0.426897
O35   O     O_2   0.654261 0.770976 0.987069 -0.432896
O36   O     O_2   0.662032 0.222013 0.501594 -0.435450
O37   O     O_3   0.244899 0.478204 0.724530 -0.568912
O38   O     O_3   0.247261 0.526575 0.220244 -0.597670
O39   O     O_3   0.744657 0.978688 0.720508 -0.562832
O40   O     O_3   0.747975 0.027477 0.219584 -0.595879
O41   O     O_3   0.067971 0.183961 0.067321 -0.539197
O42   O     O_3   0.073143 0.815894 0.567455 -0.565435
O43   O     O_3   0.559169 0.684112 0.086555 -0.556260
O44   O     O_3   0.566464 0.314812 0.562549 -0.555040
C5    C     C_3   0.991237 0.179565 0.093908 0.343535
C6    C     C_3   0.992907 0.811601 0.503453 0.349953
C7    C     C_3   0.480726 0.690375 0.101926 0.315029
C8    C     C_3   0.484834 0.308419 0.541757 0.300355
H13   H     H_    0.950464 0.205736 0.994483 0.073178
H14   H     H_    0.981904 0.779922 0.392593 0.125409
H15   H     H_    0.446365 0.717685 0.995688 0.084998
H16   H     H_    0.460640 0.273019 0.440256 0.100377
H17   H     H_    0.986117 0.204571 0.208290 -0.067229
H18   H     H_    0.960407 0.787839 0.590179 -0.014591
H19   H     H_    0.476418 0.719188 0.212328 -0.035943
H20   H     H_    0.467264 0.289206 0.652266 -0.012567
C9    C     C_3   0.968011 0.101863 0.100076 -0.373448
C10   C     C_3   0.962603 0.885293 0.464411 -0.319754
C11   C     C_3   0.444727 0.617669 0.113783 -0.337637
C12   C     C_3   0.449380 0.379539 0.502121 -0.290150
H21   H     H_    0.380666 0.622045 0.103304 0.068952
H22   H     H_    0.385893 0.376173 0.503284 0.106048
H23   H     H_    0.906876 0.096884 0.118099 0.105788
H24   H     H_    0.898238 0.883948 0.453836 0.124554
H25   H     H_    0.973105 0.075657 0.987205 0.168284
H26   H     H_    0.978118 0.904326 0.351810 0.156156
H27   H     H_    0.458374 0.582301 0.020558 0.187669
H28   H     H_    0.458094 0.395414 0.382658 0.198269
C13   C     C_3   0.226443 0.455060 0.232918 0.293999
C14   C     C_3   0.221441 0.541692 0.783435 0.359411
C15   C     C_3   0.729030 0.955325 0.227199 0.290639
C16   C     C_3   0.722133 0.042442 0.779775 0.361697
H29   H     H_    0.227424 0.443159 0.359766 0.033371
H30   H     H_    0.209795 0.532064 0.903854 -0.016037
H31   H     H_    0.734486 0.940671 0.354074 0.042009
H32   H     H_    0.709606 0.032938 0.899630 -0.022222
H33   H     H_    0.168939 0.439362 0.160372 0.043701
H34   H     H_    0.168932 0.563535 0.703549 0.023435
H35   H     H_    0.670251 0.939780 0.160288 0.040498
H36   H     H_    0.670187 0.064789 0.699037 0.023733
C17   C     C_3   0.287472 0.410981 0.176437 -0.303484
C18   C     C_3   0.286885 0.596722 0.793261 -0.279695
C19   C     C_3   0.788449 0.914145 0.158261 -0.319332
C20   C     C_3   0.788721 0.096802 0.791650 -0.275035
H37   H     H_    0.346486 0.428449 0.236118 0.182411
H38   H     H_    0.344414 0.571249 0.828647 0.195109
H39   H     H_    0.848494 0.930187 0.215414 0.166749
H40   H     H_    0.846153 0.070942 0.821577 0.202922
H41   H     H_    0.278726 0.354118 0.201203 0.075687
H42   H     H_    0.283706 0.637735 0.882264 0.003492
H43   H     H_    0.779588 0.856558 0.174126 0.082156
H44   H     H_    0.787621 0.135869 0.886403 0.004183
H45   H     H_    0.283730 0.419599 0.047540 0.156675
H46   H     H_    0.282814 0.623730 0.676640 0.155411
H47   H     H_    0.782508 0.926880 0.030597 0.160408
H48   H     H_    0.784107 0.125686 0.677041 0.150048
Ba1   Ba    Ba6+2 0.000000 0.447380 0.844850 1.781825
Ba2   Ba    Ba6+2 0.000000 0.552620 0.344850 1.794188
Ba3   Ba    Ba6+2 0.500000 0.947380 0.844850 1.794315
Ba4   Ba    Ba6+2 0.500000 0.052620 0.344850 1.792051
C21   C     C_3   0.738263 0.516511 0.860590 0.248123
C22   C     C_3   0.735257 0.488243 0.334902 0.241590
C23   C     C_3   0.238350 0.019646 0.872658 0.281301
C24   C     C_3   0.236170 0.980351 0.375064 0.276570
H49   H     H_    0.772616 0.506268 0.768167 0.059818
H50   H     H_    0.782479 0.492478 0.266021 -0.024667
H51   H     H_    0.269760 0.011346 0.773824 0.035484
H52   H     H_    0.266158 0.988286 0.273455 0.021571
C25   C     C_3   0.653492 0.526938 0.777055 -0.014823
C26   C     C_3   0.660998 0.523741 0.244762 0.108068
C27   C     C_3   0.153055 0.035104 0.800374 -0.027703
C28   C     C_3   0.150253 0.961614 0.309966 -0.018746
H53   H     H_    0.632997 0.480688 0.699733 0.131255
H54   H     H_    0.650907 0.510359 0.118108 0.072733
H55   H     H_    0.129814 0.994888 0.708401 0.099611
H56   H     H_    0.128071 0.994674 0.203378 0.083097
H57   H     H_    0.614161 0.532991 0.862536 0.117263
H58   H     H_    0.665506 0.581831 0.254801 0.128027
H59   H     H_    0.116975 0.033594 0.893571 0.126621
H60   H     H_    0.114492 0.972280 0.400719 0.127948
O45   O     O_3   0.092100 0.536880 0.086720 -0.472113
O46   O     O_3   0.092100 0.463120 0.586720 -0.462843
O47   O     O_3   0.592100 0.036880 0.086720 -0.471851
O48   O     O_3   0.592100 0.963120 0.586720 -0.459566
P13   P     P_3+3 0.901971 0.736753 0.069385 1.014112
P14   P     P_3+3 0.894687 0.268221 0.575273 1.051946
P15   P     P_3+3 0.403191 0.237455 0.072562 1.037405
P16   P     P_3+3 0.394783 0.767579 0.576647 1.037051
C29   C     C_3   0.962182 0.154656 0.516107 0.331480
C30   C     C_3   0.998550 0.819401 0.966605 0.395343
C31   C     C_3   0.456105 0.648526 0.547730 0.292090
C32   C     C_3   0.517668 0.315449 0.025694 0.395058
H61   H     H_    0.923724 0.159341 0.397521 -0.044498
H62   H     H_    0.970155 0.793351 0.854715 -0.059509
H63   H     H_    0.418934 0.650293 0.427246 -0.021945
H64   H     H_    0.507743 0.278290 0.923614 -0.088630
H65   H     H_    0.467871 0.595091 0.232041 0.181883
H66   H     H_    0.478884 0.418658 0.590422 0.193599
H67   H     H_    0.007541 0.074939 0.199597 0.119365
H68   H     H_    0.988826 0.922128 0.561065 0.172527
C33   C     C_R   0.147160 0.673153 0.925996 -0.260241
C34   C     C_R   0.151083 0.328475 0.421594 -0.260919
C35   C     C_R   0.647985 0.173211 0.923600 -0.262212
C36   C     C_R   0.652915 0.830414 0.418286 -0.259871
C37   C     C_R   0.865779 0.320001 0.258041 -0.057700
C38   C     C_R   0.864563 0.681536 0.756153 0.017665
C39   C     C_R   0.367855 0.817404 0.256307 0.032168
C40   C     C_R   0.369300 0.183980 0.754534 0.021437
C41   C     C_R   0.785769 0.218961 0.302944 -0.072763
C42   C     C_R   0.786223 0.781464 0.801922 -0.048315
C43   C     C_R   0.287292 0.717036 0.303065 -0.100411
C44   C     C_R   0.291911 0.285035 0.799340 -0.062641
C45   C     C_R   0.843625 0.269854 0.361586 0.009883
C46   C     C_R   0.843435 0.730969 0.860640 0.055350
C47   C     C_R   0.346382 0.766779 0.360509 0.002853
C48   C     C_R   0.349858 0.235143 0.858189 0.050589
C49   C     C_R   0.820896 0.330738 0.104307 0.092818
C50   C     C_R   0.818827 0.669445 0.604405 0.062187
C51   C     C_R   0.320624 0.830467 0.105694 0.053877
C52   C     C_R   0.322651 0.171182 0.602867 0.061576
C53   C     C_R   0.759351 0.279483 0.044605 -0.027527
C54   C     C_R   0.761287 0.723176 0.541454 -0.042489
C55   C     C_R   0.258746 0.779493 0.047122 -0.060205
C56   C     C_R   0.262785 0.223335 0.542393 -0.048154
C57   C     C_R   0.244399 0.720119 0.145458 -0.023871
C58   C     C_R   0.248770 0.282247 0.641319 -0.021591
C59   C     C_R   0.744066 0.220839 0.144134 -0.040635
C60   C     C_R   0.745737 0.780828 0.641839 -0.016966
C61   C     C_R   0.186298 0.666840 0.083097 0.064805
C62   C     C_R   0.190178 0.334952 0.579559 0.075308
C63   C     C_R   0.686388 0.167108 0.081684 0.039875
C64   C     C_R   0.689588 0.835165 0.578307 0.074803
C65   C     C_R   0.158797 0.730114 0.830165 -0.019039
C66   C     C_R   0.161865 0.271736 0.325806 -0.029093
C67   C     C_R   0.659063 0.230496 0.827418 -0.020453
C68   C     C_R   0.664231 0.774111 0.321481 -0.012755
C69   C     C_R   0.211996 0.784416 0.892235 -0.068212
C70   C     C_R   0.215953 0.218665 0.387098 -0.035078
C71   C     C_R   0.712744 0.284457 0.889221 -0.079606
C72   C     C_R   0.718698 0.721489 0.382461 -0.038826
H69   H     H_    0.276932 0.675280 0.382790 0.134936
H70   H     H_    0.281625 0.326352 0.878108 0.115975
H71   H     H_    0.775802 0.177032 0.382609 0.130811
H72   H     H_    0.776269 0.822642 0.881277 0.111284
H73   H     H_    0.718822 0.328819 0.812816 0.129901
H74   H     H_    0.728643 0.680627 0.302858 0.126311
H75   H     H_    0.217827 0.828932 0.816513 0.171889
H76   H     H_    0.221768 0.174726 0.311048 0.162206
H77   H     H_    0.112500 0.629164 0.872808 0.080773
H78   H     H_    0.114588 0.371128 0.368668 0.078829
H79   H     H_    0.613895 0.128981 0.870285 0.084931
H80   H     H_    0.617686 0.873838 0.365334 0.077854
C73   C     C_2   0.772324 0.578720 0.952633 0.786945
O49   O     O_2   0.733422 0.621596 0.008719 -0.600093
O50   O     O_R   0.852414 0.580241 0.989320 -0.742216
H81   H     H_    0.872126 0.594273 0.100984 0.368354
C74   C     C_2   0.718607 0.409806 0.353345 0.870093
O51   O     O_2   0.692618 0.375335 0.234681 -0.647744
O52   O     O_R   0.725822 0.376203 0.501036 -0.682168
H82   H     H_    0.739448 0.409140 0.594762 0.301178
C75   C     C_2   0.275168 0.078339 0.973668 0.812290
O53   O     O_2   0.239132 0.114362 0.052050 -0.569844
O54   O     O_R   0.354734 0.083347 0.993090 -0.752628
H83   H     H_    0.379740 0.086767 0.107369 0.373317
C76   C     C_2   0.274301 0.924602 0.480794 0.833075
O55   O     O_2   0.240123 0.893819 0.572925 -0.559121
O56   O     O_R   0.353135 0.917751 0.489782 -0.757387
H84   H     H_    0.381198 0.913890 0.602544 0.373137
Br1   Br    Br    0.647130 0.611248 0.648715 -0.684279
Br2   Br    Br    0.570239 0.493091 0.324766 -0.644953
Br3   Br    Br    0.145467 0.128399 0.704074 -0.676457
Br4   Br    Br    0.138291 0.861632 0.256604 -0.653499
Br5   Br    Br    0.362828 0.526283 0.519740 -0.641607
Br6   Br    Br    0.428068 0.434574 0.889332 -0.655807
Br7   Br    Br    0.869801 0.032799 0.500007 -0.633502
Br8   Br    Br    0.910796 0.935436 0.838934 -0.673848
Br9   Br    Br    0.961549 0.370388 0.328190 -0.582888
Br10  Br    Br    0.962547 0.635899 0.819529 -0.554966
Br11  Br    Br    0.465768 0.865302 0.321646 -0.554079
Br12  Br    Br    0.464527 0.134634 0.821133 -0.554368

loop_
_geom_bond_atom_site_label_1
_geom_bond_atom_site_label_2
_geom_bond_distance
_ccdc_geom_bond_type
C15   H31   1.106351 S    
C66   C70   1.409909 A    
C12   H28   1.104057 S    
P1    O17   1.757390 S    
C14   C18   1.523330 S    
O16   P15   1.548062 D    
C29   H61   1.104113 S    
P3    O19   1.762760 S    
O50   H81   0.986898 S    
C2    H10   1.100966 S    
C28   Br4   1.942243 S    
C60   C64   1.453272 A    
C7    H19   1.110384 S    
C28   H60   1.111110 S    
P2    C50   1.933705 S    
C9    H23   1.110674 S    
C17   H41   1.106635 S    
C40   Br12  1.898981 S    
O8    Ba3   2.902382 S    
P2    O2    1.562439 D    
O23   C31   1.392344 S    
O26   Ba2   2.905923 S    
C27   H59   1.111722 S    
C73   O49   1.222938 D    
C57   C61   1.444741 A    
P1    O1    1.569028 D    
C32   H64   1.109630 S    
O38   C13   1.401712 S    
C25   H57   1.106917 S    
C3    H5    1.091540 S    
P1    Ba1   3.470395 S    
O37   C14   1.399877 S    
C20   H48   1.109689 S    
P3    O3    1.569028 D    
O29   Ba1   2.860602 S    
P4    O20   1.760967 S    
Ba2   O45   3.001825 S    
P3    Ba3   3.470395 S    
C4    Br6   1.934451 S    
C20   H40   1.102675 S    
O31   Ba3   2.860602 S    
P14   C45   1.870235 S    
O24   C32   1.414502 S    
P9    O29   1.774421 S    
P7    O48   1.630577 S    
C19   H43   1.106574 S    
P5    O46   1.630577 S    
C55   C69   1.415703 A    
C5    H17   1.110903 S    
P4    O4    1.562439 D    
C36   C68   1.392066 A    
O52   H82   1.007134 S    
C53   C59   1.447145 A    
O28   Ba4   2.905923 S    
C35   C63   1.391282 A    
P12   O32   1.765010 S    
Ba3   O47   2.893774 S    
P5    O37   1.748253 S    
C27   H55   1.110593 S    
O4    Ba4   2.926285 S    
C16   H32   1.105544 S    
C68   C72   1.407263 A    
C22   C74   1.517486 S    
P5    Ba1   3.486820 S    
C11   H27   1.107944 S    
P2    O18   1.757172 S    
O24   P15   1.743586 S    
O56   H84   0.995107 S    
O41   C5    1.403637 S    
C15   C19   1.516258 S    
C65   C69   1.406703 A    
P4    O8    1.625420 S    
O6    Ba1   2.902382 S    
C3    H11   1.109766 S    
C24   C76   1.461003 S    
C18   H38   1.104091 S    
C51   C55   1.450783 A    
C36   H80   1.072976 S    
O44   C8    1.403206 S    
O9    Ba1   2.870136 S    
C23   C75   1.469583 S    
C39   Br11  1.905881 S    
C69   H75   1.074303 S    
C37   C45   1.396190 A    
C43   C57   1.408796 A    
P9    O41   1.747918 S    
C17   H37   1.101441 S    
O18   C22   1.400338 S    
C35   C67   1.389928 A    
O15   P16   1.539397 D    
C38   C46   1.399764 A    
C22   H50   1.107374 S    
P11   O43   1.752684 S    
C6    H18   1.110483 S    
O13   P14   1.542157 D    
P7    O39   1.749966 S    
P16   C47   1.876407 S    
Ba4   O48   2.902356 S    
C26   H58   1.100224 S    
C40   C52   1.409594 A    
C33   C61   1.388005 A    
C59   C63   1.446287 A    
C10   H68   1.107351 S    
C10   H26   1.109825 S    
C8    H20   1.109900 S    
C16   H36   1.110535 S    
P9    O33   1.543339 D    
P4    Ba4   3.484342 S    
P8    C63   1.906558 S    
C27   Br3   1.933827 S    
P10   O30   1.771964 S    
P1    O5    1.614117 S    
C8    H16   1.111093 S    
O32   Ba4   2.869431 S    
P11   O35   1.545911 D    
C1    H9    1.108132 S    
O2    Ba2   2.926285 S    
C21   C73   1.469385 S    
C26   H54   1.095265 S    
C20   H44   1.103420 S    
C23   C27   1.524313 S    
C30   H62   1.103041 S    
P15   C48   1.887134 S    
P6    C61   1.895843 S    
H1    C29   1.107184 S    
C33   C65   1.385818 A    
C1    Br7   1.909443 S    
P5    C62   1.921157 S    
C14   H30   1.104835 S    
C42   C60   1.412369 A    
C6    C10   1.505271 S    
O19   C23   1.391606 S    
C34   H78   1.073072 S    
C43   C47   1.401334 A    
C56   C58   1.454608 A    
C50   C54   1.458994 A    
C55   C57   1.446675 A    
O42   C6    1.399157 S    
C75   O53   1.222447 D    
P12   O44   1.741835 S    
Ba3   O48   2.994944 S    
P8    Ba4   3.472558 S    
C13   C17   1.514471 S    
O20   C24   1.389502 S    
Ba4   O47   3.001825 S    
C9    H25   1.109171 S    
H2    C30   1.105107 S    
C24   H52   1.110712 S    
C34   C66   1.390474 A    
C37   C49   1.406789 A    
P6    O26   1.568325 D    
O12   P15   1.762802 S    
C74   O51   1.216416 D    
C25   H53   1.110367 S    
C42   H72   1.074143 S    
C2    Br8   1.907764 S    
C1    H7    1.108679 S    
P8    O40   1.742786 S    
C44   H70   1.074424 S    
C18   H42   1.099695 S    
C76   O56   1.369851 S    
O17   C21   1.390886 S    
O11   P16   1.773615 S    
C42   C46   1.405066 A    
O14   P13   1.548139 D    
O25   Ba1   2.929884 S    
O39   C16   1.399481 S    
C21   H49   1.104236 S    
C2    C30   1.515991 S    
C19   H39   1.103424 S    
C54   C72   1.416280 A    
C11   H65   1.098823 S    
C12   H22   1.110696 S    
C35   H79   1.068696 S    
C16   C20   1.528046 S    
C36   C64   1.395858 A    
C12   H66   1.106346 S    
C11   H21   1.107353 S    
O10   P13   1.770877 S    
P12   O36   1.542613 D    
Ba1   Ba2   4.712422 S    
P10   O34   1.542249 D    
C2    H8    1.109104 S    
P7    C64   1.920125 S    
C4    H12   1.094780 S    
P11   O31   1.766218 S    
C9    H67   1.108863 S    
Ba3   Ba4   4.712422 S    
P2    O6    1.625420 S    
P2    Ba2   3.484342 S    
C34   C62   1.394494 A    
C44   C58   1.413001 A    
P11   C68   1.871563 S    
C38   Br10  1.902353 S    
P7    O27   1.561741 D    
C18   H46   1.109151 S    
C5    C9    1.519051 S    
P10   C65   1.856236 S    
C37   Br9   1.903028 S    
O23   P16   1.729388 S    
C40   C48   1.405719 A    
C19   H47   1.103747 S    
C8    C12   1.493026 S    
P9    C66   1.868920 S    
C72   H74   1.071191 S    
C41   C59   1.409990 A    
O21   P14   1.740666 S    
C39   C47   1.401469 A    
C56   C70   1.418581 A    
P6    Ba2   3.472558 S    
C28   H56   1.109547 S    
O27   Ba3   2.929884 S    
C3    Br5   1.911016 S    
P3    C51   1.918262 S    
C49   C53   1.452418 A    
C67   C71   1.406353 A    
P6    O38   1.743080 S    
P7    Ba3   3.486820 S    
P1    C49   1.907232 S    
C24   C28   1.528921 S    
C15   H35   1.107167 S    
C43   H69   1.076618 S    
C23   H51   1.110160 S    
O5    Ba2   2.893809 S    
O10   Ba2   2.861319 S    
C52   C56   1.459704 A    
P12   C67   1.865416 S    
C70   H76   1.076033 S    
P4    C52   1.941538 S    
C39   C51   1.408013 A    
C4    H6    1.109948 S    
O7    Ba4   2.893809 S    
P10   O42   1.742703 S    
O40   C15   1.400621 S    
C13   H33   1.107327 S    
C75   O54   1.366773 S    
C71   H73   1.076575 S    
C10   H24   1.108379 S    
C41   H71   1.076709 S    
C38   C50   1.401804 A    
O43   C7    1.407450 S    
C54   C60   1.452512 A    
Ba2   O46   2.902356 S    
C17   H45   1.104966 S    
C58   C62   1.454820 A    
C14   H34   1.110479 S    
C53   C71   1.418314 A    
C41   C45   1.404110 A    
C74   O52   1.396004 S    
C26   Br2   1.928251 S    
C31   H63   1.104878 S    
O12   Ba4   2.861319 S    
C25   Br1   1.919718 S    
Ba1   O45   2.893774 S    
H3    C31   1.102551 S    
O9    P14   1.768258 S    
C1    C29   1.513808 S    
C3    C31   1.512050 S    
P3    O7    1.614117 S    
Ba1   O46   2.994944 S    
C4    C32   1.520172 S    
O21   C29   1.404025 S    
P5    O25   1.561741 D    
P6    O45   1.619139 S    
C21   C25   1.523460 S    
P13   C46   1.877782 S    
P8    O28   1.568325 D    
C73   O50   1.369515 S    
C33   H77   1.069442 S    
C6    H14   1.108390 S    
P8    O47   1.619139 S    
O1    Ba1   2.902573 S    
O54   H83   0.991694 S    
C5    H13   1.112351 S    
O22   P13   1.743614 S    
O11   Ba3   2.870136 S    
O3    Ba3   2.902573 S    
O22   C30   1.414920 S    
C7    H15   1.112557 S    
O30   Ba2   2.869431 S    
C13   H29   1.105835 S    
C7    C11   1.512387 S    
C44   C48   1.405925 A    
C76   O55   1.220779 D    
H4    C32   1.109398 S    
C22   C26   1.529449 S    
