data_mof_unit_41433.cif
_audit_creation_date              2012-12-10T17:02:30-0500
_audit_creation_method            fapswitch 2.2
_symmetry_space_group_name_H-M    P1
_symmetry_Int_Tables_number       1
_space_group_crystal_system       triclinic
_cell_length_a                    10.834818
_cell_length_b                    10.986778
_cell_length_c                    9.846655
_cell_angle_alpha                 111.764891
_cell_angle_beta                  98.720827
_cell_angle_gamma                 88.671625
_cell_volume                      1075.30252773

loop_
_atom_site_label
_atom_site_type_symbol
_atom_type_description
_atom_site_fract_x
_atom_site_fract_y
_atom_site_fract_z
_atom_type_partial_charge
C1    C     C_R   0.487362 0.253607 0.440163 0.799083
C2    C     C_R   0.509584 0.746537 0.559875 0.784760
C3    C     C_2   0.474408 0.113136 0.405813 0.007912
C4    C     C_2   0.513211 0.887481 0.594856 0.037177
C5    C     C_2   0.465972 0.071326 0.515736 -0.176429
C6    C     C_2   0.461273 0.932627 0.491369 -0.193243
C7    C     C_2   0.507359 0.511256 0.081852 0.038408
C8    C     C_2   0.488370 0.493545 0.919401 0.056609
C9    C     C_R   0.263341 0.512681 0.504553 0.795910
C10   C     C_R   0.736645 0.486913 0.496165 0.815722
C11   C     C_R   0.132492 0.266315 0.406656 -0.130918
C12   C     C_R   0.857763 0.722048 0.519561 -0.118418
C13   C     C_R   0.074971 0.145910 0.378698 -0.144507
C14   C     C_R   0.915594 0.844214 0.558211 -0.148911
C15   C     C_R   0.959026 0.142009 0.420495 -0.118193
C16   C     C_R   0.042983 0.861333 0.608614 -0.131695
C17   C     C_R   0.896481 0.257797 0.481149 0.126234
C18   C     C_R   0.114515 0.754483 0.611436 0.115139
C19   C     C_R   0.943189 0.378153 0.482204 0.032166
C20   C     C_R   0.060293 0.625044 0.547121 0.024462
C21   C     C_R   0.068942 0.384539 0.463175 0.061378
C22   C     C_R   0.928672 0.611771 0.518436 0.063018
C23   C     C_R   0.870944 0.490886 0.497695 -0.139970
C24   C     C_R   0.129670 0.508752 0.507603 -0.139975
Cu1   Cu    Cu3+1 0.521920 0.521810 0.644910 1.054566
Cu2   Cu    Cu3+1 0.478080 0.478190 0.355090 1.027013
H1    H     H_    0.226723 0.265215 0.383352 0.144815
H2    H     H_    0.757238 0.715559 0.491476 0.135859
H3    H     H_    0.124653 0.056373 0.335559 0.166144
H4    H     H_    0.859853 0.927691 0.560203 0.174108
H5    H     H_    0.416224 0.864926 0.384499 0.191785
H6    H     H_    0.466638 0.141381 0.627889 0.204613
H7    H     H_    0.414259 0.427064 0.844579 0.150198
H8    H     H_    0.575952 0.584026 0.158337 0.155251
N1    N     N_2   0.445130 0.445420 0.137360 -0.099271
N2    N     N_2   0.554870 0.554580 0.862640 -0.085116
O1    O     O_R   0.511700 0.332340 0.577400 -0.590936
O2    O     O_R   0.488300 0.667660 0.422600 -0.615927
O3    O     O_R   0.474680 0.295500 0.332650 -0.527530
O4    O     O_R   0.525320 0.704500 0.667350 -0.510355
O5    O     O_R   0.338170 0.518410 0.622370 -0.574975
O6    O     O_R   0.661830 0.481590 0.377630 -0.588320
O7    O     O_R   0.301150 0.481570 0.377630 -0.556490
O8    O     O_R   0.698850 0.518430 0.622370 -0.526362
H9    H     H_    0.084263 0.959809 0.656164 0.176073
H10   H     H_    0.922544 0.049735 0.416543 0.155114
I1    I     I_    0.785285 0.247856 0.635543 -0.310515
I2    I     I_    0.271873 0.809953 0.779040 -0.251472
I3    I     I_    0.607117 0.010988 0.807090 -0.211965
I4    I     I_    0.477148 0.983598 0.183150 -0.233626
I5    I     I_    0.706280 0.680173 0.987958 -0.169638
I6    I     I_    0.312250 0.298349 0.006122 -0.198756

loop_
_geom_bond_atom_site_label_1
_geom_bond_atom_site_label_2
_ccdc_geom_bond_type
C16   H9    S    
C1    C3    S    
C19   C23   A    
C9    C24   S    
C2    O4    A    
C10   C23   S    
C10   O6    A    
C2    O2    A    
C9    O5    A    
C11   H1    S    
C4    I3    S    
C5    H6    S    
Cu1   O1    S    
C6    H5    S    
C7    C8    S    
C16   C18   A    
C11   C13   A    
N2    I5    S    
C14   H4    S    
C2    C4    S    
Cu1   O8    S    
C13   H3    S    
C19   C21   A    
C3    I4    S    
C12   C14   A    
Cu2   O7    S    
C18   C20   A    
C8    H7    S    
C13   C15   A    
Cu1   O4    S    
C5    C6    S    
C7    H8    S    
C14   C16   A    
Cu2   O3    S    
C9    O7    A    
C1    O3    A    
Cu1   N2    S    
C10   O8    A    
C12   C22   A    
Cu2   N1    S    
Cu2   O6    S    
C4    C6    D    
C8    N2    D    
C21   C24   A    
Cu1   O5    S    
N1    I6    S    
C15   C17   A    
C20   C24   A    
C22   C23   A    
C17   C19   A    
C15   H10   S    
C12   H2    S    
Cu1   Cu2   S    
C7    N1    D    
C11   C21   A    
Cu2   O2    S    
C17   I1    S    
C20   C22   A    
C1    O1    A    
C3    C5    D    
C18   I2    S    
