data_mof_unit_7560.cif
_audit_creation_date              2012-12-10T19:03:07-0500
_audit_creation_method            fapswitch 2.2
_symmetry_space_group_name_H-M    P1
_symmetry_Int_Tables_number       1
_space_group_crystal_system       triclinic
_cell_length_a                    10.734258
_cell_length_b                    10.817497
_cell_length_c                    9.562859
_cell_angle_alpha                 90.338792
_cell_angle_beta                  90.000147
_cell_angle_gamma                 90.754876
_cell_volume                      1110.30239691

loop_
_atom_site_label
_atom_site_type_symbol
_atom_type_description
_atom_site_fract_x
_atom_site_fract_y
_atom_site_fract_z
_atom_type_partial_charge
C1    C     C_R   0.496341 0.262378 0.499575 0.789416
C2    C     C_3   0.878287 0.496947 0.498168 0.161294
C3    C     C_3   0.929605 0.617140 0.565847 -0.383127
C4    C     C_3   0.929155 0.489633 0.346426 -0.382480
C5    C     C_R   0.471321 0.064438 0.623713 0.118424
C6    C     C_R   0.481228 0.129256 0.498406 -0.093882
C7    C     C_R   0.472119 0.063490 0.371494 -0.228541
C8    C     C_R   0.472473 0.934591 0.371834 -0.221348
C9    C     C_R   0.481911 0.870687 0.499087 -0.102686
C10   C     C_R   0.471816 0.937064 0.624018 0.093068
C11   C     C_3   0.551741 0.933564 0.751402 -0.405312
C12   C     C_R   0.259903 0.498464 0.499792 0.744071
C13   C     C_3   0.549781 0.073640 0.752323 -0.492589
C14   C     C_R   0.566347 0.586853 0.074732 0.206913
C15   C     C_R   0.425806 0.420792 0.073787 -0.086017
C16   C     C_R   0.426019 0.420542 0.925002 -0.099106
C17   C     C_R   0.566088 0.588690 0.927465 0.241079
C18   C     C_3   0.704835 0.613169 0.926281 0.227416
C19   C     C_3   0.702171 0.606701 0.085188 -0.587013
C20   C     C_R   0.496785 0.737687 0.500079 0.803823
C21   C     C_R   0.740149 0.498271 0.499589 0.761309
C22   C     C_3   0.070611 0.385136 0.582461 -0.381859
C23   C     C_3   0.926694 0.384349 0.580873 -0.384522
C24   C     C_3   0.073250 0.617899 0.566289 -0.386838
C25   C     C_3   0.071694 0.487433 0.346845 -0.369943
C26   C     C_3   0.121980 0.497219 0.498943 0.171292
Cu1   Cu    Cu3+1 0.499990 0.499980 0.640670 0.942300
Cu2   Cu    Cu3+1 0.500010 0.500020 0.359330 0.928203
H1    H     H_    0.103960 0.389737 0.692610 0.165162
H2    H     H_    0.899174 0.572110 0.287047 0.163501
H3    H     H_    0.108782 0.699491 0.507352 0.151928
H4    H     H_    0.895322 0.699065 0.508193 0.148474
H5    H     H_    0.471845 0.110917 0.272059 0.161416
H6    H     H_    0.472384 0.885921 0.272520 0.166588
H7    H     H_    0.502993 0.891193 0.842175 0.206554
H8    H     H_    0.645010 0.896455 0.727086 0.248353
H9    H     H_    0.497725 0.112775 0.842452 0.195281
H10   H     H_    0.642698 0.116910 0.732710 0.197386
H11   H     H_    0.367531 0.354984 0.129068 0.131002
H12   H     H_    0.105209 0.297426 0.536100 0.146961
H13   H     H_    0.368015 0.354487 0.868856 0.138027
H14   H     H_    0.758373 0.538304 0.874458 0.095859
H15   H     H_    0.749968 0.523321 0.123808 0.178444
H16   H     H_    0.723598 0.693933 0.142467 0.196580
H17   H     H_    0.891536 0.296960 0.532119 0.150492
H18   H     H_    0.891578 0.386961 0.690356 0.159860
H19   H     H_    0.107412 0.627196 0.675811 0.169223
H20   H     H_    0.894994 0.623435 0.674356 0.190497
H21   H     H_    0.107952 0.565833 0.283009 0.168264
H22   H     H_    0.103677 0.400208 0.296815 0.159900
H23   H     H_    0.892220 0.405434 0.292302 0.163070
N1    N     N_R   0.500800 0.500930 0.147930 -0.178535
N2    N     N_R   0.500800 0.500890 0.852020 -0.213523
O1    O     O_R   0.500000 0.319640 0.618810 -0.581353
O2    O     O_R   0.500010 0.319680 0.381230 -0.587106
O3    O     O_R   0.317690 0.499960 0.618790 -0.589292
O4    O     O_R   0.317700 0.500000 0.381210 -0.591164
O5    O     O_R   0.499990 0.680320 0.618770 -0.559632
O6    O     O_R   0.500000 0.680360 0.381190 -0.582716
O7    O     O_R   0.682300 0.500000 0.618790 -0.586177
O8    O     O_R   0.682310 0.500040 0.381210 -0.583763
O9    O     O_3   0.733029 0.733211 0.876327 -0.574706
C27   C     C_3   0.857778 0.767261 0.909043 0.080071
H24   H     H_    0.923814 0.689812 0.893753 0.119475
H25   H     H_    0.864876 0.798852 0.019457 0.149611
C28   C     C_3   0.898879 0.875235 0.817859 -0.851608
H26   H     H_    0.843388 0.958219 0.843701 0.244663
H27   H     H_    0.998866 0.896966 0.836858 0.205846
H28   H     H_    0.885792 0.852205 0.705632 0.243739

loop_
_geom_bond_atom_site_label_1
_geom_bond_atom_site_label_2
_ccdc_geom_bond_type
C15   C16   A    
C14   C19   S    
C28   H27   S    
C1    O1    A    
C27   H25   S    
C6    C7    A    
C23   H17   S    
C22   H1    S    
C5    C10   A    
C7    H5    S    
C9    C10   A    
C9    C20   S    
C21   O8    A    
C22   H12   S    
Cu2   O8    S    
Cu1   O3    S    
C2    C21   S    
Cu1   N2    S    
C4    C25   S    
C3    C24   S    
C27   C28   S    
C4    H2    S    
C7    C8    A    
C23   H18   S    
C8    H6    S    
C15   N1    A    
C20   O6    A    
Cu2   N1    S    
C14   C17   A    
C15   H11   S    
C13   H10   S    
C12   O3    A    
C5    C6    A    
C2    C4    S    
C5    C13   S    
C11   H7    S    
C11   H8    S    
Cu2   O2    S    
C19   H15   S    
C17   C18   S    
C2    C3    S    
Cu1   O7    S    
C18   H14   S    
C1    O2    A    
C3    H4    S    
C24   C26   S    
C25   H21   S    
Cu1   O1    S    
C28   H28   S    
C10   C11   S    
C12   O4    A    
C4    H23   S    
C20   O5    A    
C27   H24   S    
C17   N2    A    
C3    H20   S    
C11   C13   S    
C28   H26   S    
C19   H16   S    
Cu2   O4    S    
C21   O7    A    
C18   C19   S    
C22   C26   S    
Cu2   O6    S    
C2    C23   S    
C16   N2    A    
C18   O9    S    
C24   H3    S    
C25   C26   S    
C25   H22   S    
C24   H19   S    
C13   H9    S    
C16   H13   S    
C22   C23   S    
C14   N1    A    
O9    C27   S    
C1    C6    S    
C12   C26   S    
C8    C9    A    
Cu1   Cu2   S    
Cu1   O5    S    
