data_mof_unit_27721.cif
_audit_creation_date              2012-12-11T15:14:39-0500
_audit_creation_method            fapswitch 2.2
_symmetry_space_group_name_H-M    P1
_symmetry_Int_Tables_number       1
_space_group_crystal_system       triclinic
_cell_length_a                    22.320289
_cell_length_b                    7.230552
_cell_length_c                    19.381614
_cell_angle_alpha                 89.997349
_cell_angle_beta                  98.46173
_cell_angle_gamma                 90.000136
_cell_volume                      3093.91029999

loop_
_atom_site_label
_atom_site_type_symbol
_atom_type_description
_atom_site_fract_x
_atom_site_fract_y
_atom_site_fract_z
_atom_type_partial_charge
O1    O     O_R   0.448470 0.506130 0.415700 -0.528027
O2    O     O_R   0.551530 0.006130 0.584300 -0.528024
O3    O     O_R   0.436320 0.174490 0.555800 -0.528979
O4    O     O_R   0.563680 0.674490 0.444200 -0.528977
C1    C     C_R   0.421373 0.343904 0.575463 0.708079
C2    C     C_R   0.578627 0.843908 0.424537 0.708080
O5    O     O_R   0.441350 0.176340 0.414480 -0.535764
O6    O     O_R   0.558650 0.676340 0.585520 -0.535769
O7    O     O_R   0.556600 0.007100 0.441970 -0.522865
O8    O     O_R   0.443400 0.507100 0.558030 -0.522863
C3    C     C_R   0.423258 0.346424 0.392767 0.696465
C4    C     C_R   0.576742 0.846419 0.607233 0.696464
O9    O     O_3   0.537810 0.339550 0.509190 -0.359774
O10   O     O_3   0.462190 0.839550 0.490810 -0.359772
V1    V     V_3+5 0.492990 0.064280 0.498300 1.538029
V2    V     V_3+5 0.507010 0.564280 0.501700 1.538026
C5    C     C_R   0.876165 0.970339 0.697435 -0.083669
C6    C     C_R   0.123838 0.470341 0.302561 -0.083676
C7    C     C_R   0.887360 0.939707 0.822273 -0.037938
C8    C     C_R   0.112639 0.439689 0.177728 -0.037944
C9    C     C_R   0.597265 0.791175 0.731986 -0.147107
C10   C     C_R   0.402739 0.291218 0.268012 -0.147107
C11   C     C_R   0.634127 0.767015 0.795252 -0.123533
C12   C     C_R   0.365878 0.267068 0.204747 -0.123532
C13   C     C_R   0.695689 0.803418 0.801701 -0.128673
C14   C     C_R   0.304314 0.303454 0.198298 -0.128672
C15   C     C_R   0.722395 0.872028 0.745052 0.060988
C16   C     C_R   0.277606 0.372040 0.254947 0.060988
C17   C     C_R   0.684268 0.903289 0.679435 -0.012430
C18   C     C_R   0.315733 0.403299 0.320563 -0.012430
C19   C     C_R   0.786209 0.908240 0.752239 0.046118
C20   C     C_R   0.213791 0.408238 0.247761 0.046122
C21   C     C_R   0.812728 0.949296 0.691725 0.031530
C22   C     C_R   0.187273 0.449296 0.308273 0.031527
C23   C     C_R   0.775610 0.980639 0.627613 0.147602
C24   C     C_R   0.224391 0.480641 0.372384 0.147602
C25   C     C_R   0.712059 0.978935 0.624019 0.048674
C26   C     C_R   0.287941 0.478938 0.375978 0.048675
C27   C     C_R   0.824842 0.907314 0.817862 -0.187651
C28   C     C_R   0.175156 0.407299 0.182139 -0.187646
C29   C     C_R   0.912702 0.966354 0.761778 -0.154233
C30   C     C_R   0.087300 0.466347 0.238219 -0.154232
C31   C     C_R   0.620594 0.855372 0.673193 -0.055278
C32   C     C_R   0.379408 0.355392 0.326806 -0.055274
H1    H     H_    0.721590 0.771164 0.851618 0.106192
H2    H     H_    0.278416 0.271212 0.148380 0.106190
C33   C     C_3   0.775122 0.806993 0.307688 0.202416
C34   C     C_3   0.224877 0.306999 0.692315 0.202414
C35   C     C_3   0.796608 0.993631 0.281029 0.155781
C36   C     C_3   0.203393 0.493638 0.718969 0.155782
C37   C     C_1   0.874743 0.940877 0.120510 -0.165828
C38   C     C_1   0.125258 0.440887 0.879490 -0.165829
C39   C     C_1   0.624695 0.851083 0.378920 -0.099662
C40   C     C_1   0.375305 0.351073 0.621080 -0.099661
C41   C     C_3   0.769572 0.726432 0.232930 -0.159335
C42   C     C_3   0.230426 0.226431 0.767074 -0.159341
C43   C     C_3   0.790541 0.913378 0.206705 0.025135
C44   C     C_3   0.209460 0.413379 0.793295 0.025137
C45   C     C_3   0.702769 0.793453 0.218091 -0.172755
C46   C     C_3   0.297230 0.293442 0.781911 -0.172757
C47   C     C_3   0.708949 0.873489 0.292539 0.033255
C48   C     C_3   0.291050 0.373484 0.707461 0.033255
C49   C     C_3   0.724291 0.980568 0.191139 -0.201270
C50   C     C_3   0.275710 0.480558 0.808859 -0.201271
C51   C     C_3   0.730012 0.059739 0.266088 0.156331
C52   C     C_3   0.269990 0.559736 0.733908 0.156332
C53   C     C_1   0.836517 0.930216 0.158997 0.022561
C54   C     C_1   0.163483 0.430223 0.841003 0.022560
C55   C     C_1   0.662850 0.858550 0.340251 0.089732
C56   C     C_1   0.337149 0.358540 0.659749 0.089734
H3    H     H_    0.703590 0.053259 0.143039 0.145449
H4    H     H_    0.296412 0.553241 0.856957 0.145449
H5    H     H_    0.786298 0.588755 0.219017 0.170657
H6    H     H_    0.213699 0.088754 0.780991 0.170650
O11   O     O_R   0.056650 0.288730 0.942060 -0.533587
O12   O     O_R   0.943350 0.788730 0.057940 -0.533590
O13   O     O_R   0.058660 0.616870 0.085540 -0.537041
O14   O     O_R   0.941340 0.116870 0.914460 -0.537045
C57   C     C_R   0.072775 0.448282 0.110324 0.681121
C58   C     C_R   0.927224 0.948287 0.889676 0.681119
O15   O     O_R   0.063700 0.618520 0.944220 -0.534068
O16   O     O_R   0.936300 0.118520 0.055780 -0.534065
O17   O     O_R   0.948460 0.787610 0.915680 -0.533311
O18   O     O_R   0.051540 0.287610 0.084320 -0.533314
C59   C     C_R   0.079020 0.450100 0.924830 0.710735
C60   C     C_R   0.920980 0.950096 0.075170 0.710736
O19   O     O_3   0.962230 0.453430 0.990860 -0.375289
O20   O     O_3   0.037770 0.953430 0.009140 -0.375289
V3    V     V_3+5 0.007010 0.728750 0.001700 1.446592
V4    V     V_3+5 0.992990 0.228750 0.998300 1.446595
H7    H     H_    0.961041 0.988280 0.764488 0.129006
H8    H     H_    0.038963 0.488281 0.235508 0.129007
I1    I     I_    0.815994 0.658938 0.397873 -0.167538
I2    I     I_    0.184002 0.158960 0.602133 -0.167541
I3    I     I_    0.692704 0.317426 0.292467 -0.400884
I4    I     I_    0.307299 0.817424 0.707525 -0.400873
H9    H     H_    0.664002 0.710412 0.192295 0.158454
H10   H     H_    0.335996 0.210393 0.807709 0.158450
I5    I     I_    0.815596 0.050841 0.536071 -0.215161
I6    I     I_    0.184404 0.550850 0.463921 -0.215163
H11   H     H_    0.898778 0.995929 0.652908 0.172397
H12   H     H_    0.101228 0.495943 0.347086 0.172399
H13   H     H_    0.807588 0.889803 0.866558 0.089531
H14   H     H_    0.192408 0.389781 0.133445 0.089531
H15   H     H_    0.549781 0.754640 0.728412 0.113338
H16   H     H_    0.450224 0.254693 0.271587 0.113337
H17   H     H_    0.614990 0.714139 0.839520 0.120456
H18   H     H_    0.385017 0.214211 0.160479 0.120456
I7    I     I_    0.666516 0.162659 0.548314 -0.267665
I8    I     I_    0.333483 0.662667 0.451675 -0.267671
I9    I     I_    0.871904 0.153409 0.329292 -0.237304
I10   I     I_    0.128098 0.653425 0.670702 -0.237299

loop_
_geom_bond_atom_site_label_1
_geom_bond_atom_site_label_2
_ccdc_geom_bond_type
C49   C51   S    
C41   C45   S    
C15   C17   A    
O1    C3    A    
O12   C60   A    
C39   C55   T    
C2    O7    A    
C33   C35   S    
C9    H15   S    
O14   V4    S    
O5    C3    A    
C18   C26   A    
C35   C51   S    
C52   I4    S    
C38   C59   S    
C23   C25   A    
C12   C14   A    
C4    C31   S    
C46   H10   S    
C6    C30   A    
C57   O18   A    
C8    C28   A    
O14   C58   A    
C35   C43   S    
C48   C56   S    
C46   C48   S    
C6    H12   S    
C5    H11   S    
O11   V4    S    
C9    C31   A    
O11   C59   A    
C10   C32   A    
C19   C27   A    
C19   C21   A    
C12   H18   S    
C26   I8    S    
C25   I7    S    
C38   C54   T    
O12   V3    S    
C35   I9    S    
O15   V3    S    
C34   C36   S    
O2    C4    A    
O6    V2    S    
C17   C31   A    
C18   C32   A    
O18   V4    S    
C43   C53   S    
C58   O17   A    
C23   I5    S    
C37   C60   S    
C43   C49   S    
O13   C57   A    
C44   C50   S    
O17   V3    S    
C45   C47   S    
C42   H6    S    
C48   C52   S    
C15   C19   A    
C36   C44   S    
C1    C40   S    
C16   C20   A    
O4    C2    A    
C5    C21   A    
C10   H16   S    
C42   C46   S    
C50   C52   S    
O4    V2    S    
C28   H14   S    
C6    C22   A    
C34   C48   S    
C40   C56   T    
C51   I3    S    
O6    C4    A    
C11   H17   S    
C36   I10   S    
C33   I1    S    
C3    C32   S    
C24   I6    S    
O1    V2    S    
C37   C53   T    
O2    V1    S    
C36   C52   S    
C7    C27   A    
C44   C54   S    
C29   H7    S    
C49   H3    S    
C34   I2    S    
C41   C43   S    
C45   H9    S    
C10   C12   A    
O19   V4    S    
C2    C39   S    
C24   C26   A    
C13   H1    S    
C20   C28   A    
O3    V1    S    
C33   C41   S    
C47   C55   S    
C34   C42   S    
C8    C57   S    
C45   C49   S    
O3    C1    A    
C33   C47   S    
C8    C30   A    
C27   H13   S    
O13   V3    S    
C13   C15   A    
C14   C16   A    
O16   V4    S    
C46   C50   S    
C9    C11   A    
O7    V1    S    
C16   C18   A    
O8    V2    S    
O16   C60   A    
O5    V1    S    
C21   C23   A    
C22   C24   A    
C42   C44   S    
C30   H8    S    
C50   H4    S    
C7    C58   S    
C5    C29   A    
C14   H2    S    
C41   H5    S    
C47   C51   S    
C1    O8    A    
C11   C13   A    
O20   V3    S    
O9    V2    S    
C17   C25   A    
O10   V1    S    
O15   C59   A    
C7    C29   A    
C20   C22   A    
