data_mof_unit_38486.cif
_audit_creation_date              2012-12-10T18:10:20-0500
_audit_creation_method            fapswitch 2.2
_symmetry_space_group_name_H-M    P1
_symmetry_Int_Tables_number       1
_space_group_crystal_system       triclinic
_cell_length_a                    10.758382
_cell_length_b                    9.530125
_cell_length_c                    15.844796
_cell_angle_alpha                 91.276075
_cell_angle_beta                  87.893276
_cell_angle_gamma                 89.822841
_cell_volume                      1623.03362674

loop_
_atom_site_label
_atom_site_type_symbol
_atom_type_description
_atom_site_fract_x
_atom_site_fract_y
_atom_site_fract_z
_atom_type_partial_charge
C1    C     C_R   0.259794 0.499944 0.500878 0.777906
C2    C     C_3   0.604914 0.404197 0.947600 -0.340967
C3    C     C_3   0.603796 0.403079 0.045219 -0.614620
C4    C     C_1   0.502129 0.503123 0.825008 0.010989
C5    C     C_1   0.497719 0.494165 0.175344 0.011452
C6    C     C_1   0.498968 0.495292 0.250915 -0.199827
C7    C     C_3   0.066555 0.585367 0.578516 -0.458520
C8    C     C_3   0.071135 0.346921 0.508078 -0.428693
C9    C     C_3   0.923427 0.599568 0.573726 0.424125
C10   C     C_3   0.927764 0.346073 0.517456 0.400076
C11   C     C_3   0.074820 0.561733 0.419130 -0.398913
C12   C     C_3   0.121279 0.498982 0.501626 0.056247
C13   C     C_3   0.877566 0.498000 0.502825 0.028484
C14   C     C_R   0.499963 0.498580 0.340541 0.796746
C15   C     C_3   0.931904 0.549398 0.416683 -0.612906
C16   C     C_3   0.628644 0.081966 0.497729 -0.279587
C17   C     C_3   0.626163 0.918296 0.513640 -0.345389
C18   C     C_3   0.438045 0.090411 0.582794 0.920424
C19   C     C_3   0.408101 0.919672 0.569019 0.907609
C20   C     C_3   0.441117 0.079529 0.426214 -0.352553
C21   C     C_3   0.460097 0.914252 0.419909 -0.258367
C22   C     C_R   0.739570 0.499549 0.500985 0.819666
C23   C     C_R   0.501254 0.501252 0.659573 0.851057
C24   C     C_3   0.517940 0.649485 0.052896 0.331058
C25   C     C_3   0.371375 0.437572 0.050130 0.321588
C26   C     C_3   0.372087 0.445784 0.951658 0.233924
C27   C     C_3   0.519595 0.652599 0.954453 0.225629
C28   C     C_1   0.502421 0.503457 0.749337 -0.186432
C29   C     C_3   0.496362 0.496630 0.083109 0.066746
C30   C     C_3   0.500157 0.501381 0.917503 0.062309
Cu1   Cu    Cu3+1 0.499860 0.642410 0.500040 0.964323
Cu2   Cu    Cu3+1 0.499860 0.357590 0.500040 0.975728
H1    H     H_    0.102052 0.674110 0.415582 0.199574
H2    H     H_    0.118423 0.505783 0.363094 0.165210
N1    N     N_3   0.500250 0.143650 0.501830 -0.170793
N2    N     N_3   0.500250 0.856350 0.501830 -0.167564
O1    O     O_R   0.317570 0.620260 0.500050 -0.538101
O2    O     O_R   0.317570 0.379740 0.500050 -0.550710
O3    O     O_R   0.499890 0.620310 0.379470 -0.585271
O4    O     O_R   0.499890 0.379690 0.379470 -0.600227
O5    O     O_R   0.682190 0.620260 0.500020 -0.609273
O6    O     O_R   0.682190 0.379740 0.500020 -0.578898
O7    O     O_R   0.499870 0.620210 0.620600 -0.526363
O8    O     O_R   0.499870 0.379790 0.620600 -0.497926
H3    H     H_    0.439064 0.718345 0.935656 0.096547
H4    H     H_    0.300465 0.523930 0.933374 0.103072
H5    H     H_    0.900942 0.708902 0.554560 0.049925
H6    H     H_    0.891196 0.274625 0.467435 0.048899
H7    H     H_    0.891896 0.653336 0.401559 0.189427
H8    H     H_    0.906893 0.474361 0.365257 0.178968
H9    H     H_    0.688094 0.134219 0.544046 0.235663
H10   H     H_    0.657550 0.896480 0.578005 0.173682
H11   H     H_    0.675429 0.102193 0.435277 0.143227
H12   H     H_    0.695181 0.867806 0.468710 0.174984
O9    O     O_3   0.526898 0.125811 0.646848 -0.592321
C31   C     C_3   0.530714 0.058412 0.725042 -0.350836
H13   H     H_    0.594515 0.967089 0.719013 0.179342
H14   H     H_    0.439011 0.030877 0.753177 0.188084
H15   H     H_    0.572886 0.132238 0.770818 0.191387
O10   O     O_3   0.428835 0.852668 0.646401 -0.612781
C32   C     C_3   0.322599 0.803998 0.692528 -0.276888
H16   H     H_    0.276812 0.717148 0.658437 0.199237
H17   H     H_    0.256580 0.888175 0.711094 0.122549
H18   H     H_    0.353932 0.760381 0.752469 0.142941
H19   H     H_    0.341782 0.108386 0.425475 0.168681
H20   H     H_    0.373559 0.862941 0.398903 0.207668
H21   H     H_    0.482793 0.124350 0.367653 0.180274
H22   H     H_    0.531033 0.889111 0.368758 0.158190
O11   O     O_3   0.327415 0.172101 0.597328 -0.605033
C33   C     C_3   0.291229 0.205787 0.682496 -0.300609
H23   H     H_    0.363896 0.259189 0.718495 0.231607
H24   H     H_    0.256203 0.113944 0.716646 0.117768
H25   H     H_    0.213063 0.281562 0.682868 0.146919
O12   O     O_3   0.286818 0.879904 0.539177 -0.597846
C34   C     C_3   0.182006 0.968525 0.549096 -0.425926
H26   H     H_    0.100843 0.910389 0.525510 0.165313
H27   H     H_    0.188087 0.060827 0.508627 0.198151
H28   H     H_    0.158181 0.994865 0.615544 0.179223
O13   O     O_3   0.422208 0.739054 0.087496 -0.536894
C35   C     C_3   0.470444 0.871084 0.111126 -0.335388
H29   H     H_    0.521575 0.920665 0.057391 0.159928
H30   H     H_    0.531684 0.861205 0.165750 0.151789
H31   H     H_    0.391901 0.941388 0.131094 0.189623
O14   O     O_3   0.268735 0.516577 0.085150 -0.538109
C36   C     C_3   0.195830 0.436313 0.141950 -0.325896
H32   H     H_    0.119730 0.503574 0.169557 0.192927
H33   H     H_    0.251472 0.398981 0.194827 0.151645
H34   H     H_    0.152685 0.345873 0.108771 0.141371
H35   H     H_    0.366866 0.324013 0.066814 0.104206
H36   H     H_    0.611825 0.681039 0.074978 0.112440
O15   O     O_3   0.350528 0.310339 0.915744 -0.592640
C37   C     C_3   0.223560 0.292600 0.899187 -0.375415
H37   H     H_    0.195731 0.362270 0.847699 0.161919
H38   H     H_    0.163512 0.312263 0.956826 0.181523
H39   H     H_    0.208749 0.182505 0.877810 0.183327
O16   O     O_3   0.636560 0.705572 0.925211 -0.579303
C38   C     C_3   0.620987 0.820570 0.872212 -0.391448
H40   H     H_    0.571091 0.908489 0.906205 0.166672
H41   H     H_    0.570848 0.788001 0.815038 0.187785
H42   H     H_    0.713987 0.859468 0.851524 0.183041
H43   H     H_    0.694814 0.441554 0.067478 0.202587
H44   H     H_    0.592874 0.293325 0.066903 0.194029
H45   H     H_    0.697217 0.440472 0.922898 0.217266
H46   H     H_    0.592317 0.295394 0.922452 0.200803
H47   H     H_    0.106790 0.691740 0.580033 0.164447
H48   H     H_    0.100800 0.284709 0.450461 0.128628
H49   H     H_    0.091451 0.533900 0.638035 0.179572
H50   H     H_    0.111851 0.295611 0.562385 0.212820
O17   O     O_3   0.864504 0.567394 0.652574 -0.524461
C39   C     C_3   0.854781 0.688250 0.705445 -0.344505
H51   H     H_    0.820623 0.656184 0.768995 0.225197
H52   H     H_    0.786193 0.763415 0.681133 0.148799
H53   H     H_    0.946507 0.739995 0.712639 0.136830
O18   O     O_3   0.886095 0.302149 0.598986 -0.504082
C40   C     C_3   0.910624 0.158532 0.612020 -0.363625
H54   H     H_    0.919211 0.093380 0.552866 0.115558
H55   H     H_    0.833453 0.115096 0.651671 0.192964
H56   H     H_    0.995896 0.148684 0.648556 0.165612

loop_
_geom_bond_atom_site_label_1
_geom_bond_atom_site_label_2
_ccdc_geom_bond_type
O9    C31   S    
C21   H20   S    
C20   H21   S    
C16   H9    S    
O18   C40   S    
C21   N2    S    
C36   H32   S    
C16   H11   S    
Cu1   O7    S    
C24   C27   S    
C19   N2    S    
C16   N1    S    
C5    C6    T    
C22   O5    A    
C40   H54   S    
C23   O7    A    
C31   H13   S    
C3    C29   S    
C18   C19   S    
C15   H8    S    
C32   H17   S    
C9    C13   S    
C39   H51   S    
C4    C28   T    
C14   O3    A    
C24   C29   S    
C20   N1    S    
C11   C15   S    
C31   H14   S    
C16   C17   S    
C40   H55   S    
C25   O14   S    
C7    H47   S    
C33   H23   S    
C17   N2    S    
Cu2   O2    S    
C18   N1    S    
C10   O18   S    
C1    O1    A    
C27   H3    S    
C18   O11   S    
C15   H7    S    
C27   C30   S    
C25   C29   S    
C27   O16   S    
C32   H16   S    
C1    C12   S    
C35   H31   S    
C8    H50   S    
C17   H10   S    
C38   H41   S    
C38   H40   S    
C5    C29   S    
C36   H33   S    
C9    O17   S    
C7    C12   S    
O12   C34   S    
Cu2   N1    S    
C20   H19   S    
C11   H1    S    
O14   C36   S    
C35   H30   S    
O15   C37   S    
C26   O15   S    
C37   H39   S    
C23   O8    A    
Cu1   O1    S    
C24   H36   S    
O10   C32   S    
C32   H18   S    
C34   H26   S    
C6    C14   S    
C24   O13   S    
Cu1   Cu2   S    
C2    H46   S    
C8    C12   S    
C40   H56   S    
O16   C38   S    
C33   H25   S    
C37   H38   S    
Cu2   O8    S    
C23   C28   S    
C34   H27   S    
C39   H53   S    
C1    O2    A    
C18   O9    S    
C3    H44   S    
C9    H5    S    
C13   C15   S    
C21   H22   S    
C10   H6    S    
C7    H49   S    
C38   H42   S    
C36   H34   S    
C7    C9    S    
Cu1   O5    S    
C11   H2    S    
C35   H29   S    
C10   C13   S    
C8    H48   S    
C11   C12   S    
C26   C30   S    
C19   O10   S    
C25   H35   S    
C31   H15   S    
C2    C30   S    
C2    C3    S    
C25   C26   S    
O17   C39   S    
C3    H43   S    
C22   O6    A    
C2    H45   S    
C37   H37   S    
Cu1   O3    S    
C13   C22   S    
Cu2   O4    S    
O11   C33   S    
C34   H28   S    
C39   H52   S    
C26   H4    S    
C14   O4    A    
O13   C35   S    
C20   C21   S    
C8    C10   S    
Cu2   O6    S    
Cu1   N2    S    
C19   O12   S    
C33   H24   S    
C17   H12   S    
C4    C30   S    
