data_mof_unit_34383.cif
_audit_creation_date              2013-03-05T15:42:24-0500
_audit_creation_method            fapswitch 2.2
_symmetry_space_group_name_H-M    P1
_symmetry_Int_Tables_number       1
_space_group_crystal_system       triclinic
_cell_length_a                    11.010594
_cell_length_b                    10.956186
_cell_length_c                    18.832396
_cell_angle_alpha                 90.104351
_cell_angle_beta                  89.669663
_cell_angle_gamma                 60.286126
_cell_volume                      1973.04860143

loop_
_atom_site_label
_atom_site_type_symbol
_atom_site_description
_atom_site_fract_x
_atom_site_fract_y
_atom_site_fract_z
_atom_type_partial_charge
O1    O     O_R   0.507340 0.255690 0.581430 -0.471073
O2    O     O_R   0.280360 0.527380 0.578910 -0.516774
C1    C     C_R   0.245257 0.641359 0.612291 0.541387
O3    O     O_R   0.260600 0.739610 0.584580 -0.518042
O4    O     O_R   0.532370 0.695050 0.573830 -0.477618
C2    C     C_R   0.655120 0.624045 0.599730 0.584265
O5    O     O_R   0.744850 0.503430 0.576380 -0.532253
O6    O     O_R   0.699080 0.276500 0.571950 -0.528611
C3    C     C_R   0.627535 0.228992 0.602769 0.587807
O7    O     O_R   0.498860 0.256520 0.419860 -0.541162
O8    O     O_R   0.272490 0.528150 0.429140 -0.510208
C4    C     C_R   0.280179 0.625733 0.392259 0.555308
O9    O     O_R   0.252110 0.740440 0.423010 -0.533922
O10   O     O_R   0.524510 0.695820 0.424050 -0.516032
C5    C     C_R   0.646270 0.621172 0.392426 0.543754
O11   O     O_R   0.736370 0.504260 0.414810 -0.533679
O12   O     O_R   0.691220 0.277270 0.422180 -0.499956
C6    C     C_R   0.610225 0.236181 0.393215 0.551719
Cr1   Cr    Cr6+3 0.392940 0.397950 0.502230 1.025629
Cr2   Cr    Cr6+3 0.398400 0.708500 0.501260 1.032000
Cr3   Cr    Cr6+3 0.708640 0.393530 0.496460 1.001637
O13   O     O_3   0.499990 0.499990 0.499980 -0.280364
C7    C     C_3   0.610757 0.840635 0.771744 0.075803
H1    H     H_    0.659028 0.908505 0.769726 0.208041
C8    C     C_3   0.578570 0.813979 0.694423 0.094747
H2    H     H_    0.469839 0.832420 0.693397 0.122772
H3    H     H_    0.870790 0.662172 0.646947 0.177605
C9    C     C_3   0.855851 0.639352 0.763484 0.048957
C10   C     C_3   0.656314 0.593211 0.801118 0.050586
C11   C     C_3   0.717883 0.695336 0.807187 0.030408
H4    H     H_    0.549969 0.646095 0.825254 0.120533
C12   C     C_3   0.677108 0.656589 0.673244 -0.035443
C13   C     C_3   0.833057 0.611612 0.685378 -0.226203
C14   C     C_3   0.641514 0.564595 0.722473 -0.276173
H5    H     H_    0.533144 0.586197 0.712856 0.091668
H6    H     H_    0.710789 0.451249 0.709486 0.186856
H7    H     H_    0.934818 0.538643 0.786307 0.232881
H8    H     H_    0.898587 0.496886 0.674874 0.132884
H9    H     H_    0.445517 0.258524 0.701052 0.175660
C15   C     C_R   0.696583 0.154399 0.823436 0.037795
C16   C     C_R   0.814853 0.122915 0.779278 0.042588
C17   C     C_R   0.797767 0.131219 0.704215 0.011831
C18   C     C_R   0.549481 0.218639 0.721143 -0.120800
C19   C     C_R   0.565341 0.209208 0.792955 -0.137704
C20   C     C_R   0.948058 0.087006 0.806250 0.001733
C21   C     C_R   0.058302 0.061407 0.760525 -0.091639
C22   C     C_R   0.042883 0.060592 0.687636 -0.136214
C23   C     C_R   0.915391 0.089982 0.659597 -0.079556
C24   C     C_R   0.662967 0.181511 0.675856 0.048457
H10   H     H_    0.967988 0.089144 0.861931 0.186962
H11   H     H_    0.474324 0.235934 0.825066 0.165810
H12   H     H_    0.158605 0.036784 0.781540 0.175920
H13   H     H_    0.130782 0.035177 0.652687 0.132340
H14   H     H_    0.910763 0.079817 0.602754 0.149072
H15   H     H_    0.276782 0.805328 0.705104 0.123140
C25   C     C_R   0.202769 0.651083 0.839734 0.044193
C26   C     C_R   0.207600 0.536575 0.802266 0.030232
C27   C     C_R   0.202513 0.539469 0.726764 0.035209
C28   C     C_R   0.247687 0.735285 0.730431 -0.157940
C29   C     C_R   0.237541 0.740021 0.803820 -0.155851
C30   C     C_R   0.213450 0.421693 0.838682 -0.103418
C31   C     C_R   0.201084 0.316797 0.802554 0.265989
C32   C     C_R   0.178658 0.328765 0.729550 -0.075667
C33   C     C_R   0.177579 0.439262 0.692016 -0.173686
C34   C     C_R   0.220093 0.643952 0.690059 0.027435
H16   H     H_    0.234577 0.409152 0.895033 0.107894
H17   H     H_    0.248408 0.819372 0.832637 0.117706
H18   H     H_    0.163356 0.251336 0.701385 0.153646
H19   H     H_    0.153740 0.445128 0.636316 0.148754
H20   H     H_    0.571323 0.868330 0.324578 0.150082
C35   C     C_R   0.663533 0.675839 0.171281 -0.014282
C36   C     C_R   0.724664 0.539786 0.200099 0.019538
C37   C     C_R   0.756164 0.523883 0.272736 0.036015
C38   C     C_R   0.618405 0.776661 0.290283 -0.149518
C39   C     C_R   0.621552 0.792145 0.216991 -0.124208
C40   C     C_R   0.776259 0.419047 0.156219 -0.080113
C41   C     C_R   0.886868 0.292114 0.178685 -0.110065
C42   C     C_R   0.936183 0.279954 0.247376 -0.146437
C43   C     C_R   0.870780 0.393088 0.294455 -0.092050
C44   C     C_R   0.677793 0.642694 0.318826 -0.009109
H21   H     H_    0.740946 0.425834 0.102047 0.142208
H22   H     H_    0.586997 0.896102 0.195851 0.181915
H23   H     H_    0.935794 0.203763 0.142368 0.132122
H24   H     H_    0.024731 0.182163 0.264491 0.134293
H25   H     H_    0.920947 0.378279 0.345200 0.140775
H26   H     H_    0.848193 0.090937 0.323250 0.132807
C45   C     C_R   0.654152 0.162720 0.174052 0.001386
C46   C     C_R   0.518766 0.235640 0.202061 0.023949
C47   C     C_R   0.502027 0.233055 0.275814 0.033648
C48   C     C_R   0.756123 0.127477 0.290425 -0.153828
C49   C     C_R   0.771464 0.104589 0.218692 -0.146806
C50   C     C_R   0.400518 0.296644 0.157351 -0.085871
C51   C     C_R   0.271425 0.323548 0.182580 -0.079036
C52   C     C_R   0.255021 0.306626 0.254072 -0.074887
C53   C     C_R   0.366314 0.266095 0.300610 -0.064230
C54   C     C_R   0.623358 0.192650 0.319801 0.008723
H27   H     H_    0.408977 0.315895 0.101664 0.121954
H28   H     H_    0.876823 0.039718 0.198360 0.155466
H29   H     H_    0.183495 0.359595 0.146982 0.125122
H30   H     H_    0.154601 0.327237 0.274218 0.109114
H31   H     H_    0.341792 0.250022 0.353804 0.148895
H32   H     H_    0.092121 0.564750 0.336699 0.131881
C55   C     C_R   0.162173 0.662339 0.178462 0.014727
C56   C     C_R   0.254784 0.708682 0.199403 0.008327
C57   C     C_R   0.268118 0.725551 0.271969 -0.016791
C58   C     C_R   0.136231 0.607016 0.299010 -0.144172
C59   C     C_R   0.096417 0.620631 0.228864 -0.156275
C60   C     C_R   0.310683 0.764722 0.149851 -0.137485
C61   C     C_R   0.328049 0.876665 0.169916 -0.048045
C62   C     C_R   0.315958 0.914346 0.241102 0.224153
C63   C     C_R   0.301971 0.829373 0.292290 -0.106319
C64   C     C_R   0.228948 0.651589 0.320337 0.018154
H33   H     H_    0.320033 0.737601 0.093960 0.129213
H34   H     H_    0.015486 0.596751 0.213806 0.137828
H35   H     H_    0.351008 0.934067 0.130316 0.145994
H36   H     H_    0.306868 0.856710 0.346371 0.154375
O14   O     O_R   0.089570 0.825450 0.930590 -0.530829
O15   O     O_R   0.818700 0.054260 0.929860 -0.507030
C65   C     C_R   0.705177 0.099643 0.895499 0.566169
O16   O     O_R   0.606310 0.077010 0.915520 -0.504728
O17   O     O_R   0.646730 0.806540 0.917560 -0.461724
C66   C     C_R   0.750531 0.708911 0.882715 0.629945
O18   O     O_R   0.837290 0.593240 0.915240 -0.453945
O19   O     O_R   0.065320 0.635310 0.931580 -0.512686
C67   C     C_R   0.123476 0.702320 0.907300 0.559773
O20   O     O_R   0.068470 0.828620 0.091850 -0.529149
O21   O     O_R   0.799150 0.057200 0.079350 -0.513648
C68   C     C_R   0.675957 0.107489 0.103083 0.533789
O22   O     O_R   0.585220 0.080180 0.076770 -0.526584
O23   O     O_R   0.627170 0.809480 0.067050 -0.511767
C69   C     C_R   0.696846 0.690981 0.097965 0.534169
O24   O     O_R   0.816200 0.596410 0.076500 -0.514791
O25   O     O_R   0.045770 0.638240 0.081070 -0.522529
C70   C     C_R   0.094846 0.707734 0.111273 0.531126
Cr4   Cr    Cr6+3 0.937880 0.938320 0.007620 1.014624
Cr5   Cr    Cr6+3 0.625560 0.937220 0.994510 1.045841
Cr6   Cr    Cr6+3 0.938080 0.625010 0.001190 1.035543
O26   O     O_3   0.833840 0.833520 0.001110 -0.274639
O27   O     O_3   0.486206 0.918754 0.811219 -0.666444
H37   H     H_    0.430161 0.870975 0.808723 0.303841
O28   O     O_3   0.209781 0.202493 0.837510 -0.678333
H38   H     H_    0.225479 0.209805 0.888767 0.325898
N1    N     N_R   0.585000 0.912183 0.643692 0.074499
O29   O     O_R   0.471630 0.003851 0.611910 -0.338434
O30   O     O_R   0.702648 0.906957 0.628133 -0.409579
O31   O     O_3   0.329222 0.028043 0.259757 -0.736251
H39   H     H_    0.314877 0.043139 0.311768 0.302366
O32   O     O_3   0.911328 0.730734 0.769773 -0.745170
H40   H     H_    0.877747 0.799482 0.730497 0.352534
N2    N     N_R   0.737781 0.460326 0.839073 0.082410
O33   O     O_R   0.867128 0.373868 0.821753 -0.367300
O34   O     O_R   0.681031 0.428805 0.891522 -0.359737

loop_
_geom_bond_atom_site_label_1
_geom_bond_atom_site_label_2
_geom_bond_distance
_ccdc_geom_bond_type
Cr4   O26   1.987638 S    
C2    C12   1.479892 S    
C45   C46   1.395495 A    
O25   Cr6   1.969807 S    
C51   C52   1.382377 A    
H15   C28   1.078115 S    
C6    C54   1.444549 S    
C16   C17   1.424267 A    
C5    C44   1.474455 S    
C43   H25   1.078187 S    
C36   C40   1.414608 A    
C68   O22   1.278563 A    
C48   C49   1.367670 A    
O4    Cr2   1.968216 S    
C58   C64   1.392916 A    
C20   C21   1.393988 A    
H3    C13   1.108786 S    
C23   H14   1.080167 S    
C4    O9    1.273005 A    
O8    Cr1   1.959883 S    
C10   C11   1.573824 S    
C9    H7    1.101435 S    
C7    O27   1.410049 S    
C55   C70   1.430228 S    
O21   Cr4   1.962647 S    
C45   C49   1.407035 A    
O4    C2    1.279245 A    
N1    O29   1.301187 A    
C58   C59   1.379170 A    
C41   H23   1.082298 S    
C5    O11   1.244852 A    
C21   H12   1.076644 S    
C56   C60   1.413037 A    
C60   C61   1.383911 A    
C14   H5    1.111422 S    
C62   C63   1.401217 A    
C56   C57   1.396984 A    
C10   N2    1.466887 S    
O15   C65   1.273870 A    
O28   H38   0.991686 S    
C30   H16   1.082077 S    
C46   C50   1.415229 A    
C29   H17   1.080204 S    
O6    C3    1.276963 A    
H20   C38   1.082687 S    
C7    H1    1.108396 S    
C63   H36   1.070264 S    
C51   H29   1.082659 S    
C30   C31   1.398427 A    
C22   H13   1.082697 S    
C8    C12   1.564466 S    
C57   C63   1.414094 A    
C28   C29   1.384754 A    
C49   H28   1.083525 S    
C38   C44   1.387930 A    
Cr3   O13   1.996066 S    
C8    N1    1.467614 S    
C45   C68   1.435051 S    
C50   H27   1.082641 S    
O6    Cr3   1.953190 S    
C27   C33   1.416767 A    
C1    C34   1.486548 S    
O1    Cr1   2.079534 S    
C9    O32   1.412884 S    
C38   C39   1.393280 A    
C7    C11   1.588243 S    
O10   Cr2   1.961214 S    
O19   Cr6   1.957066 S    
Cr1   O13   1.986671 S    
O1    C3    1.273298 A    
O32   H40   0.990062 S    
Cr5   O26   1.996573 S    
H26   C48   1.084384 S    
C42   C43   1.394574 A    
C18   C24   1.391675 A    
H9    C18   1.074323 S    
O24   Cr6   2.075353 S    
C41   C42   1.386734 A    
O11   Cr3   2.073167 S    
C10   C14   1.539536 S    
O12   Cr3   1.963392 S    
C25   C29   1.386645 A    
O16   Cr5   2.072103 S    
C12   C14   1.555567 S    
C60   H33   1.083549 S    
C47   C53   1.427267 A    
C18   C19   1.362162 A    
C59   H34   1.084752 S    
C31   C32   1.393123 A    
C42   H24   1.082457 S    
O22   Cr5   2.084225 S    
C27   C34   1.430627 A    
O23   C69   1.278122 A    
C22   C23   1.383512 A    
C52   H30   1.079268 S    
O7    Cr1   2.084799 S    
O27   H37   0.988683 S    
O12   C6    1.303169 A    
C37   C43   1.424343 A    
C3    C24   1.457708 S    
C17   C23   1.411906 A    
C33   H19   1.077053 S    
C40   C41   1.387561 A    
C48   C54   1.381059 A    
O17   C66   1.287580 A    
C19   H11   1.075738 S    
C15   C16   1.430914 A    
C57   C64   1.420216 A    
Cr2   O13   1.984157 S    
C9    C13   1.548293 S    
O25   C70   1.266911 A    
N2    O34   1.301301 A    
C25   C26   1.415925 A    
C31   O28   1.376853 S    
C1    O3    1.280995 A    
O14   Cr4   2.083561 S    
C4    C64   1.443891 S    
O31   H39   0.991695 S    
N1    O30   1.299681 A    
C21   C22   1.384659 A    
C32   H18   1.081889 S    
O9    Cr2   2.087823 S    
O2    Cr1   1.965223 S    
O10   C5    1.312623 A    
O23   Cr5   1.951387 S    
C36   C37   1.402960 A    
C40   H21   1.083368 S    
O20   Cr4   2.085252 S    
C65   O16   1.285249 A    
C39   H22   1.083655 S    
C26   C30   1.407826 A    
C2    O5    1.270580 A    
Cr6   O26   1.984161 S    
O18   Cr6   2.091488 S    
C13   H8    1.112682 S    
C12   C13   1.552274 S    
C47   C54   1.447312 A    
C9    C11   1.556066 S    
O2    C1    1.272753 A    
C8    H2    1.111277 S    
C35   C36   1.407862 A    
C10   H4    1.110729 S    
O5    Cr3   2.085732 S    
C69   O24   1.267476 A    
C28   C34   1.404636 A    
C35   C39   1.409239 A    
C26   C27   1.423109 A    
C20   H10   1.075150 S    
O7    C6    1.235568 A    
C11   C66   1.494207 S    
C50   C51   1.381793 A    
C37   C44   1.437428 A    
H32   C58   1.083637 S    
C14   H6    1.114224 S    
C7    C8    1.561501 S    
O17   Cr5   1.965198 S    
C52   C53   1.393302 A    
C61   H35   1.082931 S    
C17   C24   1.411120 A    
C35   C69   1.457325 S    
C32   C33   1.397977 A    
O3    Cr2   2.082859 S    
C53   H31   1.073369 S    
C15   C19   1.388844 A    
C15   C65   1.469274 S    
C46   C47   1.402242 A    
O20   C70   1.262526 A    
C25   C67   1.481603 S    
C61   C62   1.388092 A    
C55   C56   1.403679 A    
C16   C20   1.414637 A    
N2    O33   1.299276 A    
C55   C59   1.398425 A    
C66   O18   1.305081 A    
C62   O31   1.369607 S    
O14   C67   1.283875 A    
O15   Cr4   1.963801 S    
O21   C68   1.262728 A    
O8    C4    1.313159 A    
O19   C67   1.273583 A    
