data_mof_unit_68545.cif
_audit_creation_date              2012-12-10T16:55:47-0500
_audit_creation_method            fapswitch 2.2
_symmetry_space_group_name_H-M    P1
_symmetry_Int_Tables_number       1
_space_group_crystal_system       triclinic
_cell_length_a                    8.044903
_cell_length_b                    8.834516
_cell_length_c                    10.631491
_cell_angle_alpha                 91.928796
_cell_angle_beta                  85.496589
_cell_angle_gamma                 94.23921
_cell_volume                      750.921516948

loop_
_atom_site_label
_atom_site_type_symbol
_atom_type_description
_atom_site_fract_x
_atom_site_fract_y
_atom_site_fract_z
_atom_type_partial_charge
C1    C     C_R   0.544993 0.793506 0.493959 0.953995
C2    C     C_3   0.488888 0.468649 0.880055 -0.255904
C3    C     C_3   0.344262 0.394904 0.057527 -0.485739
C4    C     C_3   0.630080 0.537668 0.959165 -0.413097
C5    C     C_2   0.566557 0.957309 0.486584 -0.382718
C6    C     C_2   0.432283 0.041974 0.497869 -0.380919
C7    C     C_3   0.513352 0.858353 0.977273 0.116409
C8    C     C_3   0.665288 0.857200 0.878223 -0.478457
C9    C     C_3   0.670109 0.975061 0.777973 -0.859310
C10   C     C_3   0.304781 0.161596 0.845201 0.100057
C11   C     C_3   0.173402 0.052364 0.914018 -0.382899
C12   C     C_R   0.454733 0.206244 0.500707 0.897839
C13   C     C_3   0.118157 0.920947 0.826667 -0.937887
C14   C     C_3   0.065756 0.512281 0.944604 0.096979
C15   C     C_3   0.994110 0.499205 0.815474 -0.357270
C16   C     C_3   0.911276 0.343451 0.781784 -0.847394
C17   C     C_3   0.725267 0.183119 0.111527 0.109060
C18   C     C_3   0.849394 0.136790 0.202168 -0.375411
C19   C     C_3   0.849769 0.964680 0.210455 -0.909275
C20   C     C_R   0.497673 0.487886 0.742108 0.898303
C21   C     C_R   0.496647 0.491617 0.260211 0.944974
C22   C     C_3   0.353784 0.534849 0.972536 0.457052
C23   C     C_3   0.614724 0.396708 0.039742 0.429820
C24   C     C_3   0.495851 0.610508 0.044579 0.469270
C25   C     C_3   0.474347 0.325939 0.961386 0.385945
C26   C     C_3   0.488135 0.473967 0.128046 -0.215540
H1    H     H_    0.239522 0.329190 0.109711 0.159405
H2    H     H_    0.765902 0.950014 0.700721 0.235388
H3    H     H_    0.704642 0.088101 0.816582 0.296526
H4    H     H_    0.338601 0.119124 0.748372 0.165931
H5    H     H_    0.249250 0.269200 0.829095 0.136093
H6    H     H_    0.221134 0.008100 0.999499 0.241365
H7    H     H_    0.062574 0.113073 0.949196 0.196434
H8    H     H_    0.041849 0.962607 0.754509 0.250996
H9    H     H_    0.044668 0.832603 0.882429 0.280746
H10   H     H_    0.227207 0.868324 0.777470 0.278336
H11   H     H_    0.978711 0.562905 0.016811 0.182104
H12   H     H_    0.746529 0.606802 0.951756 0.175932
H13   H     H_    0.075189 0.395814 0.975612 0.165320
H14   H     H_    0.913412 0.590615 0.801449 0.177130
H15   H     H_    0.093516 0.521739 0.745477 0.289046
H16   H     H_    0.991296 0.250658 0.792899 0.228883
H17   H     H_    0.882549 0.336287 0.681880 0.284293
H18   H     H_    0.794974 0.322212 0.840382 0.286984
H19   H     H_    0.744834 0.116377 0.022918 0.178706
H20   H     H_    0.596692 0.158487 0.156883 0.134666
H21   H     H_    0.977468 0.182816 0.170725 0.219012
H22   H     H_    0.814084 0.184303 0.297427 0.261940
H23   H     H_    0.693599 0.008578 0.476518 0.190744
H24   H     H_    0.721520 0.913982 0.234851 0.303375
H25   H     H_    0.931025 0.936796 0.284934 0.266590
H26   H     H_    0.899749 0.914347 0.119574 0.266165
H27   H     H_    0.061411 0.491459 0.294751 0.230715
H28   H     H_    0.118076 0.334375 0.370374 0.220195
H29   H     H_    0.094584 0.748995 0.601541 0.188234
H30   H     H_    0.895849 0.683781 0.619782 0.207374
H31   H     H_    0.305133 0.990857 0.508624 0.182908
H32   H     H_    0.504568 0.972169 0.018884 0.210597
H33   H     H_    0.398670 0.831649 0.929059 0.208783
H34   H     H_    0.781551 0.869877 0.926971 0.232474
H35   H     H_    0.659042 0.751815 0.820292 0.226419
H36   H     H_    0.547723 0.970806 0.737712 0.280362
N1    N     N_2   0.950320 0.457950 0.465730 -0.020097
N2    N     N_2   0.049680 0.542050 0.534270 -0.065754
N3    N     N_3   0.021310 0.400622 0.352722 -0.379943
N4    N     N_3   0.000255 0.688462 0.555458 -0.354422
O1    O     O_R   0.389250 0.738570 0.508410 -0.613525
O2    O     O_3   0.452118 0.178724 0.910324 -0.694400
O3    O     O_3   0.215174 0.609008 0.938081 -0.668242
O4    O     O_3   0.757822 0.337329 0.083139 -0.655417
O5    O     O_R   0.610750 0.261430 0.491590 -0.619054
O6    O     O_R   0.678390 0.711620 0.486450 -0.620673
O7    O     O_R   0.321610 0.288380 0.513550 -0.656489
O8    O     O_R   0.355460 0.513510 0.697030 -0.630133
O9    O     O_R   0.644540 0.486490 0.302970 -0.570483
O10   O     O_R   0.644600 0.486560 0.675070 -0.633379
O11   O     O_R   0.355400 0.513440 0.324930 -0.649051
O12   O     O_3   0.521670 0.764063 0.081878 -0.669860
Zn1   Zn    Zn3+2 0.306940 0.517990 0.514670 0.923681
Zn2   Zn    Zn3+2 0.693060 0.482010 0.485330 0.959187

loop_
_geom_bond_atom_site_label_1
_geom_bond_atom_site_label_2
_ccdc_geom_bond_type
C21   C26   S    
N1    N3    S    
C23   O4    S    
C18   H21   S    
C7    C8    S    
H28   N3    S    
C1    C5    S    
C17   H19   S    
C13   H9    S    
C6    C12   S    
C5    C6    D    
C4    C24   S    
C15   C16   S    
C20   O10   A    
C18   C19   S    
C23   C26   S    
C1    O1    A    
C14   H13   S    
C10   H5    S    
C8    C9    S    
C2    C22   S    
H27   N3    S    
O9    Zn2   S    
C16   H18   S    
C22   O3    S    
C9    H3    S    
C8    H35   S    
C17   O4    S    
C12   O7    A    
C6    H31   S    
C5    H23   S    
C25   O2    S    
C19   H26   S    
C7    H33   S    
O5    Zn2   S    
N1    Zn2   S    
O11   Zn1   S    
C1    O6    A    
C2    C20   S    
C9    H36   S    
C11   H7    S    
O1    Zn1   S    
C17   H20   S    
C15   H15   S    
C13   H10   S    
C4    C23   S    
N2    N4    S    
C2    C4    S    
C10   H4    S    
C3    C25   S    
C17   C18   S    
O7    Zn1   S    
C20   O8    A    
C16   H17   S    
C7    O12   S    
C24   O12   S    
C12   O5    A    
C4    H12   S    
C11   H6    S    
O8    Zn1   S    
C14   O3    S    
C22   C24   S    
C16   H16   S    
H29   N4    S    
C7    H32   S    
C3    C26   S    
O10   Zn2   S    
C24   C26   S    
C18   H22   S    
C10   O2    S    
C21   O9    A    
C3    H1    S    
C13   H8    S    
O6    Zn2   S    
C8    H34   S    
C14   H11   S    
C11   C13   S    
C19   H24   S    
H30   N4    S    
N2    Zn1   S    
C2    C25   S    
C23   C25   S    
C15   H14   S    
C10   C11   S    
N1    N2    D    
C19   H25   S    
C21   O11   A    
C14   C15   S    
C3    C22   S    
C9    H2    S    
