data_mof_unit_35332.cif
_audit_creation_date              2012-10-26T21:03:35-0400
_audit_creation_method            fapswitch 2.2
_symmetry_space_group_name_H-M    P1
_symmetry_Int_Tables_number       1
_space_group_crystal_system       triclinic
_cell_length_a                    15.981045
_cell_length_b                    14.766099
_cell_length_c                    10.883579
_cell_angle_alpha                 88.466592
_cell_angle_beta                  88.638557
_cell_angle_gamma                 89.657639
_cell_volume                      2566.6007484

loop_
_atom_site_label
_atom_site_type_symbol
_atom_type_description
_atom_site_fract_x
_atom_site_fract_y
_atom_site_fract_z
_atom_type_partial_charge
C1    C     C_R   0.341271 0.500257 0.491816 0.560615
C2    C     C_R   0.419400 0.952823 0.522018 0.027776
C3    C     C_R   0.495245 0.902560 0.500388 -0.028313
C4    C     C_R   0.422304 0.049631 0.521385 0.081836
C5    C     C_R   0.572492 0.047170 0.479946 0.088099
C6    C     C_R   0.498140 0.097064 0.500670 -0.004386
C7    C     C_1   0.497834 0.802503 0.500121 0.099592
C8    C     C_1   0.499377 0.197411 0.500332 0.110285
C9    C     C_R   0.496923 0.501789 0.262002 0.573949
C10   C     C_R   0.496817 0.498665 0.738237 0.595289
C11   C     C_R   0.353248 0.577261 0.123473 0.064471
C12   C     C_R   0.659097 0.499827 0.500370 0.529135
C13   C     C_R   0.338689 0.516631 0.883971 0.064296
C14   C     C_R   0.275193 0.580754 0.066170 0.143515
C15   C     C_R   0.267233 0.547058 0.949511 0.145843
C16   C     C_R   0.418865 0.515017 0.938968 -0.008809
C17   C     C_R   0.423432 0.533647 0.065267 -0.012950
C18   C     C_R   0.497313 0.507057 0.128064 0.019580
C19   C     C_R   0.494335 0.494753 0.872525 0.018105
C20   C     C_R   0.570562 0.478755 0.063372 -0.023830
C21   C     C_R   0.570050 0.476463 0.933690 -0.031732
C22   C     C_R   0.956005 0.579058 0.506646 -0.137996
C23   C     C_R   0.956845 0.415400 0.483265 0.160179
C24   C     C_R   0.043147 0.579377 0.502513 -0.141129
C25   C     C_R   0.912752 0.497598 0.497445 0.008243
C26   C     C_R   0.087556 0.498248 0.489034 0.011097
C27   C     C_3   0.651334 0.458637 0.132252 -0.255134
C28   C     C_3   0.700692 0.545888 0.151259 -0.305500
C29   C     C_3   0.792518 0.525200 0.176366 -0.447784
C30   C     C_3   0.649819 0.453213 0.859929 -0.245975
C31   C     C_3   0.658236 0.350422 0.843416 -0.289111
C32   C     C_3   0.740731 0.326321 0.778565 -0.451126
C33   C     C_3   0.652409 0.899352 0.451831 -0.226593
C34   C     C_R   0.044607 0.415709 0.479260 0.164572
C35   C     C_3   0.691656 0.863917 0.571214 -0.287392
C36   C     C_3   0.768616 0.805262 0.544528 -0.451873
C37   C     C_3   0.332063 0.911634 0.546310 -0.241505
C38   C     C_3   0.320857 0.808323 0.548495 -0.302072
C39   C     C_3   0.229578 0.782224 0.573502 -0.463417
C40   C     C_1   0.823143 0.499243 0.500637 -0.087667
C41   C     C_1   0.177150 0.500140 0.487704 -0.091554
C42   C     C_1   0.252160 0.500544 0.488350 -0.069575
C43   C     C_1   0.748103 0.499689 0.501204 -0.055166
C44   C     C_R   0.571345 0.950856 0.478282 0.030589
Cu1   Cu    Cu3+1 0.500000 0.589220 0.500000 0.963836
Cu2   Cu    Cu3+1 0.500000 0.410780 0.500000 0.969485
H1    H     H_    0.075958 0.642915 0.510170 0.114230
H2    H     H_    0.745263 0.251750 0.769165 0.143946
H3    H     H_    0.794475 0.349268 0.832410 0.153266
H4    H     H_    0.743902 0.358555 0.685396 0.165393
H5    H     H_    0.654972 0.313894 0.933854 0.154459
H6    H     H_    0.605974 0.325602 0.788327 0.196016
H7    H     H_    0.651196 0.488067 0.768403 0.147096
H8    H     H_    0.706155 0.480007 0.903737 0.141874
H9    H     H_    0.357165 0.697781 0.206736 0.218516
H10   H     H_    0.315640 0.612914 0.294810 0.227633
H11   H     H_    0.288391 0.428443 0.767636 0.224515
H12   H     H_    0.922266 0.642399 0.516999 0.117591
H13   H     H_    0.300194 0.536652 0.713175 0.226951
H14   H     H_    0.214757 0.686281 0.146477 0.219022
H15   H     H_    0.189942 0.582207 0.207459 0.227514
H16   H     H_    0.170602 0.482099 0.872088 0.225045
H17   H     H_    0.186927 0.589858 0.817371 0.221496
H18   H     H_    0.875973 0.320872 0.551757 0.223954
H19   H     H_    0.874666 0.336543 0.397031 0.223948
H20   H     H_    0.127155 0.337057 0.386273 0.232276
H21   H     H_    0.127604 0.322058 0.541130 0.229445
H22   H     H_    0.645564 0.137873 0.385090 0.234326
H23   H     H_    0.824316 0.587658 0.204811 0.154422
H24   H     H_    0.661092 0.132496 0.538804 0.233775
H25   H     H_    0.353488 0.139463 0.619792 0.238702
H26   H     H_    0.336176 0.142845 0.466455 0.241120
H27   H     H_    0.751019 0.745229 0.491576 0.166519
H28   H     H_    0.816585 0.844980 0.491254 0.152286
H29   H     H_    0.796040 0.781272 0.632442 0.143913
H30   H     H_    0.710288 0.922184 0.626925 0.174305
H31   H     H_    0.645650 0.822757 0.626313 0.171961
H32   H     H_    0.640246 0.842289 0.390218 0.136496
H33   H     H_    0.698549 0.942710 0.400422 0.179506
H34   H     H_    0.824375 0.500312 0.091843 0.153222
H35   H     H_    0.207430 0.807668 0.663801 0.157798
H36   H     H_    0.189297 0.810601 0.499955 0.149875
H37   H     H_    0.223905 0.707257 0.575461 0.150119
H38   H     H_    0.339816 0.781024 0.457788 0.183534
H39   H     H_    0.358345 0.776912 0.623169 0.186527
H40   H     H_    0.308636 0.936175 0.636637 0.172157
H41   H     H_    0.290020 0.940206 0.474862 0.172196
H42   H     H_    0.797972 0.472533 0.250354 0.161084
H43   H     H_    0.697770 0.591423 0.068414 0.164857
H44   H     H_    0.672531 0.582509 0.230109 0.179631
H45   H     H_    0.639129 0.424404 0.222586 0.162982
H46   H     H_    0.690906 0.408583 0.083800 0.142787
N1    N     N_1   0.500000 0.276710 0.500000 -0.201696
N2    N     N_3   0.346210 0.099822 0.542620 -0.653743
N3    N     N_1   0.500000 0.723290 0.500000 -0.206306
N4    N     N_3   0.363298 0.629157 0.231208 -0.585563
N5    N     N_3   0.328439 0.484192 0.763210 -0.602279
N6    N     N_3   0.202586 0.618993 0.125792 -0.589593
N7    N     N_3   0.185836 0.547895 0.896246 -0.587769
N8    N     N_3   0.913588 0.331218 0.472795 -0.585146
N9    N     N_3   0.089057 0.331766 0.465552 -0.582060
N10   N     N_3   0.650502 0.093929 0.461545 -0.651827
O1    O     O_R   0.380310 0.575320 0.500020 -0.495192
O2    O     O_R   0.619690 0.575320 0.499980 -0.499637
O3    O     O_R   0.380310 0.424640 0.499960 -0.470217
O4    O     O_R   0.619690 0.424640 0.500040 -0.503998
O5    O     O_R   0.500000 0.575360 0.319640 -0.463337
O6    O     O_R   0.500000 0.575360 0.680360 -0.491834
O7    O     O_R   0.500000 0.424670 0.319580 -0.509577
O8    O     O_R   0.500000 0.424670 0.680420 -0.488311

loop_
_geom_bond_atom_site_label_1
_geom_bond_atom_site_label_2
_ccdc_geom_bond_type
C11   N4    S    
C41   C42   T    
C10   O6    A    
H15   N6    S    
C31   H6    S    
H25   N2    S    
Cu1   Cu2   S    
C30   H8    S    
Cu2   N1    S    
C28   C29   S    
Cu1   O2    S    
C24   C26   A    
C12   O2    A    
C12   C43   S    
C3    C7    S    
C25   C40   S    
C38   C39   S    
C11   C14   A    
C33   H32   S    
Cu2   O3    S    
C29   H42   S    
H17   N7    S    
Cu1   O1    S    
C26   C34   A    
C40   C43   T    
C35   C36   S    
C16   C17   A    
C22   C25   A    
C27   H45   S    
C28   H43   S    
H22   N10   S    
C1    O1    A    
Cu1   O6    S    
H26   N2    S    
C23   N8    S    
C32   H2    S    
H20   N9    S    
C14   N6    S    
C29   H23   S    
C9    O7    A    
C3    C44   A    
C30   H7    S    
C35   H30   S    
C34   N9    S    
C38   H39   S    
C37   H40   S    
C39   H35   S    
C4    C6    A    
C31   H5    S    
C33   H33   S    
C6    C8    S    
C35   H31   S    
C2    C4    A    
C37   C38   S    
C36   H29   S    
C9    C18   S    
C31   C32   S    
C10   C19   S    
C23   C34   A    
H11   N5    S    
C17   C18   A    
C27   H46   S    
C32   H4    S    
C36   H28   S    
C4    N2    S    
C5    C44   A    
C30   C31   S    
C13   C15   A    
H13   N5    S    
C22   C24   A    
C13   C16   A    
Cu1   N3    S    
H21   N9    S    
H10   N4    S    
C5    N10   S    
C11   C17   A    
C19   C21   A    
C33   C44   S    
C37   H41   S    
C8    N1    T    
C39   H36   S    
C15   N7    S    
H9    N4    S    
H19   N8    S    
C22   H12   S    
H24   N10   S    
C20   C27   S    
C9    O5    A    
C7    N3    T    
C21   C30   S    
H14   N6    S    
C24   H1    S    
Cu2   O8    S    
C2    C3    A    
C38   H38   S    
C12   O4    A    
C2    C37   S    
C5    C6    A    
C29   H34   S    
C16   C19   A    
Cu2   O4    S    
C33   C35   S    
C10   O8    A    
C18   C20   A    
C23   C25   A    
C13   N5    S    
C32   H3    S    
C36   H27   S    
C39   H37   S    
H16   N7    S    
C1    C42   S    
H18   N8    S    
C20   C21   A    
Cu2   O7    S    
C27   C28   S    
C14   C15   A    
C28   H44   S    
Cu1   O5    S    
C26   C41   S    
C1    O3    A    
