data_mof_unit_26960.cif
_audit_creation_date              2012-12-10T19:02:44-0500
_audit_creation_method            fapswitch 2.2
_symmetry_space_group_name_H-M    P1
_symmetry_Int_Tables_number       1
_space_group_crystal_system       triclinic
_cell_length_a                    9.602524
_cell_length_b                    10.865249
_cell_length_c                    13.852447
_cell_angle_alpha                 91.622237
_cell_angle_beta                  85.021732
_cell_angle_gamma                 91.279901
_cell_volume                      1438.96268535

loop_
_atom_site_label
_atom_site_type_symbol
_atom_type_description
_atom_site_fract_x
_atom_site_fract_y
_atom_site_fract_z
_atom_type_partial_charge
C1    C     C_R   0.500875 0.737316 0.503617 0.842899
C2    C     C_1   0.464940 0.513119 0.785844 -0.105991
C3    C     C_R   0.375883 0.932430 0.525748 -0.081897
C4    C     C_R   0.501186 0.869954 0.517704 -0.144479
C5    C     C_R   0.625209 0.937548 0.528278 -0.301223
C6    C     C_R   0.624506 0.066979 0.532480 0.498474
C7    C     C_R   0.498907 0.128790 0.518591 -0.203209
C8    C     C_R   0.374324 0.059217 0.525657 -0.176785
C9    C     C_3   0.250132 0.057547 0.467902 0.496901
C10   C     C_3   0.252262 0.918429 0.468321 1.017077
C11   C     C_R   0.936174 0.480923 0.415910 -0.070254
C12   C     C_R   0.477583 0.502211 0.682814 0.792812
C13   C     C_R   0.917320 0.542474 0.578820 0.401361
C14   C     C_R   0.065477 0.538427 0.579448 0.619031
C15   C     C_R   0.083398 0.480892 0.415489 -0.004049
C16   C     C_3   0.090274 0.368857 0.349880 0.763344
C17   C     C_3   0.932426 0.373693 0.347452 0.969754
C18   C     C_R   0.498899 0.262124 0.504047 0.822214
C19   C     C_R   0.522645 0.500668 0.317157 0.840063
C20   C     C_1   0.536805 0.501955 0.213923 -0.057045
C21   C     C_2   0.559119 0.498752 0.021683 0.350603
C22   C     C_2   0.448568 0.536371 0.977471 0.373476
C23   C     C_1   0.455970 0.524288 0.872557 -0.076152
C24   C     C_1   0.548705 0.501895 0.126931 -0.070885
Cu1   Cu    Cu3+1 0.359330 0.500020 0.500000 1.105090
Cu2   Cu    Cu3+1 0.640670 0.499980 0.500000 1.056220
H1    H     H_    0.723712 0.891413 0.528093 0.182985
H2    H     H_    0.272857 0.095776 0.394635 0.099940
N1    N     N_R   0.852140 0.499070 0.499400 -0.236189
N2    N     N_R   0.148050 0.499110 0.499400 -0.222712
O1    O     O_R   0.381190 0.680360 0.500000 -0.516368
O2    O     O_R   0.618770 0.680320 0.499990 -0.598617
O3    O     O_R   0.364410 0.500000 0.637850 -0.518013
O4    O     O_R   0.602000 0.499960 0.637840 -0.534869
O5    O     O_R   0.381230 0.319680 0.500010 -0.536127
O6    O     O_R   0.618810 0.319640 0.500000 -0.489407
O7    O     O_R   0.398000 0.500040 0.362160 -0.535298
O8    O     O_R   0.635590 0.500000 0.362150 -0.543568
O9    O     O_3   0.332149 0.582239 0.034151 -0.581937
C25   C     C_3   0.220444 0.610565 0.979076 0.066098
H3    H     H_    0.186004 0.527803 0.937496 0.151452
H4    H     H_    0.251683 0.686247 0.928627 0.165388
C26   C     C_3   0.096974 0.653032 0.047195 -0.704570
H5    H     H_    0.126481 0.737596 0.088171 0.263663
H6    H     H_    0.007650 0.673429 0.004770 0.197158
H7    H     H_    0.064130 0.579875 0.099282 0.274885
F1    F     F_    0.123668 0.574199 0.661447 -0.662510
O10   O     O_3   0.165982 0.388656 0.259150 -0.579652
C27   C     C_3   0.173588 0.275991 0.205062 0.144321
H8    H     H_    0.068686 0.230579 0.202521 0.174065
H9    H     H_    0.245051 0.212077 0.236875 0.172163
C28   C     C_3   0.230937 0.299009 0.101459 -0.781946
H10   H     H_    0.341547 0.330139 0.099970 0.248338
H11   H     H_    0.225480 0.212505 0.057187 0.195636
H12   H     H_    0.168729 0.369827 0.069767 0.269189
F2    F     F_    0.133421 0.269620 0.397998 -0.657757
F3    F     F_    0.889300 0.405504 0.258786 -0.708975
F4    F     F_    0.862091 0.271681 0.386111 -0.591532
O11   O     O_3   0.676660 0.456295 0.964427 -0.601537
C29   C     C_3   0.774884 0.400462 0.018532 0.107027
H13   H     H_    0.725153 0.323713 0.061653 0.166146
H14   H     H_    0.822313 0.469720 0.067262 0.191789
C30   C     C_3   0.890531 0.346962 0.948958 -0.769915
H15   H     H_    0.945881 0.421564 0.906836 0.258385
H16   H     H_    0.966347 0.299248 0.990150 0.204785
H17   H     H_    0.845368 0.279367 0.898114 0.246698
O12   O     O_3   0.748701 0.132428 0.539640 -0.484551
C31   C     C_3   0.801590 0.112068 0.629858 0.101474
H18   H     H_    0.875310 0.034267 0.621722 0.201385
H19   H     H_    0.718208 0.091221 0.688835 0.082381
C32   C     C_3   0.880027 0.227633 0.661284 -0.602488
H20   H     H_    0.805330 0.303328 0.678565 0.233232
H21   H     H_    0.934427 0.209171 0.726728 0.179596
H22   H     H_    0.958457 0.257238 0.602472 0.300548
F5    F     F_    0.134229 0.103471 0.522239 -0.588867
F6    F     F_    0.137880 0.864688 0.519989 -0.650180
F7    F     F_    0.282645 0.865090 0.377123 -0.688022
O13   O     O_3   0.838740 0.584617 0.660821 -0.542080
C33   C     C_3   0.858779 0.713344 0.672536 0.147618
H23   H     H_    0.865254 0.761327 0.602212 0.149908
H24   H     H_    0.955914 0.733983 0.708515 0.205389
C34   C     C_3   0.736732 0.765524 0.737169 -0.803697
H25   H     H_    0.753841 0.865882 0.749670 0.184413
H26   H     H_    0.637881 0.750827 0.702067 0.240344
H27   H     H_    0.727438 0.719574 0.808131 0.267638

loop_
_geom_bond_atom_site_label_1
_geom_bond_atom_site_label_2
_ccdc_geom_bond_type
Cu1   O1    S    
C30   H16   S    
Cu2   O2    S    
C19   C20   S    
C2    C12   S    
C16   O10   S    
C7    C8    A    
C29   C30   S    
C13   N1    A    
C21   O11   S    
C5    C6    A    
C15   C16   S    
C1    O1    A    
C29   H14   S    
C19   O7    A    
Cu1   O7    S    
C31   H18   S    
C11   C15   A    
Cu2   O4    S    
C25   C26   S    
C11   C17   S    
C20   C24   T    
C8    C9    S    
C27   H9    S    
C18   O5    A    
C28   H12   S    
C17   F4    S    
C27   C28   S    
C25   H4    S    
C30   H17   S    
O11   C29   S    
C5    H1    S    
C13   C14   A    
C10   F6    S    
C14   N2    A    
C10   F7    S    
C28   H11   S    
O12   C31   S    
C3    C8    A    
O9    C25   S    
C33   H24   S    
O13   C33   S    
Cu2   O8    S    
Cu1   Cu2   S    
C1    O2    A    
C30   H15   S    
C29   H13   S    
C26   H5    S    
C16   F2    S    
C19   O8    A    
C33   C34   S    
C7    C18   S    
C26   H6    S    
C6    C7    A    
Cu1   O5    S    
Cu2   O6    S    
C6    O12   S    
C34   H25   S    
C34   H26   S    
C12   O4    A    
C3    C4    A    
C28   H10   S    
C15   N2    A    
C32   H21   S    
C9    C10   S    
Cu1   N2    S    
C13   O13   S    
O10   C27   S    
C4    C5    A    
C32   H22   S    
C14   F1    S    
C34   H27   S    
C1    C4    S    
C32   H20   S    
C3    C10   S    
C16   C17   S    
C31   C32   S    
C22   O9    S    
C26   H7    S    
C33   H23   S    
C11   N1    A    
Cu2   N1    S    
C31   H19   S    
C27   H8    S    
C21   C24   S    
Cu1   O3    S    
C2    C23   T    
C22   C23   S    
C25   H3    S    
C9    F5    S    
C12   O3    A    
C21   C22   D    
C18   O6    A    
C9    H2    S    
C17   F3    S    
