data_mof_unit_57734.cif
_audit_creation_date              2012-12-10T17:11:03-0500
_audit_creation_method            fapswitch 2.2
_symmetry_space_group_name_H-M    P1
_symmetry_Int_Tables_number       1
_space_group_crystal_system       triclinic
_cell_length_a                    11.698493
_cell_length_b                    13.000906
_cell_length_c                    13.529284
_cell_angle_alpha                 92.461997
_cell_angle_beta                  77.46436
_cell_angle_gamma                 100.355256
_cell_volume                      1975.89680373

loop_
_atom_site_label
_atom_site_type_symbol
_atom_type_description
_atom_site_fract_x
_atom_site_fract_y
_atom_site_fract_z
_atom_type_partial_charge
C1    C     C_R   0.521668 0.700957 0.500204 0.843353
C2    C     C_R   0.450898 0.476080 0.972951 0.082465
C3    C     C_R   0.481443 0.461402 0.866740 0.076724
C4    C     C_R   0.534583 0.465615 0.032230 0.064220
C5    C     C_R   0.653897 0.463380 0.983731 0.131321
C6    C     C_R   0.680670 0.440651 0.880794 -0.231834
C7    C     C_R   0.592438 0.430710 0.825104 -0.204046
C8    C     C_R   0.503568 0.455241 0.138121 0.113852
C9    C     C_R   0.713458 0.496684 0.143960 -0.241268
C10   C     C_R   0.401571 0.480790 0.806270 -0.102623
C11   C     C_R   0.466517 0.185562 0.497966 -0.083507
C12   C     C_R   0.437058 0.489289 0.695215 0.788656
C13   C     C_R   0.535359 0.814582 0.496878 -0.095745
C14   C     C_R   0.661911 0.985960 0.474300 0.399728
C15   C     C_R   0.648750 0.876820 0.478429 -0.301766
C16   C     C_R   0.434091 0.860845 0.509448 -0.267923
C17   C     C_R   0.445160 0.968740 0.504533 0.101224
C18   C     C_R   0.559434 0.031964 0.487689 0.132139
C19   C     C_R   0.568743 0.140234 0.484717 -0.213863
C20   C     C_R   0.353868 0.122272 0.512727 -0.190785
C21   C     C_R   0.343222 0.014257 0.516342 -0.185004
C22   C     C_R   0.955005 0.602218 0.585237 -0.317011
C23   C     C_R   0.478834 0.299092 0.498278 0.798281
C24   C     C_R   0.835309 0.594326 0.579704 0.383689
C25   C     C_R   0.852310 0.451569 0.464557 -0.019539
C26   C     C_R   0.974583 0.458004 0.468551 0.050674
C27   C     C_R   0.025185 0.535574 0.529777 -0.012672
C28   C     C_R   0.146049 0.546131 0.534616 0.014399
C29   C     C_R   0.168609 0.403146 0.423072 0.058104
C30   C     C_R   0.048416 0.390097 0.414127 0.066174
C31   C     C_R   0.561560 0.497447 0.304725 0.814176
C32   C     C_R   0.743025 0.479338 0.039912 -0.197335
C33   C     C_R   0.593535 0.484222 0.194275 -0.062821
C34   C     C_R   0.290164 0.504886 0.853320 -0.185974
C35   C     C_R   0.261251 0.519485 0.957226 -0.156395
C36   C     C_R   0.342208 0.509351 0.015944 -0.178109
Cu1   Cu    Cu3+1 0.386470 0.492430 0.492410 0.935719
Cu2   Cu    Cu3+1 0.613530 0.507570 0.507590 0.931532
H1    H     H_    0.783968 0.514670 0.185577 0.165282
H2    H     H_    0.274033 0.156247 0.523015 0.159553
H3    H     H_    0.255414 0.966385 0.528844 0.135610
H4    H     H_    0.727137 0.840692 0.465582 0.146615
H5    H     H_    0.346198 0.812904 0.523249 0.156867
H6    H     H_    0.184381 0.605864 0.582048 0.122536
H7    H     H_    0.224632 0.349935 0.384111 0.132628
H8    H     H_    0.994691 0.662435 0.631704 0.137491
H9    H     H_    0.768821 0.427365 0.843959 0.150003
H10   H     H_    0.811406 0.393461 0.417395 0.146780
H11   H     H_    0.835403 0.481233 0.003076 0.138982
H12   H     H_    0.227672 0.518987 0.809091 0.152407
H13   H     H_    0.320457 0.532100 0.094434 0.151745
H14   H     H_    0.177694 0.543584 0.991943 0.138698
H15   H     H_    0.614685 0.400309 0.749356 0.187767
H16   H     H_    0.655669 0.189606 0.472185 0.196225
N1    N     N_R   0.215880 0.481050 0.481000 -0.197060
N2    N     N_R   0.784100 0.518950 0.519000 -0.184640
O1    O     O_R   0.419710 0.645650 0.494620 -0.587580
O2    O     O_R   0.611450 0.658430 0.507430 -0.583164
O3    O     O_R   0.357340 0.490460 0.641450 -0.580202
O4    O     O_R   0.549080 0.503250 0.654260 -0.599752
O5    O     O_R   0.388550 0.341570 0.492570 -0.593612
O6    O     O_R   0.580290 0.354350 0.505380 -0.597809
O7    O     O_R   0.450920 0.496750 0.345740 -0.575659
O8    O     O_R   0.642660 0.509540 0.358550 -0.589795
O9    O     O_3   0.773143 0.048423 0.456783 -0.765030
H17   H     H_    0.834720 0.003583 0.449422 0.322064
C37   C     C_3   0.001769 0.303914 0.347694 -0.898925
H18   H     H_    0.071571 0.258325 0.311409 0.235326
H19   H     H_    0.927110 0.249351 0.393701 0.270458
H20   H     H_    0.970145 0.337795 0.286755 0.233327
C38   C     C_3   0.771717 0.676628 0.637860 -0.771447
H21   H     H_    0.819947 0.715530 0.695419 0.180153
H22   H     H_    0.769477 0.739206 0.585992 0.221153
H23   H     H_    0.682488 0.645277 0.681266 0.258657
C39   C     C_3   0.385676 0.388175 0.185923 -0.854086
H24   H     H_    0.399804 0.331182 0.239055 0.229116
H25   H     H_    0.322186 0.437210 0.226939 0.240179
H26   H     H_    0.344414 0.340678 0.128451 0.230927

loop_
_geom_bond_atom_site_label_1
_geom_bond_atom_site_label_2
_ccdc_geom_bond_type
C14   C18   A    
C35   C36   A    
C25   N2    A    
C4    C8    A    
C11   C19   A    
C26   C27   A    
C29   C30   A    
C18   C19   A    
C3    C7    A    
C5    C6    A    
C20   H2    S    
C9    H1    S    
C34   C35   A    
C9    C32   A    
Cu2   O2    S    
C12   O3    A    
C23   O6    A    
C16   C17   A    
C31   C33   S    
C30   C37   S    
C5    C32   A    
Cu2   O4    S    
C9    C33   A    
Cu1   O7    S    
C28   N1    A    
Cu2   O8    S    
C11   C20   A    
C34   H12   S    
C6    H9    S    
C37   H18   S    
C31   O7    A    
C38   H22   S    
C29   N1    A    
C25   C26   A    
C28   H6    S    
C8    C39   S    
C17   C21   A    
C29   H7    S    
C37   H19   S    
C12   O4    A    
C2    C4    A    
C39   H24   S    
Cu1   Cu2   S    
C1    O1    A    
C25   H10   S    
C17   C18   A    
C10   C34   A    
C39   H25   S    
C16   H5    S    
Cu1   O3    S    
C36   H13   S    
C10   C12   S    
C21   H3    S    
C19   H16   S    
C22   H8    S    
C26   C30   A    
C22   C27   A    
C13   C15   A    
C22   C24   A    
C1    C13   S    
C7    H15   S    
C35   H14   S    
C2    C36   A    
C31   O8    A    
C15   H4    S    
C4    C5    A    
C38   H23   S    
Cu1   O5    S    
C6    C7    A    
C24   N2    A    
C37   H20   S    
C2    C3    A    
C38   H21   S    
C3    C10   A    
C1    O2    A    
C11   C23   S    
C14   O9    S    
C8    C33   A    
C39   H26   S    
C32   H11   S    
Cu1   N1    S    
C23   O5    A    
Cu2   N2    S    
C20   C21   A    
O9    H17   S    
C13   C16   A    
C27   C28   A    
C14   C15   A    
Cu1   O1    S    
C24   C38   S    
Cu2   O6    S    
