data_mof_unit_54146.cif
_audit_creation_date              2012-12-10T16:49:24-0500
_audit_creation_method            fapswitch 2.2
_symmetry_space_group_name_H-M    P1
_symmetry_Int_Tables_number       1
_space_group_crystal_system       triclinic
_cell_length_a                    7.815751
_cell_length_b                    8.602718
_cell_length_c                    12.8604
_cell_angle_alpha                 88.947018
_cell_angle_beta                  88.148652
_cell_angle_gamma                 92.612868
_cell_volume                      863.170385612

loop_
_atom_site_label
_atom_site_type_symbol
_atom_type_description
_atom_site_fract_x
_atom_site_fract_y
_atom_site_fract_z
_atom_type_partial_charge
C1    C     C_R   0.456868 0.206270 0.495994 0.921381
C2    C     C_R   0.709906 0.461081 0.141101 -0.189709
C3    C     C_R   0.588833 0.472069 0.869217 -0.261625
C4    C     C_R   0.411170 0.527928 0.130783 -0.261617
C5    C     C_R   0.578265 0.480954 0.975622 0.181954
C6    C     C_R   0.421740 0.519045 0.024378 0.181954
C7    C     C_2   0.444493 0.046400 0.476762 -0.235950
C8    C     C_2   0.555532 0.953598 0.523227 -0.235985
C9    C     C_1   0.988349 0.640352 0.398507 0.409015
C10   C     C_1   0.011654 0.359658 0.601499 0.409025
C11   C     C_1   0.338132 0.000067 0.390583 0.215753
C12   C     C_R   0.543139 0.793732 0.504006 0.921388
C13   C     C_1   0.661963 0.999944 0.609371 0.215786
C14   C     C_R   0.466177 0.501714 0.699625 0.886615
C15   C     C_R   0.533823 0.498284 0.300375 0.886618
C16   C     C_R   0.553772 0.496963 0.189218 -0.045463
C17   C     C_R   0.446230 0.503034 0.810782 -0.045463
C18   C     C_R   0.277860 0.546922 0.966172 -0.214669
C19   C     C_R   0.722145 0.453079 0.033828 -0.214670
C20   C     C_R   0.290097 0.538920 0.858900 -0.189710
H1    H     H_    0.290565 0.557604 0.167787 0.166396
H2    H     H_    0.709436 0.442389 0.832213 0.166395
H3    H     H_    0.820913 0.437304 0.186089 0.164886
H4    H     H_    0.179090 0.562696 0.813911 0.164886
H5    H     H_    0.157257 0.575684 0.003404 0.142707
H6    H     H_    0.842749 0.424321 0.996596 0.142707
N1    N     N_2   0.054030 0.541640 0.471970 -0.160053
N2    N     N_2   0.945970 0.458360 0.528030 -0.160052
N3    N     N_1   0.935346 0.723419 0.336765 -0.234663
N4    N     N_1   0.064660 0.276602 0.663246 -0.234657
N5    N     N_1   0.254175 0.964037 0.321756 -0.193620
N6    N     N_1   0.745987 0.035985 0.678166 -0.193619
O1    O     O_R   0.609680 0.261530 0.506880 -0.617515
O2    O     O_R   0.390320 0.738470 0.493120 -0.617499
O3    O     O_R   0.323330 0.288220 0.488910 -0.625208
O4    O     O_R   0.676670 0.711780 0.511090 -0.625216
O5    O     O_R   0.619510 0.488830 0.661140 -0.633850
O6    O     O_R   0.380490 0.511170 0.338860 -0.633845
O7    O     O_R   0.333160 0.515520 0.643180 -0.636729
O8    O     O_R   0.666840 0.484480 0.356820 -0.636729
Zn1   Zn    Zn3+2 0.691200 0.482180 0.511990 0.960321
Zn2   Zn    Zn3+2 0.308800 0.517820 0.488010 0.960326

loop_
_geom_bond_atom_site_label_1
_geom_bond_atom_site_label_2
_ccdc_geom_bond_type
C4    C16   A    
C15   O6    A    
C3    C17   A    
C8    C13   S    
C5    C19   A    
C12   O4    A    
C2    C16   A    
C10   N4    T    
C13   N6    T    
C14   C17   S    
C9    N3    T    
C8    C12   S    
O1    Zn1   S    
C2    C19   A    
C11   N5    T    
C7    C8    D    
C14   O5    A    
C7    C11   S    
C4    H1    S    
N1    Zn2   S    
C1    O3    A    
O4    Zn1   S    
C18   H5    S    
O8    Zn1   S    
O6    Zn2   S    
O7    Zn2   S    
C18   C20   A    
O5    Zn1   S    
C5    C6    A    
C6    C18   A    
C15   O8    A    
C1    O1    A    
C15   C16   S    
N2    Zn1   S    
N1    N2    D    
C17   C20   A    
C9    N1    S    
C4    C6    A    
C10   N2    S    
C2    H3    S    
C19   H6    S    
O3    Zn2   S    
C3    H2    S    
C14   O7    A    
C1    C7    S    
C12   O2    A    
C20   H4    S    
C3    C5    A    
O2    Zn2   S    
