data_mof_unit_62851.cif
_audit_creation_date              2012-12-10T16:55:30-0500
_audit_creation_method            fapswitch 2.2
_symmetry_space_group_name_H-M    P1
_symmetry_Int_Tables_number       1
_space_group_crystal_system       triclinic
_cell_length_a                    11.709782
_cell_length_b                    10.937746
_cell_length_c                    9.720489
_cell_angle_alpha                 90.226973
_cell_angle_beta                  90.33349
_cell_angle_gamma                 90.377294
_cell_volume                      1244.92878855

loop_
_atom_site_label
_atom_site_type_symbol
_atom_type_description
_atom_site_fract_x
_atom_site_fract_y
_atom_site_fract_z
_atom_type_partial_charge
C1    C     C_R   0.498602 0.265435 0.499872 0.841769
C2    C     C_2   0.507237 0.866650 0.502847 -0.318121
C3    C     C_2   0.503155 0.066577 0.387082 -0.158481
C4    C     C_2   0.492923 0.133430 0.502034 -0.313957
C5    C     C_2   0.433904 0.429996 0.922409 0.086246
C6    C     C_2   0.422431 0.444732 0.076620 -0.037277
C7    C     C_R   0.284070 0.499993 0.499703 0.818012
C8    C     C_R   0.501509 0.734587 0.500302 0.836561
C9    C     C_R   0.715929 0.500125 0.500313 0.811158
C10   C     C_1   0.162357 0.500044 0.499279 -0.178068
C11   C     C_1   0.059890 0.500104 0.499677 -0.000193
C12   C     C_1   0.940101 0.500163 0.500451 -0.003526
C13   C     C_1   0.837635 0.500171 0.500799 -0.187087
C14   C     C_2   0.498223 0.932594 0.387359 -0.150671
Cu1   Cu    Cu3+1 0.500020 0.500020 0.638630 0.978058
Cu2   Cu    Cu3+1 0.499980 0.499980 0.361370 0.950601
H1    H     H_    0.488534 0.887470 0.288172 0.177390
H2    H     H_    0.521487 0.908046 0.602773 0.149837
H3    H     H_    0.513786 0.110880 0.288099 0.167112
H4    H     H_    0.477843 0.092722 0.601570 0.147629
H5    H     H_    0.385056 0.357401 0.872993 0.075293
H6    H     H_    0.348531 0.403858 0.125480 0.133104
H7    H     H_    0.576417 0.517565 0.109456 0.235501
N1    N     N_2   0.498780 0.498660 0.846910 0.016263
N2    N     N_2   0.498750 0.498630 0.153040 -0.263181
O1    O     O_R   0.500020 0.321960 0.617040 -0.598667
O2    O     O_R   0.499980 0.321920 0.382900 -0.579567
O3    O     O_R   0.337220 0.500030 0.617070 -0.570226
O4    O     O_R   0.337180 0.499990 0.382930 -0.573105
O5    O     O_R   0.500020 0.678080 0.617100 -0.555757
O6    O     O_R   0.499980 0.678040 0.382960 -0.566199
O7    O     O_R   0.662820 0.500010 0.617070 -0.594969
O8    O     O_R   0.662780 0.499970 0.382930 -0.578690
O9    O     O_3   0.525447 0.608101 0.903728 -0.487782
C15   C     C_3   0.642682 0.630119 0.881974 -0.137365
H8    H     H_    0.656804 0.678528 0.783745 0.181477
H9    H     H_    0.694696 0.545221 0.886788 0.129285
H10   H     H_    0.674494 0.691541 0.965020 0.117591

loop_
_geom_bond_atom_site_label_1
_geom_bond_atom_site_label_2
_ccdc_geom_bond_type
C7    C10   S    
C11   C12   S    
C3    H3    S    
C7    O4    A    
Cu2   O8    S    
C2    H2    S    
C15   H8    S    
C1    C4    S    
C8    O5    A    
Cu2   O2    S    
Cu1   O7    S    
Cu2   O6    S    
C9    O8    A    
C3    C14   S    
C14   H1    S    
Cu1   O3    S    
C5    C6    S    
C5    N1    D    
Cu1   N1    S    
C15   H9    S    
H7    N2    S    
C1    O1    A    
C2    C14   D    
C2    C8    S    
C6    N2    D    
C10   C11   T    
Cu1   Cu2   S    
C6    H6    S    
C15   H10   S    
C5    H5    S    
C12   C13   T    
Cu1   O5    S    
O9    C15   S    
Cu2   N2    S    
C1    O2    A    
C9    C13   S    
Cu1   O1    S    
C9    O7    A    
Cu2   O4    S    
C8    O6    A    
N1    O9    S    
C7    O3    A    
C3    C4    D    
C4    H4    S    
