data_mof_unit_8994.cif
_audit_creation_date              2013-03-05T16:18:53-0500
_audit_creation_method            fapswitch 2.2
_symmetry_space_group_name_H-M    P1
_symmetry_Int_Tables_number       1
_space_group_crystal_system       triclinic
_cell_length_a                    9.788851
_cell_length_b                    10.752292
_cell_length_c                    17.045859
_cell_angle_alpha                 90.24136
_cell_angle_beta                  85.810689
_cell_angle_gamma                 88.012868
_cell_volume                      1788.21005808

loop_
_atom_site_label
_atom_site_type_symbol
_atom_site_description
_atom_site_fract_x
_atom_site_fract_y
_atom_site_fract_z
_atom_type_partial_charge
O1    O     O_R   0.383960 0.685090 0.500020 -0.599646
O2    O     O_R   0.616040 0.685320 0.499960 -0.630467
C1    C     C_R   0.498612 0.741976 0.501122 0.928583
O3    O     O_R   0.370240 0.499890 0.615830 -0.586537
O4    O     O_R   0.602330 0.500120 0.615770 -0.616061
C2    C     C_R   0.481885 0.496283 0.652380 0.976108
Zn1   Zn    Zn3+2 0.345040 0.499850 0.500040 1.023365
Zn2   Zn    Zn3+2 0.654960 0.500150 0.499960 1.021657
O5    O     O_R   0.383960 0.314680 0.500040 -0.586334
O6    O     O_R   0.616040 0.314910 0.499980 -0.574969
O7    O     O_R   0.397670 0.499880 0.384230 -0.629828
O8    O     O_R   0.629760 0.500110 0.384170 -0.571541
C3    C     C_R   0.501603 0.257340 0.496536 0.947636
C4    C     C_R   0.517479 0.507252 0.347360 0.965870
C5    C     C_R   0.473470 0.471917 0.736310 -0.117208
C6    C     C_R   0.594594 0.449388 0.773824 -0.186668
C7    C     C_R   0.589480 0.415655 0.852284 0.475696
C8    C     C_R   0.460506 0.410925 0.894544 0.009505
C9    C     C_R   0.339504 0.428949 0.856828 -0.170307
C10   C     C_R   0.345782 0.459212 0.777748 -0.078933
C11   C     C_R   0.393335 0.476814 0.147198 -0.124978
C12   C     C_R   0.402572 0.474647 0.227202 -0.165086
C13   C     C_R   0.623445 0.573617 0.212513 0.428662
C14   C     C_R   0.613442 0.572258 0.131184 -0.147874
C15   C     C_R   0.500855 0.521624 0.098939 0.085895
C16   C     C_2   0.450207 0.415238 0.979459 -0.132192
C17   C     C_2   0.498101 0.514570 0.014274 -0.114260
C18   C     C_R   0.519297 0.517284 0.261422 -0.201422
H1    H     H_    0.693790 0.457694 0.742196 0.224399
H2    H     H_    0.315801 0.439618 0.262039 0.224705
H3    H     H_    0.546304 0.587506 0.979152 0.182510
H4    H     H_    0.240504 0.426309 0.889609 0.179908
H5    H     H_    0.302042 0.442989 0.123156 0.170474
H6    H     H_    0.251059 0.474371 0.749529 0.197197
H7    H     H_    0.402328 0.339983 0.012280 0.182172
H8    H     H_    0.694165 0.610150 0.092422 0.210982
C19   C     C_3   0.458998 0.922451 0.418434 -0.452829
H9    H     H_    0.354643 0.890286 0.408754 0.204257
H10   H     H_    0.529271 0.879483 0.370974 0.209342
C20   C     C_3   0.466205 0.065350 0.413580 0.228829
H11   H     H_    0.553143 0.086788 0.370473 0.124849
H12   H     H_    0.291354 0.903278 0.552269 0.241845
H13   H     H_    0.290166 0.107964 0.547934 0.193766
C21   C     C_3   0.394842 0.932428 0.564202 -0.394867
C22   C     C_3   0.643379 0.923717 0.513970 -0.385642
C23   C     C_3   0.498648 0.877699 0.499645 -0.015580
H14   H     H_    0.674453 0.891112 0.572259 0.223685
H15   H     H_    0.721168 0.885821 0.468402 0.201403
C24   C     C_3   0.500092 0.119901 0.496053 -0.162485
C25   C     C_3   0.393934 0.075414 0.562485 0.146420
C26   C     C_3   0.643855 0.064761 0.511133 -0.349603
H16   H     H_    0.719690 0.093063 0.463290 0.215398
H17   H     H_    0.676925 0.097368 0.567575 0.308582
H18   H     H_    0.418198 0.895490 0.622794 0.232368
C27   C     C_3   0.910983 0.628979 0.499340 -0.372850
H19   H     H_    0.851386 0.685268 0.545587 0.229024
H20   H     H_    0.887870 0.674220 0.443216 0.187241
C28   C     C_3   0.070635 0.632463 0.508315 0.346978
H21   H     H_    0.116834 0.690544 0.460167 0.094934
H22   H     H_    0.881386 0.495373 0.625943 0.155988
H23   H     H_    0.117461 0.465266 0.623899 0.211896
C29   C     C_3   0.918759 0.439469 0.573683 0.365372
C30   C     C_3   0.930626 0.437971 0.431005 -0.260755
N1    N     N_3   0.861190 0.500250 0.501720 -0.137935
H24   H     H_    0.900148 0.340281 0.426874 0.228931
H25   H     H_    0.894129 0.481768 0.377622 0.241142
N2    N     N_3   0.138550 0.503270 0.501080 -0.157050
C31   C     C_3   0.080278 0.431913 0.567947 -0.213083
C32   C     C_3   0.091445 0.445564 0.428733 -0.332894
H26   H     H_    0.128376 0.499523 0.376352 0.186875
H27   H     H_    0.137418 0.350853 0.421142 0.287940
H28   H     H_    0.122406 0.334562 0.561773 0.234494
S1    S     S_3+6 0.316663 0.126243 0.369310 -0.000903
O9    O     O_2   0.339969 0.257964 0.345629 -0.324665
O10   O     O_2   0.297408 0.052389 0.296063 -0.257127
O11   O     O_3   0.173497 0.119314 0.429762 -0.552038
H29   H     H_    0.151375 0.030150 0.431675 0.371192
N3    N     N_R   0.415835 0.127676 0.640325 0.220478
O12   O     O_R   0.325846 0.207267 0.673127 -0.372318
O13   O     O_R   0.515350 0.086329 0.680832 -0.348261
S2    S     S_3+6 0.090567 0.718051 0.599869 -0.031329
O14   O     O_2   0.231926 0.707371 0.627651 -0.304269
O15   O     O_2   0.055419 0.852654 0.584816 -0.333576
O16   O     O_3   0.981627 0.671773 0.673967 -0.608641
H30   H     H_    0.989948 0.732721 0.716953 0.410489
S3    S     S_3+6 0.761985 0.654852 0.246467 0.012070
O17   O     O_2   0.884319 0.567046 0.248028 -0.309208
O18   O     O_2   0.797342 0.758013 0.190008 -0.273725
O19   O     O_3   0.723230 0.717463 0.335971 -0.603861
H31   H     H_    0.784062 0.788829 0.338888 0.366182
S4    S     S_3+6 0.867647 0.285324 0.600412 0.017348
O20   O     O_2   0.721530 0.283869 0.633107 -0.277353
O21   O     O_2   0.894350 0.197633 0.531970 -0.350651
O22   O     O_3   0.965289 0.235472 0.672025 -0.509913
H32   H     H_    0.941036 0.147725 0.680986 0.417706
S5    S     S_3+6 0.745984 0.383547 0.895663 0.045143
O23   O     O_2   0.797205 0.502458 0.927500 -0.320743
O24   O     O_2   0.725593 0.291675 0.961356 -0.251820
O25   O     O_3   0.863206 0.324474 0.827306 -0.490258
H33   H     H_    0.950006 0.318861 0.853765 0.393058

loop_
_geom_bond_atom_site_label_1
_geom_bond_atom_site_label_2
_geom_bond_distance
_ccdc_geom_bond_type
C26   H17   1.097221 S    
C27   H19   1.110142 S    
C30   H24   1.105199 S    
S1    O9    1.494879 D    
C9    C10   1.385547 A    
C8    C16   1.444034 S    
S2    O14   1.495785 D    
C22   C23   1.552347 S    
Zn1   O7    2.003457 S    
C16   C17   1.335187 D    
C14   H8    1.084100 S    
C19   C20   1.542839 S    
O4    C2    1.295114 A    
O7    C4    1.294557 A    
N3    O13   1.301603 A    
C11   H5    1.083350 S    
C22   C26   1.517673 S    
C5    C6    1.401983 A    
S5    O25   1.680978 S    
C20   S1    1.800019 S    
H22   C29   1.105128 S    
C8    C9    1.396506 A    
C32   H27   1.102234 S    
O5    C3    1.284619 A    
C29   N1    1.526965 S    
C2    C5    1.452469 S    
C30   C32   1.576831 S    
C6    C7    1.385017 A    
C24   C26   1.547343 S    
C13   S3    1.769076 S    
S5    O24   1.503316 D    
C13   C14   1.396951 A    
C19   C23   1.539363 S    
C31   H28   1.113374 S    
C10   H6    1.083068 S    
C30   H25   1.103116 S    
C12   C18   1.409758 A    
C11   C12   1.373535 A    
C29   S4    1.798745 S    
S1    O10   1.503792 D    
O22   H32   0.990604 S    
H12   C21   1.103363 S    
O3    Zn1   2.006896 S    
C9    H4    1.084023 S    
C25   N3    1.471707 S    
S2    O15   1.503453 D    
C21   C23   1.542568 S    
O11   H29   0.990317 S    
C22   H14   1.114600 S    
C27   N1    1.483040 S    
C5    C10   1.401262 A    
C17   H3    1.088315 S    
C26   H16   1.112688 S    
C14   C15   1.393102 A    
O3    C2    1.296449 A    
C28   S2    1.834478 S    
S4    O20   1.497271 D    
S3    O17   1.500853 D    
C28   H21   1.112561 S    
S3    O19   1.677455 S    
N2    C31   1.468314 S    
N2    C32   1.488259 S    
C19   H9    1.113093 S    
S4    O21   1.499172 D    
C28   N2    1.519665 S    
O25   H33   0.990790 S    
Zn2   O8    2.006897 S    
S5    O23   1.503002 D    
C7    C8    1.409721 A    
C7    S5    1.773117 S    
C13   C18   1.422733 A    
O16   H30   0.990636 S    
Zn2   N1    2.021204 S    
C3    C24   1.478374 S    
C20   H11   1.113988 S    
O8    C4    1.304965 A    
C27   H20   1.109495 S    
S1    O11   1.681760 S    
S2    O16   1.680911 S    
C22   H15   1.112929 S    
C21   C25   1.537566 S    
Zn1   O5    2.014107 S    
C11   C15   1.388746 A    
C12   H2    1.079971 S    
O1    Zn1   2.040796 S    
O2    Zn2   2.014109 S    
O6    C3    1.303404 A    
O4    Zn2   2.003457 S    
H13   C25   1.108457 S    
C15   C17   1.447121 S    
C1    C23   1.459673 S    
C29   C31   1.576212 S    
C4    C18   1.468177 S    
O2    C1    1.280940 A    
C6    H1    1.082332 S    
C19   H10   1.111140 S    
S4    O22   1.682697 S    
N3    O12   1.301035 A    
H23   C31   1.107972 S    
S3    O18   1.504423 D    
C32   H26   1.111886 S    
Zn1   N2    2.019139 S    
C30   N1    1.485032 S    
C21   H18   1.112612 S    
C16   H7    1.085919 S    
Zn2   O6    2.040795 S    
C24   C25   1.567823 S    
C27   C28   1.583075 S    
O1    C1    1.297939 A    
O19   H31   0.990741 S    
C20   C24   1.582757 S    
