data_mof_unit_30274.cif
_audit_creation_date              2012-12-10T17:20:37-0500
_audit_creation_method            fapswitch 2.2
_symmetry_space_group_name_H-M    P1
_symmetry_Int_Tables_number       1
_space_group_crystal_system       triclinic
_cell_length_a                    10.290295
_cell_length_b                    10.863073
_cell_length_c                    13.628697
_cell_angle_alpha                 93.054888
_cell_angle_beta                  73.870998
_cell_angle_gamma                 96.839403
_cell_volume                      1452.76660703

loop_
_atom_site_label
_atom_site_type_symbol
_atom_type_description
_atom_site_fract_x
_atom_site_fract_y
_atom_site_fract_z
_atom_type_partial_charge
C1    C     C_R   0.558767 0.732227 0.491435 0.892980
C2    C     C_2   0.075667 0.493836 0.487483 0.102150
C3    C     C_1   0.443017 0.502381 0.883453 -0.036947
C4    C     C_1   0.555304 0.492073 0.116579 -0.036990
C5    C     C_2   0.595289 0.865214 0.489170 -0.313073
C6    C     C_2   0.405291 0.135273 0.502739 -0.317605
C7    C     C_2   0.504932 0.936679 0.472969 0.323337
C8    C     C_2   0.492357 0.061437 0.520628 0.344873
C9    C     C_3   0.160850 0.712753 0.647686 0.220573
C10   C     C_3   0.076888 0.782860 0.739144 -0.388562
C11   C     C_3   0.156184 0.904576 0.760488 -0.989669
C12   C     C_R   0.441349 0.267809 0.507261 0.897981
C13   C     C_3   0.859289 0.301332 0.338966 0.211695
C14   C     C_3   0.887889 0.167423 0.310482 -0.357216
C15   C     C_3   0.873299 0.131495 0.203984 -0.995756
C16   C     C_1   0.310896 0.506412 0.063568 0.196737
C17   C     C_1   0.686624 0.484664 0.936316 0.179442
C18   C     C_3   0.514228 0.092272 0.682482 0.095239
C19   C     C_3   0.592171 0.173275 0.747361 -0.338004
C20   C     C_3   0.737402 0.140922 0.729399 -0.702272
C21   C     C_3   0.475168 0.884529 0.315751 0.089636
C22   C     C_3   0.372809 0.826757 0.259377 -0.300510
C23   C     C_R   0.475647 0.503549 0.688171 0.871236
C24   C     C_3   0.436659 0.823633 0.144053 -0.959765
C25   C     C_1   0.284310 0.090657 0.470991 0.227505
C26   C     C_1   0.723355 0.914854 0.508223 0.220656
C27   C     C_1   0.138442 0.414413 0.403540 0.276312
C28   C     C_1   0.876345 0.623737 0.561286 0.299202
C29   C     C_R   0.524341 0.496476 0.311821 0.879579
C30   C     C_1   0.543789 0.493736 0.205754 -0.171684
C31   C     C_1   0.455330 0.503632 0.794269 -0.181406
C32   C     C_2   0.557177 0.491837 0.012264 -0.038953
C33   C     C_2   0.440513 0.499814 0.987744 -0.030077
C34   C     C_2   0.928005 0.516311 0.503830 0.097692
H1    H     H_    0.185878 0.772181 0.579251 0.168862
H2    H     H_    0.992458 0.155000 0.313169 0.248637
H3    H     H_    0.814325 0.104933 0.366604 0.244356
H4    H     H_    0.768213 0.140425 0.200527 0.258208
H5    H     H_    0.894087 0.033641 0.186009 0.273946
H6    H     H_    0.946942 0.191786 0.145874 0.280504
H7    H     H_    0.508210 0.993251 0.702258 0.125724
H8    H     H_    0.408944 0.120300 0.703180 0.091033
H9    H     H_    0.595402 0.272277 0.729450 0.238714
H10   H     H_    0.537155 0.160866 0.829422 0.164958
H11   H     H_    0.737249 0.040982 0.743028 0.235168
H12   H     H_    0.254581 0.695790 0.666636 0.187681
H13   H     H_    0.786285 0.196564 0.782836 0.229883
H14   H     H_    0.798064 0.163088 0.650087 0.305450
H15   H     H_    0.562629 0.827805 0.297534 0.127887
H16   H     H_    0.512180 0.980713 0.288400 0.132114
H17   H     H_    0.335791 0.730558 0.285842 0.237406
H18   H     H_    0.284216 0.881520 0.276933 0.232023
H19   H     H_    0.472737 0.919122 0.115749 0.262804
H20   H     H_    0.359741 0.781865 0.105318 0.273619
H21   H     H_    0.523763 0.767038 0.124418 0.268439
H22   H     H_    0.981529 0.803990 0.724082 0.246734
H23   H     H_    0.049703 0.724295 0.807879 0.243151
H24   H     H_    0.250753 0.886298 0.778741 0.253201
H25   H     H_    0.092698 0.953931 0.826694 0.279040
H26   H     H_    0.183224 0.965118 0.692998 0.271019
H27   H     H_    0.930875 0.364418 0.281557 0.120723
H28   H     H_    0.754080 0.308950 0.337005 0.184354
N1    N     N_2   0.847200 0.448220 0.460120 0.009655
N2    N     N_2   0.152800 0.551780 0.539880 0.018739
N3    N     N_1   0.207437 0.511731 0.124147 -0.224693
N4    N     N_1   0.789879 0.478965 0.875564 -0.184463
N5    N     N_1   0.187342 0.055714 0.446043 -0.180709
N6    N     N_1   0.826169 0.954380 0.522557 -0.174209
N7    N     N_1   0.187849 0.350167 0.336405 -0.208525
N8    N     N_1   0.834203 0.708890 0.608660 -0.217691
O1    O     O_R   0.430150 0.692610 0.508030 -0.599599
O2    O     O_3   0.876463 0.330540 0.436849 -0.561262
O3    O     O_3   0.580992 0.108570 0.577538 -0.590058
O4    O     O_3   0.410569 0.886699 0.421803 -0.641784
O5    O     O_R   0.569850 0.307390 0.491970 -0.547601
O6    O     O_R   0.653100 0.659360 0.482430 -0.629254
O7    O     O_R   0.346900 0.340640 0.517570 -0.614001
O8    O     O_R   0.372470 0.518990 0.654990 -0.612695
O9    O     O_R   0.627530 0.481010 0.345010 -0.652601
O10   O     O_R   0.595430 0.485740 0.629390 -0.598687
O11   O     O_R   0.404570 0.514260 0.370610 -0.617312
O12   O     O_3   0.086863 0.599505 0.631371 -0.585801
Zn1   Zn    Zn3+2 0.351130 0.522200 0.517090 0.979341
Zn2   Zn    Zn3+2 0.648870 0.477800 0.482910 0.979232

loop_
_geom_bond_atom_site_label_1
_geom_bond_atom_site_label_2
_ccdc_geom_bond_type
C19   C20   S    
C25   N5    T    
O10   Zn2   S    
O6    Zn2   S    
C21   H15   S    
C7    C8    S    
N2    Zn1   S    
C24   H21   S    
C17   N4    T    
C1    O1    A    
C1    C5    S    
C18   H8    S    
C6    C12   S    
O9    Zn2   S    
O5    Zn2   S    
C6    C25   S    
O7    Zn1   S    
C24   H20   S    
C18   C19   S    
C34   N1    D    
O8    Zn1   S    
C13   H28   S    
C2    N2    D    
C2    C27   S    
C23   O10   A    
C11   H24   S    
C10   H22   S    
C9    C10   S    
C20   H11   S    
C27   N7    T    
C9    O12   S    
C2    C34   S    
C28   C34   S    
C9    H12   S    
C13   C14   S    
C11   H25   S    
C21   H16   S    
O11   Zn1   S    
C19   H9    S    
C7    O4    S    
O1    Zn1   S    
C10   H23   S    
C18   H7    S    
C5    C7    D    
C6    C8    D    
C24   H19   S    
C21   O4    S    
C23   C31   S    
C15   H4    S    
C29   O11   A    
C29   C30   S    
C16   C33   S    
C29   O9    A    
N2    O12   S    
C12   O7    A    
C20   H14   S    
C3    C31   T    
C15   H5    S    
C4    C32   S    
C18   O3    S    
C22   C24   S    
C11   H26   S    
C19   H10   S    
C22   H18   S    
C1    O6    A    
C28   N8    T    
C13   O2    S    
N1    Zn2   S    
C26   N6    T    
C32   C33   D    
C14   H3    S    
C14   H2    S    
C8    O3    S    
C23   O8    A    
C15   H6    S    
C20   H13   S    
C10   C11   S    
C5    C26   S    
C13   H27   S    
N1    O2    S    
C12   O5    A    
C9    H1    S    
C17   C32   S    
C3    C33   S    
C14   C15   S    
C16   N3    T    
C21   C22   S    
C4    C30   T    
C22   H17   S    
