data_mof_unit_21354.cif
_audit_creation_date              2012-12-11T16:08:43-0500
_audit_creation_method            fapswitch 2.2
_symmetry_space_group_name_H-M    P1
_symmetry_Int_Tables_number       1
_space_group_crystal_system       triclinic
_cell_length_a                    12.956016
_cell_length_b                    13.267921
_cell_length_c                    27.679675
_cell_angle_alpha                 94.777088
_cell_angle_beta                  89.963304
_cell_angle_gamma                 119.272814
_cell_volume                      4131.69732334

loop_
_atom_site_label
_atom_site_type_symbol
_atom_type_description
_atom_site_fract_x
_atom_site_fract_y
_atom_site_fract_z
_atom_type_partial_charge
C1    C     C_R   0.627687 0.897108 0.426809 0.538890
C2    C     C_R   0.724765 0.448696 0.240721 0.276642
C3    C     C_R   0.714255 0.430179 0.289948 -0.035941
C4    C     C_R   0.674756 0.318766 0.304054 0.007690
C5    C     C_R   0.694564 0.354611 0.205362 0.067601
C6    C     C_1   0.698674 0.371768 0.154588 0.056234
C7    C     C_1   0.656226 0.297196 0.354213 -0.029719
C8    C     C_1   0.704370 0.395915 0.113334 0.073808
C9    C     C_R   0.178986 0.750255 0.349104 0.205185
C10   C     C_R   0.188247 0.750803 0.298402 -0.001884
C11   C     C_R   0.187787 0.751562 0.196622 0.007185
C12   C     C_R   0.601432 0.222341 0.440639 0.554340
C13   C     C_R   0.199395 0.666044 0.218706 -0.062097
C14   C     C_R   0.199253 0.663901 0.269057 0.008861
C15   C     C_R   0.177824 0.746979 0.146002 0.231077
C16   C     C_R   0.136329 0.815174 0.125504 0.020709
C17   C     C_R   0.212664 0.947477 0.355653 -0.165444
C18   C     C_R   0.196175 0.940092 0.305388 -0.015478
C19   C     C_R   0.189446 0.844281 0.276441 0.026374
C20   C     C_R   0.195089 0.031090 0.283706 -0.079742
C21   C     C_R   0.181988 0.026876 0.233098 0.004599
C22   C     C_R   0.170981 0.928666 0.203791 -0.018363
C23   C     C_R   0.268159 0.875859 0.425685 0.570495
C24   C     C_R   0.182892 0.841645 0.225634 0.028817
C25   C     C_R   0.140503 0.909959 0.153831 -0.167528
C26   C     C_R   0.209786 0.854726 0.377485 0.020316
C27   C     C_R   0.736529 0.958093 0.352799 -0.119641
C28   C     C_R   0.739041 0.946055 0.302697 -0.007218
C29   C     C_R   0.736568 0.927517 0.200981 -0.022265
C30   C     C_R   0.818758 0.032920 0.228340 0.015098
C31   C     C_R   0.816914 0.040802 0.278784 -0.111507
C32   C     C_R   0.729231 0.915762 0.149998 0.156086
C33   C     C_R   0.669128 0.805210 0.125288 0.037639
C34   C     C_R   0.627402 0.898282 0.564723 0.543386
C35   C     C_R   0.576230 0.760167 0.352161 -0.133143
C36   C     C_R   0.582451 0.745207 0.301815 -0.028868
C37   C     C_R   0.661223 0.839613 0.276613 0.064796
C38   C     C_R   0.509507 0.637983 0.276454 -0.097818
C39   C     C_R   0.509792 0.623101 0.226101 0.304897
C40   C     C_R   0.581380 0.719796 0.199533 0.032558
C41   C     C_R   0.660543 0.828576 0.225623 -0.039948
C42   C     C_R   0.581833 0.711887 0.148369 0.230178
C43   C     C_R   0.650853 0.867919 0.377467 0.007697
C44   C     C_R   0.740065 0.301671 0.653376 0.190994
C45   C     C_R   0.601643 0.224884 0.579196 0.583444
C46   C     C_R   0.749424 0.303752 0.704711 -0.015644
C47   C     C_R   0.766788 0.334640 0.807199 -0.013692
C48   C     C_R   0.860650 0.338038 0.781266 -0.059569
C49   C     C_R   0.851923 0.318127 0.730443 0.036546
C50   C     C_R   0.779785 0.364304 0.857255 -0.108993
C51   C     C_R   0.686343 0.365467 0.882490 0.000336
C52   C     C_R   0.534278 0.256476 0.658352 -0.161093
C53   C     C_R   0.543929 0.267447 0.708265 0.002167
C54   C     C_R   0.650895 0.291016 0.731804 0.018378
C55   C     C_R   0.445879 0.251847 0.734813 -0.118952
C56   C     C_R   0.271468 0.879260 0.563371 0.555169
C57   C     C_R   0.454539 0.264663 0.785073 -0.123412
C58   C     C_R   0.561686 0.294272 0.809142 0.017751
C59   C     C_R   0.659398 0.304945 0.782688 0.058734
C60   C     C_R   0.575087 0.321690 0.859037 -0.123004
C61   C     C_R   0.629554 0.269433 0.630559 0.025290
C62   C     C_1   0.222175 0.862460 0.610220 0.011831
C63   C     C_R   0.156722 0.742322 0.722553 -0.052767
C64   C     C_R   0.146496 0.735068 0.772569 0.254020
C65   C     C_R   0.167319 0.927941 0.782605 -0.116463
C66   C     C_R   0.177807 0.934863 0.732533 -0.106658
C67   C     C_1   0.634845 0.269976 0.394978 0.011554
C68   C     C_R   0.171988 0.841788 0.702441 -0.008343
C69   C     C_R   0.151856 0.828295 0.802819 0.042288
C70   C     C_1   0.131450 0.817573 0.853713 0.025502
C71   C     C_1   0.193974 0.852214 0.651730 -0.036641
C72   C     C_1   0.104679 0.799769 0.895047 0.042302
C73   C     C_1   0.648388 0.859352 0.608548 0.000934
C74   C     C_R   0.782093 0.894751 0.724349 -0.069254
C75   C     C_R   0.794663 0.880971 0.773168 0.256471
C76   C     C_R   0.608800 0.698930 0.764948 -0.132984
C77   C     C_R   0.596625 0.713241 0.716153 -0.104041
C78   C     C_R   0.647584 0.225850 0.268918 -0.103941
C79   C     C_R   0.682811 0.811662 0.695897 -0.004740
C80   C     C_R   0.706841 0.783264 0.793797 0.047494
C81   C     C_1   0.716131 0.770061 0.844496 0.017679
C82   C     C_1   0.664525 0.833970 0.647549 -0.043311
C83   C     C_1   0.728087 0.761892 0.886922 0.033379
C84   C     C_R   0.067184 0.773580 0.078781 0.574315
C85   C     C_R   0.716757 0.440885 0.067170 0.555803
C86   C     C_R   0.717331 0.783175 0.079968 0.613745
C87   C     C_R   0.057390 0.766779 0.941452 0.540878
C88   C     C_R   0.709805 0.432045 0.929728 0.531507
C89   C     C_R   0.657347 0.243673 0.219703 -0.110137
C90   C     C_R   0.749330 0.754476 0.936979 0.551508
Cr1   Cr    Cr6+3 0.416430 0.829200 0.492370 1.078569
Cr2   Cr    Cr6+3 0.674630 0.087020 0.504170 1.093825
Cr3   Cr    Cr6+3 0.408920 0.083740 0.503490 1.037726
Cr4   Cr    Cr6+3 0.914010 0.832750 0.013970 1.089581
Cr5   Cr    Cr6+3 0.922310 0.578600 0.003000 1.112914
Cr6   Cr    Cr6+3 0.656280 0.574630 0.003870 1.122954
H1    H     H_    0.616959 0.139224 0.279541 0.125897
H2    H     H_    0.204803 0.105971 0.306552 0.166378
H3    H     H_    0.232357 0.027057 0.377497 0.140426
H4    H     H_    0.795499 0.041986 0.372052 0.147391
H5    H     H_    0.879015 0.120994 0.299807 0.170773
H6    H     H_    0.453377 0.564132 0.296106 0.161625
H7    H     H_    0.634422 0.170794 0.192878 0.156993
H8    H     H_    0.510470 0.690041 0.371233 0.127256
H9    H     H_    0.865242 0.395201 0.875677 0.161342
H10   H     H_    0.939905 0.352911 0.801000 0.205034
H11   H     H_    0.501678 0.319326 0.878768 0.145633
H12   H     H_    0.378843 0.255398 0.805038 0.132059
H13   H     H_    0.362942 0.231539 0.716645 0.123805
H14   H     H_    0.449204 0.232710 0.641154 0.148553
H15   H     H_    0.154284 0.670983 0.699469 0.178075
H16   H     H_    0.170734 0.999938 0.805495 0.166075
H17   H     H_    0.191506 0.012952 0.717377 0.132339
H18   H     H_    0.848325 0.971659 0.708941 0.144265
H19   H     H_    0.540822 0.623160 0.780387 0.142372
H20   H     H_    0.518854 0.649075 0.694583 0.145094
H21   H     H_    0.735381 0.502170 0.317031 0.157558
H22   H     H_    0.207415 0.598892 0.196876 0.239638
H23   H     H_    0.111422 0.963272 0.137288 0.125567
O1    O     O_R   0.296680 0.802170 0.437540 -0.455220
O2    O     O_R   0.662610 0.183990 0.557860 -0.443617
O3    O     O_R   0.500730 0.201280 0.562180 -0.529010
O4    O     O_R   0.312500 0.978850 0.548170 -0.502565
O5    O     O_3   0.499990 0.999990 0.500010 -0.273228
O6    O     O_R   0.820790 0.857990 0.068830 -0.466806
O7    O     O_R   0.016700 0.827330 0.062850 -0.514777
O8    O     O_R   0.041970 0.673520 0.060040 -0.433495
O9    O     O_R   0.817980 0.483660 0.048840 -0.481286
O10   O     O_R   0.637200 0.461990 0.052510 -0.467257
O11   O     O_R   0.664790 0.681920 0.057970 -0.445673
O12   O     O_R   0.525380 0.838530 0.443500 -0.501606
O13   O     O_R   0.815840 0.852920 0.961840 -0.462711
O14   O     O_R   0.012100 0.822630 0.963670 -0.515866
O15   O     O_R   0.037010 0.668460 0.953040 -0.478826
O16   O     O_R   0.813390 0.478970 0.949660 -0.504435
O17   O     O_R   0.632250 0.456930 0.945520 -0.522402
O18   O     O_R   0.660200 0.677230 0.958780 -0.481323
O19   O     O_3   0.830870 0.661990 0.006950 -0.309702
O20   O     O_R   0.702130 0.995190 0.446810 -0.515898
O21   O     O_R   0.661770 0.181390 0.458760 -0.482201
O22   O     O_R   0.499820 0.198480 0.455280 -0.507178
O23   O     O_R   0.311660 0.976250 0.449080 -0.513807
O24   O     O_R   0.297580 0.804960 0.544440 -0.483718
O25   O     O_R   0.526220 0.841130 0.542590 -0.495065
O26   O     O_R   0.703030 0.997990 0.553710 -0.493086
C91   C     C_2   0.187467 0.128976 0.212017 0.240949
H24   H     H_    0.195391 0.137572 0.173455 0.130513
O27   O     O_2   0.186210 0.207436 0.237969 -0.417090
Cl1   Cl    Cl    0.771516 0.035116 0.115026 -0.575888
C92   C     C_2   0.917349 0.131611 0.206688 0.333601
H25   H     H_    0.959100 0.116193 0.175132 0.162211
O28   O     O_2   0.955070 0.231217 0.224677 -0.407140
Cl2   Cl    Cl    0.463123 0.598869 0.111572 -0.400688
Cl3   Cl    Cl    0.429321 0.477232 0.201092 -0.428081
Cl4   Cl    Cl    0.866138 0.359106 0.617472 -0.584463
C93   C     C_2   0.944327 0.298882 0.706711 0.304913
H26   H     H_    0.922273 0.239994 0.674020 0.147750
O29   O     O_2   0.045398 0.345741 0.724270 -0.445674
Cl5   Cl    Cl    0.774737 0.590457 0.224502 -0.603679
Cl6   Cl    Cl    0.127385 0.608244 0.796271 -0.575144
Cl7   Cl    Cl    0.919746 0.989037 0.807799 -0.614486
Cl8   Cl    Cl    0.216224 0.655672 0.108738 -0.479801
Cl9   Cl    Cl    0.109573 0.618702 0.377193 -0.562546
C94   C     C_2   0.226168 0.578945 0.289527 0.290223
H27   H     H_    0.272728 0.599708 0.324588 0.134840
O30   O     O_2   0.199042 0.485701 0.266913 -0.390218

loop_
_geom_bond_atom_site_label_1
_geom_bond_atom_site_label_2
_ccdc_geom_bond_type
C66   C68   A    
C66   H17   S    
C87   O14   A    
C49   C93   S    
C35   C36   A    
Cr3   O5    S    
C72   C87   S    
C13   H22   S    
Cr6   O17   S    
C53   C54   A    
C46   C49   A    
C34   O25   A    
C5    C6    S    
C33   C42   A    
C31   H5    S    
C94   H27   S    
C8    C85   S    
C29   C32   A    
C52   C61   A    
Cr2   O5    S    
Cr6   O19   S    
C38   C39   A    
C34   O26   A    
C65   C69   A    
C30   C92   S    
Cr1   O12   S    
C58   C60   A    
C15   C16   A    
C74   H18   S    
C11   C24   A    
C16   C84   S    
C76   H19   S    
C12   O22   A    
C18   C20   A    
C18   C19   A    
C23   C26   S    
C45   C61   S    
C9    Cl9   S    
C15   Cl8   S    
Cr4   O14   S    
C85   O10   A    
C56   O24   A    
C11   C15   A    
Cr5   O9    S    
C1    C43   S    
C48   H10   S    
C32   Cl1   S    
C2    Cl5   S    
C22   C25   A    
C50   H9    S    
C12   O21   A    
C23   O23   A    
C89   H7    S    
C77   H20   S    
C35   C43   A    
C75   C80   A    
Cr1   O24   S    
C1    O20   A    
C56   C62   S    
C90   O13   A    
C84   O8    A    
C40   C42   A    
C21   C22   A    
C55   H13   S    
C86   O6    A    
C37   C41   A    
C87   O15   A    
C46   C54   A    
C4    C7    S    
C25   H23   S    
C81   C83   T    
C44   C46   A    
C9    C26   A    
C50   C51   A    
C47   C50   A    
C91   O27   D    
C54   C59   A    
Cr4   O7    S    
C78   C89   A    
C84   O7    A    
C12   C67   S    
C27   H4    S    
C74   C75   A    
C91   H24   S    
C39   Cl3   S    
C56   O4    A    
C76   C80   A    
C42   Cl2   S    
C76   C77   A    
C88   O17   A    
C35   H8    S    
C10   C14   A    
C23   O1    A    
C86   O11   A    
C6    C8    T    
C45   O2    A    
C58   C59   A    
C47   C59   A    
Cr5   O15   S    
Cr4   O13   S    
C33   C86   S    
C65   H16   S    
C4    C78   A    
C29   C30   A    
Cr5   O8    S    
C47   C48   A    
C44   C61   A    
C52   H14   S    
C10   C19   A    
C64   Cl6   S    
C78   H1    S    
Cr5   O16   S    
C17   C18   A    
C77   C79   A    
C64   C69   A    
Cr3   O3    S    
C17   H3    S    
C60   H11   S    
Cr1   O5    S    
C40   C41   A    
C74   C79   A    
C55   C57   A    
Cr4   O19   S    
C22   C24   A    
C2    C5    A    
C17   C26   A    
C53   C55   A    
C3    C4    A    
Cr2   O21   S    
C73   C82   T    
C39   C40   A    
C90   O18   A    
Cr3   O22   S    
C52   C53   A    
Cr6   O11   S    
Cr1   O25   S    
C9    C10   A    
Cr4   O6    S    
C16   C25   A    
C83   C90   S    
C63   C68   A    
C93   H26   S    
Cr5   O19   S    
C29   C41   A    
Cr2   O26   S    
Cr1   O1    S    
C44   Cl4   S    
Cr6   O18   S    
C28   C31   A    
Cr3   O4    S    
C88   O16   A    
C80   C81   S    
C1    O12   A    
C51   C88   S    
C79   C82   S    
C45   O3    A    
C75   Cl7   S    
C21   C91   S    
C94   O30   D    
C19   C24   A    
C38   H6    S    
Cr2   O2    S    
C32   C33   A    
C36   C38   A    
C11   C13   A    
C57   C58   A    
C30   C31   A    
C28   C37   A    
C68   C71   S    
C48   C49   A    
C93   O29   D    
C62   C71   T    
C2    C3    A    
C92   O28   D    
C63   H15   S    
C69   C70   S    
C34   C73   S    
C7    C67   T    
C63   C64   A    
C27   C43   A    
C57   H12   S    
C20   H2    S    
C20   C21   A    
C36   C37   A    
C65   C66   A    
C27   C28   A    
C92   H25   S    
C85   O9    A    
C70   C72   T    
C51   C60   A    
C3    H21   S    
C13   C14   A    
Cr2   O20   S    
C14   C94   S    
C5    C89   A    
Cr3   O23   S    
Cr6   O10   S    
