data_mof_unit_22095.cif
_audit_creation_date              2012-12-10T20:27:51-0500
_audit_creation_method            fapswitch 2.2
_symmetry_space_group_name_H-M    P1
_symmetry_Int_Tables_number       1
_space_group_crystal_system       triclinic
_cell_length_a                    12.903149
_cell_length_b                    10.690106
_cell_length_c                    9.86039
_cell_angle_alpha                 89.641506
_cell_angle_beta                  96.956436
_cell_angle_gamma                 90.165059
_cell_volume                      1350.06117825

loop_
_atom_site_label
_atom_site_type_symbol
_atom_type_description
_atom_site_fract_x
_atom_site_fract_y
_atom_site_fract_z
_atom_type_partial_charge
C1    C     C_R   0.503318 0.259896 0.500817 0.883790
C2    C     C_R   0.029310 0.513755 0.566945 0.127159
C3    C     C_R   0.971173 0.500349 0.436705 0.109490
C4    C     C_R   0.864209 0.494982 0.425861 -0.283826
C5    C     C_R   0.870483 0.516150 0.672209 -0.320668
C6    C     C_R   0.979261 0.521736 0.685627 0.436511
C7    C     C_R   0.522812 0.062736 0.626429 0.055262
C8    C     C_R   0.520225 0.128521 0.503809 -0.066429
C9    C     C_R   0.537738 0.065528 0.384138 -0.216900
C10   C     C_R   0.537588 0.936107 0.383619 -0.233321
C11   C     C_R   0.519681 0.871308 0.502661 -0.060491
C12   C     C_R   0.298188 0.501611 0.473520 0.909228
C13   C     C_R   0.521785 0.935118 0.625575 0.086618
C14   C     C_3   0.451506 0.927129 0.735434 0.256622
C15   C     C_3   0.452717 0.069101 0.736327 -0.530561
C16   C     C_R   0.409938 0.477975 0.057298 0.222347
C17   C     C_R   0.586663 0.533319 0.085315 -0.141251
C18   C     C_R   0.586714 0.533116 0.941436 -0.148167
C19   C     C_R   0.409760 0.478618 0.914687 0.240924
C20   C     C_3   0.344114 0.363507 0.899477 -0.509074
C21   C     C_3   0.345030 0.362302 0.053478 -0.500443
C22   C     C_R   0.503262 0.739996 0.500129 0.926214
C23   C     C_R   0.701831 0.500325 0.526590 0.902980
C24   C     C_R   0.813902 0.503105 0.542708 -0.091340
C25   C     C_R   0.186136 0.505034 0.458254 -0.087316
C26   C     C_R   0.020648 0.492039 0.318575 -0.183300
C27   C     C_R   0.128383 0.494263 0.329379 -0.186111
C28   C     C_R   0.136725 0.517498 0.575785 -0.214059
H1    H     H_    0.375882 0.112397 0.700385 0.224123
H2    H     H_    0.493810 0.107772 0.832609 0.165769
H3    H     H_    0.657150 0.558642 0.150018 0.149088
H4    H     H_    0.657186 0.557947 0.898319 0.144845
H5    H     H_    0.265503 0.381628 0.843715 0.222026
H6    H     H_    0.266864 0.379522 0.085742 0.206577
H7    H     H_    0.387859 0.281366 0.104510 0.212612
H8    H     H_    0.830354 0.522682 0.762268 0.151978
H9    H     H_    0.976194 0.482589 0.218561 0.135932
H10   H     H_    0.166168 0.486464 0.237689 0.160561
H11   H     H_    0.182103 0.528995 0.674728 0.208661
H12   H     H_    0.544173 0.115087 0.289334 0.167585
H13   H     H_    0.544084 0.887976 0.288665 0.169630
N1    N     N_R   0.499290 0.499140 0.142710 -0.110248
N2    N     N_R   0.499290 0.499180 0.857070 -0.109535
O1    O     O_R   0.500010 0.316790 0.614690 -0.615237
O2    O     O_R   0.500000 0.316760 0.385350 -0.627256
O3    O     O_R   0.346360 0.499990 0.595720 -0.620395
O4    O     O_R   0.346350 0.499960 0.366370 -0.621169
O5    O     O_R   0.500000 0.683240 0.614650 -0.601218
O6    O     O_R   0.499990 0.683210 0.385310 -0.631481
O7    O     O_R   0.653650 0.500040 0.633630 -0.635984
O8    O     O_R   0.653640 0.500010 0.404280 -0.636787
Zn1   Zn    Zn3+2 0.500010 0.500020 0.653130 0.957605
Zn2   Zn    Zn3+2 0.499990 0.499980 0.346870 0.944944
H14   H     H_    0.820310 0.484311 0.325572 0.163823
H15   H     H_    0.488968 0.881814 0.830948 0.093882
H16   H     H_    0.386047 0.283491 0.861117 0.209234
O9    O     O_3   0.037463 0.534353 0.812152 -0.800737
H17   H     H_    0.989697 0.537972 0.883629 0.328242
O10   O     O_3   0.353016 0.878614 0.686753 -0.729877
H18   H     H_    0.312887 0.876918 0.766426 0.338919

loop_
_geom_bond_atom_site_label_1
_geom_bond_atom_site_label_2
_ccdc_geom_bond_type
C9    H12   S    
C7    C13   A    
O7    Zn1   S    
C23   C24   S    
C26   H9    S    
C15   H1    S    
C16   C21   S    
C21   H7    S    
C16   N1    A    
C25   C27   A    
C1    C8    S    
C9    C10   A    
C11   C22   S    
C23   O8    A    
C19   C20   S    
C20   H16   S    
C12   C25   S    
O4    Zn2   S    
O1    Zn1   S    
C7    C15   S    
C14   H15   S    
O9    H17   S    
O2    Zn2   S    
C7    C8    A    
C18   N2    A    
C25   C28   A    
C14   O10   S    
C11   C13   A    
C6    O9    S    
C1    O2    A    
C26   C27   A    
C2    C6    A    
C5    C24   A    
C12   O4    A    
C4    C24   A    
C20   H5    S    
C19   N2    A    
C22   O5    A    
C17   C18   A    
O5    Zn1   S    
C2    C3    A    
C22   O6    A    
N1    Zn2   S    
C16   C19   A    
C5    C6    A    
C17   H3    S    
O6    Zn2   S    
N2    Zn1   S    
C18   H4    S    
C10   C11   A    
C27   H10   S    
C3    C4    A    
C5    H8    S    
O3    Zn1   S    
O10   H18   S    
C20   C21   S    
C15   H2    S    
C12   O3    A    
C17   N1    A    
C14   C15   S    
C23   O7    A    
C2    C28   A    
C21   H6    S    
C1    O1    A    
C28   H11   S    
C4    H14   S    
C13   C14   S    
C3    C26   A    
O8    Zn2   S    
C8    C9    A    
C10   H13   S    
