data_mof_unit_19308.cif
_audit_creation_date              2012-10-26T19:41:06-0400
_audit_creation_method            fapswitch 2.2
_symmetry_space_group_name_H-M    P1
_symmetry_Int_Tables_number       1
_space_group_crystal_system       triclinic
_cell_length_a                    11.69543
_cell_length_b                    11.080585
_cell_length_c                    9.79604
_cell_angle_alpha                 110.194301
_cell_angle_beta                  98.138137
_cell_angle_gamma                 90.928438
_cell_volume                      1176.55680653

loop_
_atom_site_label
_atom_site_type_symbol
_atom_type_description
_atom_site_fract_x
_atom_site_fract_y
_atom_site_fract_z
_atom_type_partial_charge
C1    C     C_R   0.495842 0.254515 0.442920 0.490646
C2    C     C_2   0.555517 0.872813 0.577776 0.056599
C3    C     C_2   0.531133 0.077915 0.536626 -0.019075
C4    C     C_2   0.484241 0.953093 0.536398 -0.058728
C5    C     C_2   0.508978 0.511772 0.081183 -0.015245
C6    C     C_2   0.489859 0.489557 0.919144 -0.004820
C7    C     C_R   0.355448 0.927481 0.508309 0.000484
C8    C     C_R   0.288436 0.003483 0.609764 -0.095125
C9    C     C_R   0.168078 0.980137 0.585558 -0.098953
C10   C     C_R   0.113420 0.881600 0.459329 -0.094293
C11   C     C_R   0.178885 0.807212 0.356258 -0.096749
C12   C     C_R   0.512348 0.744230 0.557128 0.551162
C13   C     C_R   0.299162 0.830445 0.379848 -0.042917
C14   C     C_R   0.613725 0.160122 0.670538 0.073373
C15   C     C_R   0.593833 0.173125 0.813249 -0.090632
C16   C     C_R   0.671988 0.247701 0.936778 -0.092390
C17   C     C_R   0.770888 0.309829 0.919559 -0.098910
C18   C     C_R   0.792619 0.296284 0.778646 -0.094910
C19   C     C_R   0.715163 0.221189 0.654732 -0.017308
C20   C     C_2   0.683971 0.892303 0.603231 0.561640
C21   C     C_2   0.444126 0.022396 0.272489 0.578906
C22   C     C_R   0.284078 0.500442 0.501161 0.548522
C23   C     C_R   0.715935 0.499979 0.498917 0.557857
C24   C     C_1   0.162656 0.501145 0.502848 -0.016173
C25   C     C_1   0.837360 0.500058 0.497337 -0.012748
C26   C     C_1   0.060035 0.501110 0.501499 -0.037484
C27   C     C_1   0.939984 0.500545 0.498716 -0.038289
C28   C     C_2   0.494302 0.116465 0.420218 -0.017300
Cu1   Cu    Cu3+1 0.519790 0.521810 0.644910 0.997016
Cu2   Cu    Cu3+1 0.480210 0.478190 0.355090 0.947720
H1    H     H_    0.424214 0.416420 0.846831 0.141575
H2    H     H_    0.518131 0.125755 0.829508 0.106203
H3    H     H_    0.655608 0.257684 0.046060 0.143615
H4    H     H_    0.830946 0.367997 0.015434 0.116719
H5    H     H_    0.869687 0.343741 0.765290 0.109601
H6    H     H_    0.734047 0.210646 0.546266 0.115053
H7    H     H_    0.827529 0.941580 0.536677 0.327207
H8    H     H_    0.303700 0.122287 0.249859 0.303275
H9    H     H_    0.574121 0.585451 0.153631 0.172315
H10   H     H_    0.611562 0.623174 0.933690 0.229730
H11   H     H_    0.389614 0.375541 0.065978 0.207266
H12   H     H_    0.328999 0.080452 0.707929 0.103420
H13   H     H_    0.117151 0.038506 0.664740 0.120830
H14   H     H_    0.020309 0.863466 0.440829 0.122932
H15   H     H_    0.136374 0.731886 0.257592 0.122385
H16   H     H_    0.347746 0.773826 0.296753 0.178313
N1    N     N_2   0.450460 0.445430 0.137370 -0.361668
N2    N     N_2   0.549540 0.554570 0.862630 -0.334083
O1    O     O_R   0.510560 0.332330 0.577400 -0.508651
O2    O     O_R   0.740229 0.932814 0.508103 -0.698129
O3    O     O_2   0.492645 0.924097 0.219380 -0.464942
O4    O     O_R   0.342942 0.044291 0.192153 -0.658479
O5    O     O_R   0.489440 0.667670 0.422600 -0.510382
O6    O     O_R   0.477140 0.295500 0.332650 -0.486328
O7    O     O_R   0.522860 0.704500 0.667350 -0.455783
O8    O     O_R   0.353910 0.518430 0.622380 -0.488660
O9    O     O_R   0.646090 0.481570 0.377620 -0.501016
O10   O     O_R   0.320490 0.481600 0.377630 -0.493111
O11   O     O_R   0.679510 0.518400 0.622370 -0.476866
O12   O     O_2   0.740550 0.867067 0.703650 -0.504214

loop_
_geom_bond_atom_site_label_1
_geom_bond_atom_site_label_2
_ccdc_geom_bond_type
C22   O10   A    
C1    C28   S    
C2    C4    D    
C1    O6    A    
C15   H2    S    
Cu1   Cu2   S    
Cu1   O8    S    
C16   H3    S    
C25   C27   T    
C11   C13   A    
C18   H5    S    
C12   O5    A    
C21   O3    D    
C2    C12   S    
C23   C25   S    
C17   C18   A    
H11   N1    S    
C7    C8    A    
Cu1   O1    S    
C23   O11   A    
H7    O2    S    
Cu2   O6    S    
C26   C27   S    
C5    C6    S    
C3    C14   S    
C6    N2    D    
C4    C7    S    
Cu2   O10   S    
C9    C10   A    
C3    C28   D    
C5    N1    D    
C21   C28   S    
C24   C26   T    
C6    H1    S    
C19   H6    S    
C5    H9    S    
C13   H16   S    
Cu2   O5    S    
C22   C24   S    
C11   H15   S    
C12   O7    A    
C9    H13   S    
C17   H4    S    
Cu1   N2    S    
C10   H14   S    
C15   C16   A    
Cu2   O9    S    
Cu1   O11   S    
Cu2   N1    S    
C7    C13   A    
H8    O4    S    
H10   N2    S    
C18   C19   A    
C10   C11   A    
C23   O9    A    
C14   C15   A    
C16   C17   A    
C20   O2    S    
Cu1   O7    S    
C20   O12   D    
C22   O8    A    
C2    C20   S    
C14   C19   A    
C21   O4    S    
C3    C4    S    
C8    H12   S    
C8    C9    A    
C1    O1    A    
