data_mof_unit_35393.cif
_audit_creation_date              2012-12-11T17:43:31-0500
_audit_creation_method            fapswitch 2.2
_symmetry_space_group_name_H-M    P1
_symmetry_Int_Tables_number       1
_space_group_crystal_system       triclinic
_cell_length_a                    15.199215
_cell_length_b                    15.212717
_cell_length_c                    17.010134
_cell_angle_alpha                 108.45043
_cell_angle_beta                  105.783911
_cell_angle_gamma                 109.835731
_cell_volume                      3176.53887533

loop_
_atom_site_label
_atom_site_type_symbol
_atom_type_description
_atom_site_fract_x
_atom_site_fract_y
_atom_site_fract_z
_atom_type_partial_charge
C1    C     C_R   0.083952 0.289544 0.078678 -0.128177
C2    C     C_R   0.090517 0.106081 0.089744 -0.238050
C3    C     C_R   0.004724 0.925034 0.056565 0.062173
C4    C     C_R   0.996264 0.109120 0.068449 0.055587
C5    C     C_R   0.094872 0.014322 0.078313 0.036263
C6    C     C_R   0.906605 0.021608 0.051583 0.046193
C7    C     C_R   0.720177 0.924880 0.943982 -0.172688
C8    C     C_R   0.280768 0.062491 0.157068 -0.170846
C9    C     C_R   0.595907 0.975529 0.978165 -0.152660
C10   C     C_R   0.368760 0.000939 0.071238 -0.153458
C11   C     C_R   0.610365 0.729019 0.348555 -0.093592
C12   C     C_R   0.912069 0.724503 0.968601 -0.133066
C13   C     C_R   0.479999 0.286956 0.698040 -0.108548
C14   C     C_R   0.581756 0.691323 0.254439 -0.137723
C15   C     C_R   0.485435 0.327635 0.786302 -0.130581
C16   C     C_R   0.937870 0.461770 0.735115 -0.128144
C17   C     C_R   0.063263 0.494191 0.258405 -0.130788
C18   C     C_R   0.527312 0.583214 0.196858 0.124226
C19   C     C_R   0.483541 0.423471 0.823472 0.127430
C20   C     C_R   0.501350 0.513360 0.234381 -0.178116
C21   C     C_R   0.473936 0.476658 0.770047 -0.186081
C22   C     C_R   0.526747 0.551566 0.328098 -0.116427
C23   C     C_R   0.028498 0.470459 0.726500 0.087462
C24   C     C_R   0.469249 0.435892 0.681979 -0.126683
C25   C     C_R   0.581573 0.659413 0.385251 -0.104847
C26   C     C_R   0.472246 0.341229 0.646019 -0.088672
C27   C     C_R   0.585560 0.517186 0.081867 -0.239754
C28   C     C_R   0.426054 0.499340 0.939176 -0.239266
C29   C     C_R   0.578199 0.483171 0.993030 0.060821
C30   C     C_R   0.434514 0.535724 0.028989 0.068040
C31   C     C_R   0.496901 0.470175 0.919705 0.013455
C32   C     C_R   0.513419 0.543385 0.100874 0.008216
C33   C     C_R   0.618368 0.906529 0.921279 -0.148548
C34   C     C_R   0.971170 0.441895 0.262854 0.082738
C35   C     C_R   0.369209 0.055358 0.154702 -0.181280
C36   C     C_R   0.960341 0.410954 0.333824 0.092761
C37   C     C_R   0.035691 0.425830 0.640178 0.115525
C38   C     C_R   0.134750 0.438984 0.550626 0.134616
C39   C     C_R   0.856880 0.361137 0.413889 0.140389
C40   C     C_R   0.765301 0.202198 0.813447 -0.140303
C41   C     C_R   0.279668 0.783642 0.176287 -0.157994
C42   C     C_R   0.130616 0.453322 0.634701 -0.237218
C43   C     C_R   0.866808 0.382597 0.341896 -0.232685
C44   C     C_R   0.944824 0.369092 0.560414 -0.287169
C45   C     C_R   0.736803 0.194752 0.726383 0.058579
C46   C     C_R   0.045276 0.416171 0.396538 -0.295639
C47   C     C_R   0.946431 0.374659 0.481083 0.085794
C48   C     C_R   0.042551 0.407118 0.474709 0.114978
C49   C     C_R   0.690769 0.099504 0.641438 0.133225
C50   C     C_R   0.438939 0.853845 0.322692 0.136416
C51   C     C_R   0.583627 0.026809 0.395378 -0.237533
C52   C     C_R   0.588667 0.911795 0.558182 -0.239332
C53   C     C_R   0.496158 0.945149 0.318458 -0.185495
C54   C     C_R   0.651469 0.001167 0.640614 -0.171026
C55   C     C_R   0.477980 0.839086 0.399320 -0.277576
C56   C     C_R   0.333152 0.780517 0.254682 0.071249
C57   C     C_R   0.679624 0.106359 0.559365 -0.281655
C58   C     C_R   0.562106 0.921362 0.477207 0.171921
C59   C     C_R   0.611927 0.017975 0.476815 0.191684
C60   C     C_R   0.675486 0.065526 0.057419 0.223789
C61   C     C_R   0.280884 0.955469 0.988860 0.214672
C62   C     C_R   0.778257 0.082176 0.081923 -0.228574
C63   C     C_R   0.192033 0.962676 0.991391 -0.195735
C64   C     C_R   0.297321 0.587324 0.996824 -0.169325
C65   C     C_R   0.713851 0.429768 0.020823 -0.174827
C66   C     C_R   0.801010 0.011729 0.025148 0.096405
C67   C     C_R   0.349290 0.545882 0.040119 0.072810
C68   C     C_R   0.190826 0.013371 0.075595 0.087374
C69   C     C_R   0.761194 0.294881 0.734722 -0.128497
C70   C     C_R   0.270755 0.688924 0.253036 -0.117601
C71   C     C_R   0.288690 0.488334 0.070459 -0.114699
C72   C     C_R   0.716995 0.522407 0.940516 -0.112849
C73   C     C_R   0.109150 0.535080 0.812735 -0.148586
C74   C     C_R   0.890682 0.409287 0.180818 -0.159121
C75   C     C_R   0.913054 0.202964 0.997921 -0.142939
C76   C     C_R   0.083356 0.803900 0.053129 -0.125871
C77   C     C_R   0.996139 0.196770 0.049628 0.064209
C78   C     C_R   0.664689 0.476331 0.982795 0.066198
C79   C     C_R   0.999130 0.821480 0.030485 0.055927
C80   C     C_3   0.239820 0.472920 0.548707 -0.441341
C81   C     C_3   0.286839 0.586555 0.562998 -0.229586
C82   C     C_3   0.386964 0.617396 0.550911 -0.976542
C83   C     C_3   0.757495 0.338805 0.427630 -0.440912
C84   C     C_3   0.665167 0.327281 0.352327 -0.252897
C85   C     C_3   0.571811 0.305102 0.375022 -0.968896
C86   C     C_3   0.650104 0.142577 0.115328 -0.484587
C87   C     C_3   0.590814 0.181737 0.058039 -0.231738
C88   C     C_3   0.569209 0.264448 0.115767 -0.968873
C89   C     C_R   0.914690 0.932734 0.050998 -0.243999
C90   C     C_3   0.282359 0.899702 0.898946 -0.460833
C91   C     C_3   0.294689 0.802086 0.892400 -0.234825
C92   C     C_3   0.297422 0.746196 0.801882 -0.966029
H1    H     H_    0.160379 0.318891 0.130530 0.085257
H2    H     H_    0.492386 0.285130 0.826146 0.108504
H3    H     H_    0.462695 0.429562 0.191239 0.117398
H4    H     H_    0.473102 0.550921 0.797473 0.111035
H5    H     H_    0.505928 0.497561 0.356687 0.115085
H6    H     H_    0.464402 0.478134 0.641813 0.111343
H7    H     H_    0.650369 0.527772 0.137475 0.142748
H8    H     H_    0.361002 0.488087 0.883437 0.130886
H9    H     H_    0.115473 0.434677 0.387196 0.135867
H10   H     H_    0.872369 0.334600 0.564027 0.118454
H11   H     H_    0.803558 0.382402 0.293991 0.116326
H12   H     H_    0.833828 0.710126 0.934722 0.091797
H13   H     H_    0.201719 0.490897 0.695883 0.119381
H14   H     H_    0.862676 0.429153 0.681221 0.083077
H15   H     H_    0.141158 0.520810 0.306043 0.089832
H16   H     H_    0.556639 0.838363 0.859590 0.125492
H17   H     H_    0.437828 0.090872 0.217590 0.135827
H18   H     H_    0.714994 0.181197 0.559228 0.113084
H19   H     H_    0.438117 0.767849 0.403110 0.126119
H20   H     H_    0.662778 0.992907 0.702890 0.118581
H21   H     H_    0.470141 0.956878 0.258662 0.117036
H22   H     H_    0.622588 0.099415 0.393296 0.126286
H23   H     H_    0.735958 0.869938 0.898930 0.116069
H24   H     H_    0.553347 0.837083 0.558556 0.125938
H25   H     H_    0.516319 0.959280 0.959326 0.113085
H26   H     H_    0.436551 0.993458 0.070528 0.109069
H27   H     H_    0.840138 0.149338 0.144395 0.125770
H28   H     H_    0.122908 0.926524 0.928510 0.116818
H29   H     H_    0.754897 0.139809 0.832793 0.095518
H30   H     H_    0.310687 0.835975 0.149085 0.103160
H31   H     H_    0.326701 0.642147 0.971125 0.097501
H32   H     H_    0.690566 0.384363 0.055404 0.121909
H33   H     H_    0.737149 0.315322 0.680469 0.088126
H34   H     H_    0.281173 0.103216 0.222281 0.124416
H35   H     H_    0.291234 0.652513 0.295162 0.089885
H36   H     H_    0.306447 0.447323 0.108890 0.095893
H37   H     H_    0.694721 0.559396 0.899509 0.100538
H38   H     H_    0.189967 0.559104 0.830658 0.105833
H39   H     H_    0.810563 0.355372 0.156248 0.105546
H40   H     H_    0.832278 0.149872 0.970086 0.113932
H41   H     H_    0.161334 0.858167 0.102907 0.127493
H42   H     H_    0.847159 0.865588 0.038637 0.132804
H43   H     H_    0.160163 0.170709 0.102439 0.128207
H44   H     H_    0.445813 0.612971 0.602747 0.260735
H45   H     H_    0.602836 0.689006 0.458058 0.108535
H46   H     H_    0.372819 0.565200 0.481129 0.262139
H47   H     H_    0.417379 0.699103 0.560156 0.249630
H48   H     H_    0.231999 0.597842 0.513829 0.199255
H49   H     H_    0.303384 0.639899 0.633168 0.206462
H50   H     H_    0.292942 0.467170 0.604112 0.191818
H51   H     H_    0.234001 0.418491 0.483698 0.186680
H52   H     H_    0.548369 0.231922 0.382815 0.261276
H53   H     H_    0.590311 0.371151 0.439480 0.264534
H54   H     H_    0.505990 0.295820 0.318797 0.253378
H55   H     H_    0.685414 0.400639 0.344805 0.207886
H56   H     H_    0.468898 0.310122 0.577954 0.104798
H57   H     H_    0.643725 0.260983 0.287049 0.211609
H58   H     H_    0.732590 0.264874 0.433733 0.178221
H59   H     H_    0.775635 0.403241 0.493176 0.193333
H60   H     H_    0.520178 0.231361 0.147298 0.280025
H61   H     H_    0.642418 0.333646 0.170031 0.248885
H62   H     H_    0.527051 0.290417 0.071416 0.257870
H63   H     H_    0.635983 0.214197 0.023578 0.187506
H64   H     H_    0.515293 0.115975 0.003870 0.193286
H65   H     H_    0.604039 0.104760 0.146581 0.182921
H66   H     H_    0.722074 0.209965 0.172623 0.189866
H67   H     H_    0.655483 0.812303 0.393116 0.124106
H68   H     H_    0.221445 0.713554 0.743895 0.272029
H69   H     H_    0.358600 0.801171 0.792202 0.261567
H70   H     H_    0.315054 0.681209 0.802139 0.238645
H71   H     H_    0.367249 0.823559 0.949216 0.182732
H72   H     H_    0.229177 0.748134 0.898432 0.204495
H73   H     H_    0.209639 0.875815 0.840785 0.195181
H74   H     H_    0.347108 0.954512 0.892560 0.179779
H75   H     H_    0.482613 0.213761 0.670260 0.114636
H76   H     H_    0.605505 0.745978 0.226988 0.114485
N1    N     N_R   0.055660 0.348550 0.045620 -0.039413
N2    N     N_R   0.185200 0.638170 0.176300 -0.039384
N3    N     N_R   0.201680 0.494570 0.045620 -0.039590
N4    N     N_R   0.798320 0.505430 0.954380 -0.039777
N5    N     N_R   0.068420 0.560530 0.871650 -0.046057
N6    N     N_R   0.931580 0.439470 0.128350 -0.035838
N7    N     N_R   0.948070 0.295860 0.997670 -0.040121
N8    N     N_R   0.051930 0.704140 0.002330 -0.046645
N9    N     N_R   0.944340 0.651450 0.954380 -0.041218
N10   N     N_R   0.960830 0.507850 0.823700 -0.040554
N11   N     N_R   0.039170 0.492150 0.176300 -0.039189
N12   N     N_R   0.811290 0.303410 0.871650 -0.040370
N13   N     N_R   0.188710 0.696590 0.128350 -0.039702
N14   N     N_R   0.205200 0.552990 0.997670 -0.036675
N15   N     N_R   0.794800 0.447010 0.002330 -0.037068
N16   N     N_R   0.814800 0.361830 0.823700 -0.037079
Ni1   Ni    Ni4+2 0.119340 0.493420 0.109960 0.210702
Ni2   Ni    Ni4+2 0.880660 0.506580 0.890040 0.218244
Ni3   Ni    Ni4+2 0.872590 0.372590 0.000000 0.210390
Ni4   Ni    Ni4+2 0.127410 0.627410 0.000000 0.204300

loop_
_geom_bond_atom_site_label_1
_geom_bond_atom_site_label_2
_ccdc_geom_bond_type
C92   H69   S    
C70   H35   S    
C81   H48   S    
C87   C88   S    
N5    Ni4   S    
C27   C29   A    
C1    C77   A    
C14   C18   A    
N3    N14   A    
C25   H45   S    
C76   C79   A    
C19   C31   S    
C41   N13   A    
C15   H2    S    
C81   C82   S    
C11   H67   S    
C72   H37   S    
C75   H40   S    
C15   C19   A    
C40   H29   S    
C27   H7    S    
C24   H6    S    
C72   N4    A    
C19   C21   A    
C85   H53   S    
C38   C42   A    
C17   H15   S    
C11   C14   A    
C57   C59   A    
C11   C25   A    
C49   C54   A    
C12   C79   A    
C49   C57   A    
C60   C62   A    
C65   H32   S    
C7    H23   S    
C37   C42   A    
C61   C63   A    
C72   C78   A    
C40   N12   A    
C29   C78   S    
C47   C48   A    
N4    Ni2   S    
C22   C25   A    
C36   C46   A    
C10   C35   A    
C89   H42   S    
C2    C5    A    
C18   C20   A    
C30   C67   S    
C35   H17   S    
C44   C47   A    
C16   H14   S    
C83   H58   S    
C64   N14   A    
C84   H57   S    
C28   H8    S    
C81   H49   S    
C12   N9    A    
C69   H33   S    
C22   H5    S    
C74   H39   S    
C90   H74   S    
C9    C33   A    
C7    C33   A    
C91   H71   S    
C33   H16   S    
C90   H73   S    
C23   C73   A    
C5    C68   S    
C85   H52   S    
C42   H13   S    
N13   Ni4   S    
C53   H21   S    
N8    Ni4   S    
C83   H59   S    
C52   H24   S    
C40   C45   A    
C46   H9    S    
C46   C48   A    
C50   C53   A    
C62   C66   A    
C45   C69   A    
C51   H22   S    
C64   C67   A    
C76   N8    A    
C85   H54   S    
C4    C6    A    
C91   C92   S    
C60   C86   S    
C86   C87   S    
C39   C43   A    
C58   C59   A    
C23   C37   S    
C75   N7    A    
C1    H1    S    
C50   C56   S    
N9    Ni2   S    
C51   C53   A    
C8    C35   A    
C88   H62   S    
C41   H30   S    
C2    C4    A    
C41   C56   A    
C82   H47   S    
C10   H26   S    
N12   Ni3   S    
N15   Ni3   S    
N6    Ni3   S    
C86   H66   S    
C83   C84   S    
C82   H44   S    
C45   C49   S    
C80   H51   S    
C73   H38   S    
N1    N7    A    
C54   H20   S    
C12   H12   S    
N14   Ni4   S    
C84   C85   S    
C26   H56   S    
C75   C77   A    
C62   H27   S    
C52   C58   A    
C34   C74   A    
C8    H34   S    
N8    N9    A    
C16   N10   A    
C20   H3    S    
C20   C22   A    
C8    C68   A    
C16   C23   A    
C80   H50   S    
C13   C15   A    
N2    N13   A    
C71   N3    A    
C13   C26   A    
C21   C24   A    
C10   C61   A    
C18   C32   S    
C17   C34   A    
C14   H76   S    
C6    C89   A    
C61   C90   S    
C39   C47   A    
C65   N15   A    
C84   H55   S    
C92   H70   S    
C63   C68   A    
C44   H10   S    
C65   C78   A    
C55   H19   S    
C27   C32   A    
C38   C48   A    
C28   C31   A    
C91   H72   S    
C50   C55   A    
C24   C26   A    
C80   C81   S    
C3    C5    A    
C88   H60   S    
C76   H41   S    
C57   H18   S    
C74   N6    A    
N11   Ni1   S    
C21   H4    S    
C64   H31   S    
C56   C70   A    
C2    H43   S    
C92   H68   S    
C3    C89   A    
C9    C60   A    
C87   H63   S    
C88   H61   S    
C37   C44   A    
C28   C30   A    
C70   N2    A    
N1    Ni1   S    
C4    C77   S    
C29   C31   A    
C7    C66   A    
C30   C32   A    
C63   H28   S    
N4    N15   A    
C17   N11   A    
C90   C91   S    
C38   C80   S    
N5    N10   A    
N2    Ni1   S    
C1    N1    A    
C34   C36   S    
N16   Ni2   S    
C52   C54   A    
C67   C71   A    
C73   N5    A    
C71   H36   S    
C86   H65   S    
C43   H11   S    
C13   H75   S    
C69   N16   A    
C39   C83   S    
N10   Ni2   S    
C3    C79   S    
C6    C66   S    
C51   C59   A    
C82   H46   S    
C55   C58   A    
N3    Ni1   S    
C87   H64   S    
C36   C43   A    
N6    N11   A    
N7    Ni3   S    
C9    H25   S    
N12   N16   A    
