data_mof_unit_51812.cif
_audit_creation_date              2012-12-10T20:50:09-0500
_audit_creation_method            fapswitch 2.2
_symmetry_space_group_name_H-M    P1
_symmetry_Int_Tables_number       1
_space_group_crystal_system       triclinic
_cell_length_a                    19.21604
_cell_length_b                    8.925041
_cell_length_c                    8.103026
_cell_angle_alpha                 89.999853
_cell_angle_beta                  90.000038
_cell_angle_gamma                 90.000036
_cell_volume                      1389.70092428

loop_
_atom_site_label
_atom_site_type_symbol
_atom_type_description
_atom_site_fract_x
_atom_site_fract_y
_atom_site_fract_z
_atom_type_partial_charge
C1    C     C_R   0.500000 0.217993 0.500000 0.939830
C2    C     C_R   0.253940 0.438442 0.366660 -0.226240
C3    C     C_R   0.181507 0.563303 0.635028 0.163492
C4    C     C_R   0.818492 0.563306 0.364970 0.163492
C5    C     C_R   0.818493 0.436694 0.635029 0.163493
C6    C     C_R   0.181508 0.436691 0.364971 0.163491
C7    C     C_R   0.145104 0.499997 0.499999 0.015371
C8    C     C_R   0.854896 0.500000 0.499999 0.015371
C9    C     C_R   0.289876 0.499999 0.500000 -0.104355
C10   C     C_R   0.710124 0.500001 0.500000 -0.104355
C11   C     C_R   0.930201 0.499999 0.499997 0.260053
C12   C     C_R   0.500000 0.782007 0.500000 0.939830
C13   C     C_R   0.069799 0.499997 0.499998 0.260053
C14   C     C_3   0.145463 0.630327 0.784313 -0.419902
C15   C     C_3   0.144383 0.801115 0.774582 -0.822660
C16   C     C_3   0.854536 0.630330 0.215684 -0.419901
C17   C     C_3   0.855616 0.801119 0.225414 -0.822659
C18   C     C_3   0.854537 0.369671 0.784314 -0.419901
C19   C     C_3   0.855615 0.198883 0.774587 -0.822664
C20   C     C_3   0.145464 0.369666 0.215686 -0.419900
C21   C     C_3   0.144384 0.198877 0.225419 -0.822647
C22   C     C_R   0.365259 0.500000 0.500000 0.881989
C23   C     C_R   0.634741 0.500000 0.500000 0.881989
C24   C     C_1   0.500000 0.065205 0.500000 -0.196451
C25   C     C_1   0.500000 0.934795 0.500000 -0.196451
C26   C     C_R   0.253939 0.561554 0.633339 -0.226240
C27   C     C_R   0.746060 0.561556 0.366659 -0.226240
C28   C     C_R   0.746060 0.438446 0.633340 -0.226239
H1    H     H_    0.282389 0.609610 0.736102 0.164339
H2    H     H_    0.801712 0.846044 0.227404 0.252618
H3    H     H_    0.883370 0.838661 0.338255 0.272931
H4    H     H_    0.882901 0.847200 0.115784 0.246695
H5    H     H_    0.908521 0.588099 0.201523 0.213845
H6    H     H_    0.826490 0.596502 0.101789 0.194400
H7    H     H_    0.801710 0.153961 0.772603 0.252618
H8    H     H_    0.883367 0.161338 0.661745 0.272932
H9    H     H_    0.882901 0.152802 0.884216 0.246695
H10   H     H_    0.908523 0.411900 0.798472 0.213845
H11   H     H_    0.826492 0.403503 0.898210 0.194400
H12   H     H_    0.717611 0.609612 0.263897 0.164339
H13   H     H_    0.198289 0.153953 0.227405 0.252615
H14   H     H_    0.116632 0.161336 0.338264 0.272929
H15   H     H_    0.117097 0.152797 0.115791 0.246694
H16   H     H_    0.091478 0.411897 0.201525 0.213843
H17   H     H_    0.173510 0.403494 0.101790 0.194399
H18   H     H_    0.717611 0.390390 0.736104 0.164340
H19   H     H_    0.282389 0.390386 0.263898 0.164339
H20   H     H_    0.198287 0.846041 0.772594 0.252617
H21   H     H_    0.116629 0.838657 0.661741 0.272932
H22   H     H_    0.117097 0.847195 0.884212 0.246695
H23   H     H_    0.091478 0.588095 0.798473 0.213845
H24   H     H_    0.173509 0.596498 0.898209 0.194401
N1    N     N_1   0.500000 0.500000 0.073640 -0.037381
N2    N     N_1   0.500000 0.500000 0.926360 -0.037381
N3    N     N_R   0.034504 0.368769 0.500236 -0.173611
N4    N     N_R   0.965496 0.631227 0.500233 -0.173610
N5    N     N_R   0.965495 0.368770 0.499762 -0.173610
N6    N     N_R   0.034505 0.631226 0.499759 -0.173610
O1    O     O_R   0.500000 0.285350 0.636850 -0.614999
O2    O     O_R   0.500000 0.714650 0.363150 -0.614999
O3    O     O_R   0.500000 0.714650 0.636850 -0.614999
O4    O     O_R   0.500000 0.285350 0.363150 -0.614999
O5    O     O_R   0.398140 0.500000 0.636920 -0.622150
O6    O     O_R   0.601860 0.500000 0.363080 -0.622150
O7    O     O_R   0.601860 0.500000 0.636920 -0.622150
O8    O     O_R   0.398140 0.500000 0.363080 -0.622150
Zn1   Zn    Zn3+2 0.500000 0.500000 0.682780 0.983421
Zn2   Zn    Zn3+2 0.500000 0.500000 0.317220 0.983421

loop_
_geom_bond_atom_site_label_1
_geom_bond_atom_site_label_2
_ccdc_geom_bond_type
C10   C27   A    
C4    C16   S    
C5    C8    A    
O8    Zn2   S    
C18   H11   S    
C6    C7    A    
N2    Zn1   S    
C16   H5    S    
C5    C28   A    
C6    C20   S    
O3    Zn1   S    
C14   H23   S    
O4    Zn2   S    
C12   C25   S    
C4    C8    A    
C5    C18   S    
O1    Zn1   S    
C1    O4    A    
C23   O7    A    
C1    O1    A    
C18   H10   S    
N3    N5    A    
C19   H7    S    
N1    N2    T    
C24   C25   T    
C17   H2    S    
C28   H18   S    
C2    C6    A    
C3    C14   S    
C11   N5    A    
C15   H20   S    
C1    C24   S    
C8    C11   S    
C21   H13   S    
O6    Zn2   S    
C23   O6    A    
C20   H16   S    
C17   H3    S    
N4    N6    A    
C9    C26   A    
C3    C7    A    
C19   H8    S    
C15   H21   S    
C2    H19   S    
O5    Zn1   S    
C9    C22   S    
O7    Zn1   S    
C21   H14   S    
C12   O2    A    
C7    C13   S    
C4    C27   A    
C12   O3    A    
C20   C21   S    
O2    Zn2   S    
C26   H1    S    
C18   C19   S    
C15   H22   S    
C10   C28   A    
C17   H4    S    
N1    Zn2   S    
C14   C15   S    
C22   O8    A    
C10   C23   S    
C13   N6    A    
C19   H9    S    
C27   H12   S    
C16   H6    S    
C22   O5    A    
C21   H15   S    
C2    C9    A    
C3    C26   A    
C14   H24   S    
C11   N4    A    
C20   H17   S    
C16   C17   S    
C13   N3    A    
