data_mof_unit_42983.cif
_audit_creation_date              2012-12-10T16:38:39-0500
_audit_creation_method            fapswitch 2.2
_symmetry_space_group_name_H-M    P1
_symmetry_Int_Tables_number       1
_space_group_crystal_system       triclinic
_cell_length_a                    10.862457
_cell_length_b                    10.85616
_cell_length_c                    17.908403
_cell_angle_alpha                 98.388828
_cell_angle_beta                  73.102671
_cell_angle_gamma                 98.589339
_cell_volume                      1986.2472602

loop_
_atom_site_label
_atom_site_type_symbol
_atom_type_description
_atom_site_fract_x
_atom_site_fract_y
_atom_site_fract_z
_atom_type_partial_charge
C1    C     C_R   0.157977 0.480375 0.516964 0.505960
C2    C     C_R   0.554574 0.367483 0.926802 -0.117924
C3    C     C_R   0.607668 0.298481 0.966621 0.258729
C4    C     C_R   0.842888 0.520408 0.482562 0.511279
C5    C     C_R   0.603900 0.336922 0.045305 0.001256
C6    C     C_R   0.551658 0.449885 0.083155 -0.019143
C7    C     C_R   0.648013 0.261323 0.087405 -0.110014
C8    C     C_R   0.641095 0.295575 0.166446 0.241765
C9    C     C_R   0.549149 0.483997 0.162629 -0.170479
C10   C     C_2   0.980508 0.527194 0.475796 -0.109915
C11   C     C_2   0.021982 0.472185 0.524894 0.115265
C12   C     C_R   0.350771 0.697950 0.837226 -0.111871
C13   C     C_2   0.542108 0.966424 0.477096 0.080509
C14   C     C_2   0.453462 0.037186 0.524270 0.105407
C15   C     C_R   0.467900 0.168674 0.517574 0.526514
C16   C     C_R   0.530263 0.832905 0.482889 0.518218
C17   C     C_R   0.564477 0.435245 0.288365 0.535050
C18   C     C_R   0.437326 0.564228 0.712103 0.505852
C19   C     C_R   0.416954 0.596295 0.797160 -0.024794
C20   C     C_R   0.589768 0.406378 0.203899 0.041449
C21   C     C_R   0.342328 0.733942 0.916655 0.251595
C22   C     C_3   0.810428 0.241238 0.199368 -0.022097
C23   C     C_R   0.469542 0.526949 0.837663 -0.151913
C24   C     C_3   0.847853 0.164818 0.252451 -0.342236
C25   C     C_3   0.787909 0.205437 0.895430 -0.025757
C26   C     C_3   0.818373 0.231433 0.810109 -0.369482
C27   C     C_3   0.359204 0.946775 0.936547 -0.007041
C28   C     C_3   0.293341 0.058017 0.984953 -0.354598
C29   C     C_R   0.455765 0.555238 0.918689 -0.011470
C30   C     C_R   0.394081 0.662454 0.957675 0.059262
C31   C     C_R   0.504521 0.481723 0.961294 -0.010231
C32   C     C_R   0.500117 0.522170 0.041240 0.032731
C33   C     C_R   0.440606 0.631419 0.077220 -0.136346
C34   C     C_R   0.387092 0.698405 0.036633 -0.114468
F1    F     F_    0.940217 0.409064 0.583720 -0.162728
F2    F     F_    0.645238 0.018570 0.422880 -0.182326
F3    F     F_    0.347512 0.989487 0.578425 -0.171284
H1    H     H_    0.341437 0.780437 0.067586 0.159350
H2    H     H_    0.865340 0.214382 0.137527 0.122712
H3    H     H_    0.821952 0.063292 0.237063 0.176950
H4    H     H_    0.953824 0.182867 0.245165 0.101560
H5    H     H_    0.796217 0.191626 0.314742 0.173430
H6    H     H_    0.828530 0.117796 0.896227 0.153324
H7    H     H_    0.838892 0.281280 0.928496 0.119837
H8    H     H_    0.789802 0.324098 0.806958 0.149672
H9    H     H_    0.924002 0.232256 0.781910 0.117222
H10   H     H_    0.765697 0.157421 0.777524 0.170381
H11   H     H_    0.378403 0.958512 0.873286 0.138924
H12   H     H_    0.685169 0.173660 0.059939 0.158343
H13   H     H_    0.452986 0.947480 0.950446 0.161966
H14   H     H_    0.276437 0.051041 0.048490 0.158615
H15   H     H_    0.355613 0.146530 0.969629 0.129613
H16   H     H_    0.199108 0.059966 0.972763 0.154580
H17   H     H_    0.049418 0.577672 0.430078 0.078491
H18   H     H_    0.511512 0.567742 0.195722 0.107681
H19   H     H_    0.308660 0.751970 0.806617 0.148253
H20   H     H_    0.524236 0.453147 0.803694 0.139399
H21   H     H_    0.431222 0.667759 0.137510 0.111460
H22   H     H_    0.550956 0.325686 0.869082 0.122851
H23   H     H_    0.838557 0.342268 0.216261 0.134863
O1    O     O_3   0.500000 0.500000 0.500000 -0.455161
O2    O     O_R   0.470800 0.371790 0.332500 -0.515219
O3    O     O_R   0.380610 0.619380 0.674980 -0.544386
O4    O     O_R   0.632640 0.524780 0.317540 -0.553232
O5    O     O_R   0.515950 0.484050 0.674980 -0.543157
O6    O     O_3   0.675888 0.216074 0.208556 -0.547421
O7    O     O_3   0.652424 0.186129 0.929548 -0.588517
O8    O     O_3   0.277193 0.835251 0.955325 -0.571334
O9    O     O_R   0.535460 0.243030 0.556410 -0.539293
O10   O     O_R   0.437420 0.784080 0.535340 -0.531408
O11   O     O_R   0.223560 0.397520 0.472140 -0.542354
O12   O     O_R   0.803560 0.575360 0.436110 -0.543019
O13   O     O_R   0.209690 0.568800 0.556400 -0.537041
O14   O     O_R   0.763190 0.458310 0.535350 -0.509626
O15   O     O_R   0.414000 0.207090 0.472140 -0.529376
O16   O     O_R   0.613120 0.765800 0.436110 -0.527073
Zn1   Zn    Zn3+2 0.577310 0.422690 0.565550 0.956395
Zn2   Zn    Zn3+2 0.403760 0.371330 0.445150 0.968192
Zn3   Zn    Zn3+2 0.634990 0.589920 0.423760 0.946777
Zn4   Zn    Zn3+2 0.383940 0.616050 0.565540 0.952056

loop_
_geom_bond_atom_site_label_1
_geom_bond_atom_site_label_2
_ccdc_geom_bond_type
C27   H11   S    
C15   O15   A    
C8    O6    S    
C33   H21   S    
C24   H5    S    
O9    Zn1   S    
C25   O7    S    
O16   Zn3   S    
C25   H6    S    
C6    C9    A    
C7    C8    A    
C18   O5    A    
C1    O11   A    
C23   C29   A    
O12   Zn3   S    
C17   O4    A    
C22   H23   S    
C5    C6    A    
C28   H14   S    
C18   O3    A    
O1    Zn4   S    
C17   C20   S    
C18   C19   S    
C22   O6    S    
C27   O8    S    
C26   H8    S    
O1    Zn1   S    
O14   Zn1   S    
C1    C11   S    
C9    H18   S    
C4    O14   A    
C27   H13   S    
C34   H1    S    
C13   C14   D    
C24   H4    S    
C25   H7    S    
O3    Zn4   S    
C15   O9    A    
O5    Zn1   S    
C30   C34   A    
O10   Zn4   S    
C16   O10   A    
C7    H12   S    
C13   F2    S    
C5    C7    A    
C2    H22   S    
C25   C26   S    
C12   C21   A    
C2    C31   A    
C19   C23   A    
C29   C30   A    
C17   O2    A    
C9    C20   A    
C31   C32   A    
O1    Zn2   S    
C33   C34   A    
C8    C20   A    
C12   H19   S    
C26   H10   S    
C21   O8    S    
O4    Zn3   S    
C22   C24   S    
C4    C10   S    
C4    O12   A    
C23   H20   S    
C16   O16   A    
O2    Zn2   S    
C3    O7    S    
C3    C5    A    
C28   H16   S    
C21   C30   A    
C1    O13   A    
C32   C33   A    
C11   F1    S    
C2    C3    A    
C29   C31   A    
C14   F3    S    
C28   H15   S    
O1    Zn3   S    
C22   H2    S    
C12   C19   A    
C24   H3    S    
O13   Zn4   S    
C10   H17   S    
O15   Zn2   S    
C10   C11   D    
C26   H9    S    
C6    C32   A    
C13   C16   S    
C27   C28   S    
C14   C15   S    
O11   Zn2   S    
