data_mof_unit_60013.cif
_audit_creation_date              2012-12-10T17:27:47-0500
_audit_creation_method            fapswitch 2.2
_symmetry_space_group_name_H-M    P1
_symmetry_Int_Tables_number       1
_space_group_crystal_system       triclinic
_cell_length_a                    18.337804
_cell_length_b                    18.338003
_cell_length_c                    42.88664
_cell_angle_alpha                 90.000525
_cell_angle_beta                  89.997035
_cell_angle_gamma                 90.218566
_cell_volume                      14421.7587984

loop_
_atom_site_label
_atom_site_type_symbol
_atom_type_description
_atom_site_fract_x
_atom_site_fract_y
_atom_site_fract_z
_atom_type_partial_charge
C1    C     C_R   0.055447 0.536828 0.884736 0.074958
C2    C     C_R   0.444567 0.963160 0.615263 0.074959
C3    C     C_R   0.639952 0.860053 0.749996 0.482060
C4    C     C_R   0.139871 0.639869 0.249999 0.489159
C5    C     C_R   0.860130 0.360129 0.750000 0.489110
C6    C     C_R   0.639950 0.860051 0.250000 0.482069
C7    C     C_R   0.360053 0.139952 0.750004 0.482069
C8    C     C_R   0.499989 0.999992 0.531671 0.358852
C9    C     C_R   0.500002 0.999991 0.468326 0.358852
C10   C     C_R   0.000005 0.500023 0.531672 0.358842
C11   C     C_R   0.000002 0.500014 0.468327 0.358844
C12   C     C_R   0.000009 0.500013 0.031674 0.358847
C13   C     C_R   0.963162 0.444577 0.384740 0.074990
C14   C     C_R   0.000020 0.500012 0.968328 0.358847
C15   C     C_R   0.499995 0.999987 0.031673 0.358845
C16   C     C_R   0.499992 0.999977 0.968328 0.358845
C17   C     C_R   0.000016 0.499997 0.868230 0.055042
C18   C     C_R   1.000000 0.500003 0.131771 0.055055
C19   C     C_R   0.499999 0.999986 0.868230 0.055038
C20   C     C_R   0.500002 0.999998 0.131771 0.055049
C21   C     C_R   0.500006 0.999996 0.368229 0.055051
C22   C     C_R   0.499988 0.000003 0.631770 0.055038
C23   C     C_R   0.999998 0.500002 0.368229 0.055045
C24   C     C_R   0.036845 0.555436 0.615262 0.074957
C25   C     C_R   0.000001 0.500013 0.631770 0.055038
C26   C     C_R   0.274079 0.618387 0.782919 -0.089240
C27   C     C_R   0.726154 0.381383 0.216845 -0.089314
C28   C     C_R   0.281425 0.174559 0.693785 -0.091019
C29   C     C_R   0.718534 0.825380 0.306228 -0.091110
C30   C     C_R   0.726465 0.381063 0.783417 -0.089367
C31   C     C_R   0.273756 0.618720 0.216767 -0.089322
C32   C     C_R   0.718512 0.825317 0.693761 -0.091207
C33   C     C_R   0.281467 0.174642 0.306231 -0.091146
C34   C     C_R   0.174616 0.281464 0.306228 -0.091121
C35   C     C_R   0.444569 0.963180 0.384739 0.074993
C36   C     C_R   0.825443 0.718577 0.693784 -0.091023
C37   C     C_R   0.381286 0.726252 0.216768 -0.089319
C38   C     C_R   0.618931 0.273533 0.783414 -0.089366
C39   C     C_R   0.825350 0.718523 0.306231 -0.091146
C40   C     C_R   0.174690 0.281496 0.693760 -0.091211
C41   C     C_R   0.618631 0.273845 0.216836 -0.089317
C42   C     C_R   0.381604 0.725917 0.782924 -0.089249
C43   C     C_R   0.773866 0.118596 0.283140 -0.089324
C44   C     C_R   0.225913 0.881621 0.717086 -0.089237
C45   C     C_R   0.781467 0.674621 0.193772 -0.091115
C46   C     C_R   0.555395 0.036857 0.615257 0.075020
C47   C     C_R   0.218572 0.325437 0.806216 -0.091022
C48   C     C_R   0.226246 0.881277 0.283232 -0.089325
C49   C     C_R   0.773531 0.118941 0.716580 -0.089370
C50   C     C_R   0.218533 0.325358 0.193769 -0.091144
C51   C     C_R   0.781487 0.674681 0.806239 -0.091206
C52   C     C_R   0.674559 0.781425 0.806216 -0.091028
C53   C     C_R   0.325384 0.218536 0.193772 -0.091120
C54   C     C_R   0.881064 0.226471 0.716582 -0.089370
C55   C     C_R   0.118723 0.773739 0.283238 -0.089321
C56   C     C_R   0.325312 0.218505 0.806240 -0.091208
C57   C     C_R   0.036840 0.555426 0.384737 0.075003
C58   C     C_R   0.674648 0.781476 0.193769 -0.091145
C59   C     C_R   0.118388 0.774091 0.717080 -0.089244
C60   C     C_R   0.881347 0.226175 0.283183 -0.089299
C61   C     C_R   0.338958 0.606935 0.799127 0.132420
C62   C     C_R   0.661393 0.392714 0.200514 0.132490
C63   C     C_R   0.246219 0.192355 0.666000 0.134001
C64   C     C_R   0.753749 0.807576 0.334010 0.133969
C65   C     C_R   0.661851 0.392240 0.799869 0.132586
C66   C     C_R   0.338478 0.607436 0.200407 0.132517
C67   C     C_R   0.753762 0.807521 0.665984 0.133916
C68   C     C_R   0.963146 0.444608 0.615258 0.075022
C69   C     C_R   0.246239 0.192446 0.334012 0.133943
C70   C     C_R   0.192416 0.246247 0.334010 0.133953
C71   C     C_R   0.807647 0.753784 0.666000 0.133996
C72   C     C_R   0.392575 0.661534 0.200407 0.132513
C73   C     C_R   0.607753 0.338144 0.799867 0.132586
C74   C     C_R   0.807546 0.753749 0.334012 0.133943
C75   C     C_R   0.192486 0.246245 0.665984 0.133915
C76   C     C_R   0.607300 0.338612 0.200509 0.132489
C77   C     C_R   0.393054 0.661034 0.799131 0.132419
C78   C     C_R   0.838619 0.107268 0.299479 0.132476
C79   C     C_R   0.316205 0.738248 0.766296 -0.009531
C80   C     C_R   0.161029 0.893077 0.700883 0.132419
C81   C     C_R   0.746252 0.692426 0.165990 0.133964
C82   C     C_R   0.253778 0.307640 0.834000 0.134000
C83   C     C_R   0.161527 0.892557 0.299597 0.132509
C84   C     C_R   0.838141 0.107768 0.700125 0.132585
C85   C     C_R   0.253760 0.307554 0.165988 0.133946
C86   C     C_R   0.746238 0.692478 0.834016 0.133917
C87   C     C_R   0.692355 0.746218 0.834001 0.133993
C88   C     C_R   0.307583 0.253753 0.165990 0.133956
C89   C     C_R   0.892239 0.161864 0.700126 0.132587
C90   C     C_R   0.683912 0.261634 0.233580 -0.009568
C91   C     C_R   0.107436 0.838454 0.299602 0.132516
C92   C     C_R   0.307515 0.253754 0.834016 0.133916
C93   C     C_R   0.692453 0.746251 0.165988 0.133943
C94   C     C_R   0.106933 0.838978 0.700879 0.132421
C95   C     C_R   0.892689 0.161394 0.299503 0.132508
C96   C     C_R   0.000025 0.500007 0.933867 -0.010188
C97   C     C_R   0.000004 0.500009 0.066135 -0.010188
C98   C     C_R   0.499994 0.999975 0.933867 -0.010184
C99   C     C_R   0.499998 0.999992 0.066134 -0.010185
C100  C     C_R   0.500007 0.999992 0.433865 -0.010188
C101  C     C_R   0.212419 0.266680 0.721912 -0.011765
C102  C     C_R   0.499983 0.999996 0.566132 -0.010187
C103  C     C_R   0.000000 0.500009 0.433866 -0.010180
C104  C     C_R   0.000004 0.500025 0.566133 -0.010185
C105  C     C_R   0.944547 0.463212 0.115263 0.074981
C106  C     C_R   0.787590 0.733320 0.278086 -0.011750
C107  C     C_R   0.684068 0.261473 0.766551 -0.009609
C108  C     C_R   0.316043 0.738417 0.233544 -0.009575
C109  C     C_R   0.787623 0.733335 0.721919 -0.011704
C110  C     C_R   0.212396 0.266676 0.278085 -0.011742
C111  C     C_R   0.266675 0.212406 0.278086 -0.011752
C112  C     C_R   0.733324 0.787585 0.721912 -0.011764
C113  C     C_R   0.261587 0.683960 0.233544 -0.009579
C114  C     C_R   0.738526 0.315929 0.766552 -0.009607
C115  C     C_R   0.733322 0.787601 0.278085 -0.011741
C116  C     C_R   0.463159 0.944560 0.884738 0.074958
C117  C     C_R   0.266667 0.212379 0.721920 -0.011704
C118  C     C_R   0.738367 0.316093 0.233583 -0.009559
C119  C     C_R   0.261750 0.683791 0.766294 -0.009524
C120  C     C_R   0.816081 0.238373 0.266425 -0.009566
C121  C     C_R   0.183791 0.761756 0.733705 -0.009530
C122  C     C_R   0.712409 0.766679 0.221914 -0.011751
C123  C     C_R   0.287581 0.233320 0.778088 -0.011765
C124  C     C_R   0.183960 0.761579 0.266457 -0.009573
C125  C     C_R   0.815930 0.238529 0.733449 -0.009609
C126  C     C_R   0.287604 0.233324 0.221915 -0.011743
C127  C     C_R   0.536816 0.055436 0.115261 0.074984
C128  C     C_R   0.712378 0.766666 0.778081 -0.011706
C129  C     C_R   0.766676 0.712415 0.778088 -0.011764
C130  C     C_R   0.233325 0.287594 0.221914 -0.011752
C131  C     C_R   0.761472 0.184073 0.733448 -0.009607
C132  C     C_R   0.238415 0.816038 0.266456 -0.009578
C133  C     C_R   0.233332 0.287620 0.778081 -0.011705
C134  C     C_R   0.766678 0.712399 0.221915 -0.011744
C135  C     C_R   0.238246 0.816213 0.733707 -0.009525
C136  C     C_R   0.761637 0.183904 0.266412 -0.009549
C137  C     C_R   0.304021 0.804023 0.750001 0.040143
C138  C     C_R   0.944602 0.463156 0.884743 0.075016
C139  C     C_R   0.695980 0.195976 0.249996 0.040139
C140  C     C_R   0.196066 0.303956 0.749995 0.031175
C141  C     C_R   0.803941 0.696051 0.250001 0.031166
C142  C     C_R   0.695976 0.195978 0.750000 0.040159
C143  C     C_R   0.304023 0.804022 0.250000 0.040147
C144  C     C_R   0.803955 0.696065 0.750005 0.031178
C145  C     C_R   0.196053 0.303943 0.249999 0.031169
C146  C     C_R   0.303947 0.196057 0.250001 0.031168
C147  C     C_R   0.696045 0.803935 0.749995 0.031177
C148  C     C_R   0.195979 0.695976 0.249999 0.040147
C149  C     C_R   0.055450 0.536804 0.115262 0.074992
C150  C     C_R   0.804023 0.304022 0.750001 0.040158
C151  C     C_R   0.696059 0.803948 0.249999 0.031166
C152  C     C_R   0.303934 0.196044 0.750005 0.031176
C153  C     C_R   0.804018 0.304026 0.250004 0.040136
C154  C     C_R   0.195977 0.695979 0.749998 0.040143
C155  C     C_R   0.055150 0.536524 0.917279 -0.078914
C156  C     C_R   0.944851 0.463522 0.082720 -0.078884
C157  C     C_R   0.463464 0.944857 0.917281 -0.078912
C158  C     C_R   0.536508 0.055130 0.082717 -0.078885
C159  C     C_R   0.944904 0.463475 0.917285 -0.078868
C160  C     C_R   0.536850 0.055395 0.884742 0.075020
C161  C     C_R   0.055152 0.536497 0.082720 -0.078881
C162  C     C_R   0.536534 0.055091 0.917284 -0.078867
C163  C     C_R   0.463486 0.944860 0.082721 -0.078881
C164  C     C_R   0.555147 0.036495 0.417279 -0.078887
C165  C     C_R   0.444867 0.963463 0.582720 -0.078915
C166  C     C_R   0.963468 0.444884 0.417283 -0.078883
C167  C     C_R   0.036541 0.555139 0.582719 -0.078913
C168  C     C_R   0.444871 0.963486 0.417281 -0.078884
C169  C     C_R   0.555094 0.036541 0.582715 -0.078869
C170  C     C_R   0.036535 0.555127 0.417279 -0.078881
C171  C     C_R   0.463180 0.944562 0.115263 0.074997
C172  C     C_R   0.963459 0.444913 0.582716 -0.078867
C173  C     C_R   0.000001 0.500003 0.665899 0.539022
C174  C     C_R   0.999999 0.499999 0.334100 0.539025
C175  C     C_R   0.499998 0.000000 0.665899 0.539019
C176  C     C_R   0.500002 1.000000 0.334100 0.539032
C177  C     C_R   0.500001 0.000001 0.165900 0.539032
C178  C     C_R   0.499999 0.999997 0.834100 0.539023
C179  C     C_R   0.999999 0.500000 0.165900 0.539034
C180  C     C_R   0.000003 0.500000 0.834100 0.539023
C181  C     C_R   0.860048 0.639947 0.750004 0.482060
C182  C     C_R   0.555452 0.036800 0.384736 0.074982
C183  C     C_R   0.139949 0.360051 0.249999 0.482061
C184  C     C_R   0.360130 0.860128 0.750001 0.489225
C185  C     C_R   0.639869 0.139872 0.249998 0.489208
C186  C     C_R   0.139947 0.360048 0.749996 0.482071
C187  C     C_R   0.860050 0.639949 0.250000 0.482070
C188  C     C_R   0.639869 0.139871 0.750000 0.489110
C189  C     C_R   0.360129 0.860130 0.250000 0.489159
C190  C     C_R   0.860129 0.360130 0.250001 0.489199
C191  C     C_R   0.139869 0.639873 0.749998 0.489225
C192  C     C_R   0.360051 0.139949 0.250001 0.482059
H1    H     H_    0.233448 0.575476 0.783631 0.138444
H2    H     H_    0.869344 0.679568 0.692789 0.153647
H3    H     H_    0.424194 0.766888 0.216059 0.138373
H4    H     H_    0.576020 0.232898 0.784120 0.138325
H5    H     H_    0.869202 0.679462 0.307240 0.153711
H6    H     H_    0.130877 0.320597 0.692741 0.153738
H7    H     H_    0.575726 0.233208 0.216124 0.138380
H8    H     H_    0.424512 0.766548 0.783641 0.138435
H9    H     H_    0.733251 0.075667 0.283832 0.138393
H10   H     H_    0.266545 0.924531 0.716373 0.138440
H11   H     H_    0.820511 0.630753 0.192767 0.153696
H12   H     H_    0.766785 0.424294 0.216138 0.138390
H13   H     H_    0.179564 0.369339 0.807211 0.153651
H14   H     H_    0.266878 0.924189 0.283940 0.138369
H15   H     H_    0.732894 0.076033 0.715872 0.138324
H16   H     H_    0.179474 0.369211 0.192760 0.153709
H17   H     H_    0.820584 0.630863 0.807257 0.153733
H18   H     H_    0.630659 0.820435 0.807212 0.153650
H19   H     H_    0.369250 0.179490 0.192767 0.153694
H20   H     H_    0.923974 0.267106 0.715876 0.138324
H21   H     H_    0.075818 0.733100 0.283951 0.138370
H22   H     H_    0.369128 0.179406 0.807258 0.153737
H23   H     H_    0.320430 0.130655 0.692790 0.153645
H24   H     H_    0.630796 0.820536 0.192760 0.153713
H25   H     H_    0.075479 0.733460 0.716363 0.138434
H26   H     H_    0.924236 0.266833 0.283910 0.138377
H27   H     H_    0.098483 0.564738 0.929527 0.180430
H28   H     H_    0.901500 0.435338 0.070470 0.180459
H29   H     H_    0.435243 0.901528 0.929531 0.180429
H30   H     H_    0.564710 0.098468 0.070466 0.180455
H31   H     H_    0.901580 0.435255 0.929538 0.180473
H32   H     H_    0.098502 0.564688 0.070470 0.180461
H33   H     H_    0.564762 0.098410 0.929535 0.180471
H34   H     H_    0.679491 0.869249 0.307233 0.153694
H35   H     H_    0.435279 0.901522 0.070472 0.180458
H36   H     H_    0.598490 0.064690 0.429529 0.180454
H37   H     H_    0.401542 0.935239 0.570471 0.180428
H38   H     H_    0.935249 0.401556 0.429534 0.180454
H39   H     H_    0.064763 0.598466 0.570469 0.180430
H40   H     H_    0.401532 0.935282 0.429532 0.180459
H41   H     H_    0.598411 0.064772 0.570463 0.180470
H42   H     H_    0.064758 0.598456 0.429528 0.180456
H43   H     H_    0.935229 0.401595 0.570465 0.180472
H44   H     H_    0.767101 0.423971 0.784126 0.138325
H45   H     H_    0.233121 0.575812 0.216057 0.138372
H46   H     H_    0.679414 0.869134 0.692742 0.153733
H47   H     H_    0.320526 0.130789 0.307240 0.153707
H48   H     H_    0.130749 0.320509 0.307233 0.153691
I1    I     I_    0.143578 0.590894 0.862122 -0.240247
I2    I     I_    0.356445 0.909074 0.637874 -0.240224
I3    I     I_    0.909085 0.356443 0.362135 -0.240525
I4    I     I_    0.090933 0.643556 0.637872 -0.240232
I5    I     I_    0.356438 0.909103 0.362135 -0.240561
I6    I     I_    0.643474 0.091021 0.637854 -0.240720
I7    I     I_    0.090949 0.643540 0.362131 -0.240558
I8    I     I_    0.908984 0.356526 0.637856 -0.240718
I9    I     I_    0.006762 0.851026 0.676938 -0.180740
I10   I     I_    0.992668 0.149538 0.323633 -0.179675
I11   I     I_    0.363808 0.222079 0.875045 -0.184062
I12   I     I_    0.856381 0.409192 0.137872 -0.240520
I13   I     I_    0.636048 0.777845 0.124976 -0.184038
I14   I     I_    0.992010 0.150193 0.675823 -0.178531
I15   I     I_    0.007514 0.850251 0.323782 -0.179378
I16   I     I_    0.635771 0.777675 0.874987 -0.184010
I17   I     I_    0.364041 0.222193 0.124983 -0.184019
I18   I     I_    0.222175 0.363965 0.124976 -0.184028
I19   I     I_    0.777908 0.636179 0.875044 -0.184057
I20   I     I_    0.149698 0.992490 0.323763 -0.179414
I21   I     I_    0.849818 0.007997 0.675823 -0.178534
I22   I     I_    0.777809 0.635969 0.124984 -0.184012
I23   I     I_    0.409079 0.856436 0.862128 -0.240244
I24   I     I_    0.222330 0.364230 0.874985 -0.183999
I25   I     I_    0.850522 0.007221 0.323572 -0.179770
I26   I     I_    0.148978 0.993267 0.676948 -0.180760
I27   I     I_    0.507313 0.350479 0.176382 -0.179678
I28   I     I_    0.493214 0.648994 0.823084 -0.180689
I29   I     I_    0.863952 0.722153 0.375024 -0.184043
I30   I     I_    0.136199 0.277923 0.624954 -0.184067
I31   I     I_    0.492510 0.649719 0.176240 -0.179416
I32   I     I_    0.507971 0.349821 0.824163 -0.178565
I33   I     I_    0.135958 0.277806 0.375016 -0.184028
I34   I     I_    0.590866 0.143585 0.137866 -0.240510
I35   I     I_    0.864236 0.722332 0.625014 -0.184014
I36   I     I_    0.722088 0.863816 0.624955 -0.184062
I37   I     I_    0.277824 0.136035 0.375023 -0.184029
I38   I     I_    0.650169 0.492018 0.824166 -0.178558
I39   I     I_    0.350303 0.507503 0.176240 -0.179405
I40   I     I_    0.277660 0.135755 0.625017 -0.184000
I41   I     I_    0.722197 0.864040 0.375016 -0.184010
I42   I     I_    0.351001 0.506753 0.823071 -0.180714
I43   I     I_    0.649514 0.492721 0.176400 -0.179704
I44   I     I_    0.856514 0.409005 0.862148 -0.240723
I45   I     I_    0.143591 0.590860 0.137868 -0.240584
I46   I     I_    0.591008 0.143480 0.862143 -0.240719
I47   I     I_    0.409097 0.856435 0.137871 -0.240573
I48   I     I_    0.643612 0.090825 0.362126 -0.240499
N1    N     N_R   0.946822 0.464840 0.984488 -0.195698
N2    N     N_R   0.553162 0.035202 0.515512 -0.195698
N3    N     N_R   0.035276 0.553152 0.484484 -0.195702
N4    N     N_R   0.964731 0.446887 0.515514 -0.195700
N5    N     N_R   0.553169 0.035201 0.484486 -0.195691
N6    N     N_R   0.446822 0.964781 0.515511 -0.195696
N7    N     N_R   0.964730 0.446882 0.484488 -0.195694
N8    N     N_R   0.035277 0.553156 0.515510 -0.195695
N9    N     N_R   0.053207 0.535187 0.015514 -0.195700
N10   N     N_R   0.535197 0.053156 0.984486 -0.195699
N11   N     N_R   0.464790 0.946808 0.015516 -0.195701
N12   N     N_R   0.053212 0.535187 0.984488 -0.195692
N13   N     N_R   0.946816 0.464840 0.015513 -0.195691
N14   N     N_R   0.464788 0.946803 0.984490 -0.195694
N15   N     N_R   0.535199 0.053161 0.015512 -0.195692
N16   N     N_R   0.446828 0.964781 0.484485 -0.195705
O1    O     O_3   1.000000 0.500000 0.750000 -0.462362
O2    O     O_R   0.060770 0.500000 0.319330 -0.515742
O3    O     O_R   0.500000 0.939230 0.680670 -0.515744
O4    O     O_R   0.500000 0.060770 0.319330 -0.515751
O5    O     O_R   0.560770 0.000000 0.180670 -0.515757
O6    O     O_R   0.439230 0.000000 0.819330 -0.515751
O7    O     O_R   0.000000 0.560770 0.180670 -0.515751
O8    O     O_R   1.000000 0.439230 0.819330 -0.515745
O9    O     O_R   0.439230 0.000000 0.180670 -0.515743
O10   O     O_R   0.560770 0.000000 0.819330 -0.515739
O11   O     O_R   0.000000 0.439230 0.180670 -0.515753
O12   O     O_3   1.000000 0.500000 0.250000 -0.462358
O13   O     O_R   0.000000 0.560770 0.819330 -0.515745
O14   O     O_R   0.853860 0.585440 0.731810 -0.540789
O15   O     O_R   0.146140 0.414560 0.268190 -0.540849
O16   O     O_R   0.414560 0.853860 0.731810 -0.525847
O17   O     O_R   0.585440 0.146140 0.268190 -0.525811
O18   O     O_R   0.146140 0.414560 0.731810 -0.540934
O19   O     O_R   0.853860 0.585440 0.268190 -0.540882
O20   O     O_R   0.585440 0.146140 0.731810 -0.525793
O21   O     O_R   0.414560 0.853860 0.268190 -0.525819
O22   O     O_R   0.853860 0.414560 0.268190 -0.525850
O23   O     O_3   0.500000 1.000000 0.750000 -0.462363
O24   O     O_R   0.146140 0.585440 0.731810 -0.525861
O25   O     O_R   0.414560 0.146140 0.268190 -0.540880
O26   O     O_R   0.585440 0.853860 0.731810 -0.540931
O27   O     O_R   0.146140 0.585440 0.268190 -0.525814
O28   O     O_R   0.853860 0.414560 0.731810 -0.525785
O29   O     O_R   0.585440 0.853860 0.268190 -0.540844
O30   O     O_R   0.414560 0.146140 0.731810 -0.540785
O31   O     O_R   0.353860 0.085440 0.231810 -0.540850
O32   O     O_R   0.646140 0.914560 0.768190 -0.540790
O33   O     O_R   0.914560 0.353860 0.231810 -0.525807
O34   O     O_3   0.500000 0.000000 0.250000 -0.462357
O35   O     O_R   0.085440 0.646140 0.768190 -0.525852
O36   O     O_R   0.646140 0.914560 0.231810 -0.540887
O37   O     O_R   0.353860 0.085440 0.768190 -0.540934
O38   O     O_R   0.085440 0.646140 0.231810 -0.525818
O39   O     O_R   0.914560 0.353860 0.768190 -0.525792
O40   O     O_R   0.353860 0.914560 0.768190 -0.525866
O41   O     O_R   0.646140 0.085440 0.231810 -0.525855
O42   O     O_R   0.914560 0.646140 0.768190 -0.540931
O43   O     O_R   0.085440 0.353860 0.231810 -0.540877
O44   O     O_R   0.646140 0.085440 0.768190 -0.525784
O45   O     O_R   0.060770 0.500000 0.680670 -0.515751
O46   O     O_R   0.353860 0.914560 0.231810 -0.525817
O47   O     O_R   0.085440 0.353860 0.768190 -0.540787
O48   O     O_R   0.914560 0.646140 0.231810 -0.540845
O49   O     O_R   0.939230 0.500000 0.319330 -0.515757
O50   O     O_R   0.500000 0.060770 0.680670 -0.515744
O51   O     O_R   0.500000 0.939230 0.319330 -0.515749
O52   O     O_R   0.939230 0.500000 0.680670 -0.515739
Zn1   Zn    Zn3+2 0.000000 0.586740 0.775960 0.971849
Zn2   Zn    Zn3+2 0.500000 0.913260 0.724040 0.971851
Zn3   Zn    Zn3+2 0.913260 0.500000 0.275960 0.971848
Zn4   Zn    Zn3+2 0.086740 0.500000 0.724040 0.971850
Zn5   Zn    Zn3+2 0.500000 0.913260 0.275960 0.971868
Zn6   Zn    Zn3+2 0.500000 0.086740 0.724040 0.971888
Zn7   Zn    Zn3+2 0.086740 0.500000 0.275960 0.971863
Zn8   Zn    Zn3+2 0.913260 0.500000 0.724040 0.971887
Zn9   Zn    Zn3+2 0.000000 0.413260 0.224040 0.971861
Zn10  Zn    Zn3+2 0.413260 0.000000 0.775960 0.971847
Zn11  Zn    Zn3+2 0.586740 0.000000 0.224040 0.971848
Zn12  Zn    Zn3+2 0.000000 0.413260 0.775960 0.971888
Zn13  Zn    Zn3+2 0.000000 0.586740 0.224040 0.971866
Zn14  Zn    Zn3+2 0.586740 0.000000 0.775960 0.971887
Zn15  Zn    Zn3+2 0.413260 0.000000 0.224040 0.971863
Zn16  Zn    Zn3+2 0.500000 0.086740 0.275960 0.971862

loop_
_geom_bond_atom_site_label_1
_geom_bond_atom_site_label_2
_ccdc_geom_bond_type
C157  H29   S    
C154  C191  S    
N2    N5    A    
C57   I7    S    
C137  C184  S    
C49   C131  A    
O38   Zn13  S    
O47   Zn12  S    
C63   I40   S    
C172  H43   S    
C4    C148  S    
C161  H32   S    
C95   I10   S    
C118  C153  A    
C39   C74   A    
C110  C111  A    
C74   I29   S    
C66   C72   A    
C43   H9    S    
C103  C170  A    
C71   I35   S    
C141  C187  S    
C110  C145  A    
C34   H48   S    
C36   C71   A    
C33   C69   A    
C153  C190  S    
C173  O45   A    
C44   C135  A    
C29   C64   A    
C15   N11   A    
O28   Zn8   S    
C70   I33   S    
C165  H37   S    
C175  O50   A    
C163  H35   S    
C98   C162  A    
O4    Zn16  S    
O51   Zn5   S    
C54   C125  A    
C58   C122  A    
O36   Zn11  S    
C121  C154  A    
C47   H13   S    
C5    O39   A    
C56   C123  A    
C62   I43   S    
C37   C108  A    
C59   H25   S    
C10   N4    A    
O7    Zn13  S    
C183  O15   A    
C108  C113  A    
O42   Zn1   S    
O18   Zn4   S    
C168  H40   S    
C51   H17   S    
C98   C157  A    
C45   H11   S    
C83   I20   S    
C156  H28   S    
C24   C25   A    
C2    C165  A    
C12   C97   S    
C88   I17   S    
C6    C151  S    
C87   I16   S    
C79   C137  A    
O32   Zn14  S    
C188  O44   A    
O17   Zn16  S    
C114  C150  A    
O15   Zn7   S    
C135  C137  A    
C123  C152  A    
C4    O27   A    
C26   C61   A    
C45   C81   A    
C128  C147  A    
C20   C177  S    
C21   C35   A    
C83   C91   A    
O41   Zn11  S    
C106  C115  A    
O43   Zn9   S    
O29   Zn5   S    
C134  C141  A    
C16   C98   S    
C13   C166  A    
C91   I15   S    
C24   I4    S    
C109  C144  A    
C69   C70   A    
C192  O31   A    
C36   H2    S    
C6    O36   A    
C7    C152  S    
C60   C95   A    
C25   C173  S    
C115  C151  A    
C65   I38   S    
O8    Zn12  S    
C41   C76   A    
C50   H16   S    
C3    C147  S    
C12   N9    A    
C128  C129  A    
C9    N5    A    
C22   C175  S    
C51   C129  A    
C129  C144  A    
C68   I8    S    
C11   N7    A    
O6    Zn10  S    
C169  H41   S    
C177  O5    A    
C19   C160  A    
C37   H3    S    
C49   C84   A    
C179  O7    A    
O14   Zn8   S    
C16   N10   A    
C176  O4    A    
C124  C132  A    
C14   N12   A    
C97   C156  A    
C67   I36   S    
C122  C134  A    
C40   C101  A    
C61   C77   A    
C56   H22   S    
C54   H20   S    
C29   C115  A    
C42   C79   A    
C44   H10   S    
O12   Zn13  S    
C7    O37   A    
O20   Zn6   S    
C29   H34   S    
O45   Zn4   S    
C21   C182  A    
C184  O40   A    
C24   C167  A    
C177  O9    A    
C46   I6    S    
C20   C127  A    
C111  C146  A    
C183  O43   A    
O39   Zn12  S    
C187  O19   A    
C160  C162  A    
C192  O25   A    
C184  O16   A    
C2    C22   A    
C27   C62   A    
C60   H26   S    
C125  C131  A    
C15   N15   A    
C35   C168  A    
C143  C189  S    
C66   I39   S    
C2    I2    S    
O49   Zn3   S    
C32   C67   A    
C33   C111  A    
O23   Zn2   S    
C9    C100  S    
C97   C161  A    
C89   I14   S    
C82   I24   S    
C34   C110  A    
C99   C163  A    
C10   N8    A    
C57   C170  A    
C85   C88   A    
C23   C57   A    
C3    O26   A    
C144  C181  S    
C105  I12   S    
C191  O35   A    
C55   H21   S    
C186  O47   A    
C75   I30   S    
C145  C183  S    
C1    C17   A    
O50   Zn6   S    
C77   I28   S    
C140  C186  S    
O34   Zn11  S    
C104  C167  A    
C40   H6    S    
C19   C116  A    
C132  C143  A    
C174  O49   A    
C38   H4    S    
N10   N15   A    
C43   C136  A    
N11   N14   A    
C30   C65   A    
C187  O48   A    
C96   C159  A    
C42   C77   A    
O23   Zn6   S    
C138  I44   S    
C6    O29   A    
C30   H44   S    
O44   Zn14  S    
C31   C113  A    
C173  O52   A    
C39   C106  A    
C52   H18   S    
O27   Zn7   S    
O31   Zn15  S    
N1    N13   A    
C41   H7    S    
O1    Zn4   S    
C52   C128  A    
C43   C78   A    
O16   Zn2   S    
C124  C148  A    
O25   Zn16  S    
C123  C133  A    
C7    O30   A    
C90   C118  A    
C58   C93   A    
O34   Zn15  S    
C171  I47   S    
C93   I13   S    
C67   C71   A    
C126  C130  A    
C82   C92   A    
C191  O24   A    
C188  O20   A    
C181  O42   A    
C55   C91   A    
C50   C85   A    
C12   N13   A    
C79   C119  A    
C72   I31   S    
C155  H27   S    
C59   C94   A    
O12   Zn3   S    
C163  C171  A    
C34   C70   A    
N6    N16   A    
C104  C172  A    
C28   H23   S    
C11   N3    A    
C39   H5    S    
C166  H38   S    
C47   C133  A    
C130  C145  A    
C62   C76   A    
C178  O6    A    
C25   C68   A    
C185  O41   A    
C136  C139  A    
C51   C86   A    
C14   C96   S    
O1    Zn8   S    
N4    N7    A    
C35   I5    S    
C78   I25   S    
C44   C80   A    
C9    N16   A    
O37   Zn10  S    
C23   C174  S    
O21   Zn5   S    
C86   C87   A    
C5    C150  S    
O35   Zn1   S    
C120  C136  A    
C107  C114  A    
C78   C95   A    
C14   N1    A    
C100  C164  A    
C127  C158  A    
O12   Zn7   S    
C22   C46   A    
C119  C154  A    
O2    Zn7   S    
C80   I26   S    
C84   I21   S    
C149  C161  A    
C80   C94   A    
C178  O10   A    
C113  C148  A    
C106  C141  A    
C30   C114  A    
C27   C118  A    
C55   C124  A    
C175  O3    A    
C32   C112  A    
O22   Zn3   S    
C73   I32   S    
O46   Zn15  S    
C112  C147  A    
C142  C188  S    
C181  O14   A    
C40   C75   A    
O30   Zn6   S    
C101  C117  A    
C61   I42   S    
N3    N8    A    
C116  I23   S    
C68   C172  A    
C32   H46   S    
C42   H8    S    
O11   Zn9   S    
C60   C120  A    
C160  I46   S    
C164  C182  A    
C125  C150  A    
C182  I48   S    
C20   C171  A    
C133  C140  A    
C37   C72   A    
C189  O21   A    
C176  O51   A    
C64   C74   A    
C48   C132  A    
C26   H1    S    
C108  C143  A    
C185  O17   A    
C59   C121  A    
C31   C66   A    
C174  O2    A    
C90   C139  A    
C126  C146  A    
O19   Zn3   S    
O9    Zn15  S    
C8    N2    A    
O3    Zn2   S    
C170  H42   S    
C13   C23   A    
C45   C134  A    
C8    N6    A    
C28   C117  A    
O1    Zn1   S    
O34   Zn5   S    
C96   C155  A    
O23   Zn10  S    
C38   C107  A    
C65   C73   A    
C47   C82   A    
C1    C155  A    
O12   Zn9   S    
C50   C130  A    
C64   I41   S    
C49   H15   S    
C17   C138  A    
C85   I18   S    
C53   C88   A    
C18   C149  A    
O26   Zn2   S    
O40   Zn10  S    
O5    Zn11  S    
C102  C169  A    
C41   C90   A    
C31   H45   S    
C81   I22   S    
C158  H30   S    
C146  C192  S    
C48   C83   A    
C138  C159  A    
C101  C140  A    
C180  O13   A    
O52   Zn8   S    
C27   H12   S    
C180  O8    A    
C26   C119  A    
C190  O22   A    
C54   C89   A    
C109  C112  A    
O24   Zn4   S    
C186  O18   A    
C121  C135  A    
O23   Zn14  S    
O13   Zn1   S    
C33   H47   S    
C81   C93   A    
C53   H19   S    
C21   C176  S    
C69   I37   S    
C164  H36   S    
C107  C142  A    
C19   C178  S    
C131  C142  A    
C1    I1    S    
O1    Zn12  S    
C17   C180  S    
O33   Zn9   S    
C18   C179  S    
C102  C165  A    
N9    N12   A    
O48   Zn13  S    
C99   C158  A    
C4    O38   A    
C84   C89   A    
C127  I34   S    
C16   N14   A    
C94   I9    S    
C162  H33   S    
C63   C75   A    
C92   I11   S    
C189  O46   A    
C149  I45   S    
C52   C87   A    
C15   C99   S    
C167  H39   S    
C46   C169  A    
C100  C168  A    
C122  C151  A    
C10   C104  S    
C18   C105  A    
O34   Zn16  S    
C116  C157  A    
C13   I3    S    
C5    O28   A    
C159  H31   S    
C3    O32   A    
C120  C153  A    
C190  O33   A    
C117  C152  A    
C86   I19   S    
C179  O11   A    
C53   C126  A    
C56   C92   A    
C105  C156  A    
C103  C166  A    
C76   I27   S    
C48   H14   S    
C36   C109  A    
O10   Zn14  S    
C28   C63   A    
C11   C103  S    
C139  C185  S    
C8    C102  S    
C38   C73   A    
C58   H24   S    
