data_mof_unit_17661.cif
_audit_creation_date              2013-03-05T16:33:33-0500
_audit_creation_method            fapswitch 2.2
_symmetry_space_group_name_H-M    P1
_symmetry_Int_Tables_number       1
_space_group_crystal_system       triclinic
_cell_length_a                    10.897792
_cell_length_b                    10.9692
_cell_length_c                    9.568597
_cell_angle_alpha                 91.031749
_cell_angle_beta                  90.624659
_cell_angle_gamma                 91.820859
_cell_volume                      1142.99238695

loop_
_atom_site_label
_atom_site_type_symbol
_atom_site_description
_atom_site_fract_x
_atom_site_fract_y
_atom_site_fract_z
_atom_type_partial_charge
O1    O     O_R   0.500000 0.319640 0.618810 -0.588274
O2    O     O_R   0.500010 0.319680 0.381230 -0.586607
C1    C     C_R   0.493466 0.262585 0.497731 0.796661
O3    O     O_R   0.319650 0.499970 0.618810 -0.570509
O4    O     O_R   0.319660 0.500010 0.381230 -0.549397
C2    C     C_R   0.262136 0.500444 0.498534 0.853640
Cu1   Cu    Cu3+1 0.499990 0.499980 0.640670 0.995981
Cu2   Cu    Cu3+1 0.500010 0.500020 0.359330 1.000782
O5    O     O_R   0.499990 0.680320 0.618770 -0.562508
O6    O     O_R   0.500000 0.680360 0.381190 -0.592157
O7    O     O_R   0.680340 0.499990 0.618770 -0.583314
O8    O     O_R   0.680350 0.500030 0.381190 -0.593344
C3    C     C_R   0.495182 0.737565 0.500692 0.829303
C4    C     C_R   0.737326 0.497342 0.500325 0.825300
C5    C     C_R   0.064784 0.488485 0.620280 0.092443
C6    C     C_R   0.128042 0.493452 0.494208 -0.217598
C7    C     C_R   0.059111 0.482106 0.367011 0.347005
C8    C     C_R   0.930978 0.475824 0.371469 -0.250027
H1    H     H_    0.879912 0.472234 0.273564 0.194194
C9    C     C_R   0.869683 0.485783 0.499044 -0.159576
C10   C     C_R   0.938072 0.484640 0.622657 0.136107
C11   C     C_3   0.934810 0.570141 0.744916 -0.481366
C12   C     C_3   0.073270 0.575265 0.742529 -0.316920
H2    H     H_    0.894552 0.658597 0.717543 0.199081
H3    H     H_    0.897695 0.524613 0.839059 0.220597
H4    H     H_    0.111372 0.666277 0.714571 0.261765
H5    H     H_    0.114740 0.535878 0.837234 0.245226
C13   C     C_R   0.489924 0.067711 0.616352 -0.003528
C14   C     C_R   0.484357 0.129135 0.491503 -0.124838
C15   C     C_R   0.464018 0.059774 0.366785 -0.081449
C16   C     C_R   0.456101 0.931479 0.372827 -0.090669
C17   C     C_R   0.486142 0.871222 0.499119 -0.086441
C18   C     C_R   0.504426 0.942112 0.622517 -0.041917
C19   C     C_3   0.429827 0.939922 0.755778 0.241973
C20   C     C_3   0.398959 0.072378 0.731904 -0.341603
H6    H     H_    0.427178 0.139049 0.816179 0.161628
C21   C     C_R   0.600799 0.541408 0.075648 0.235607
N1    N     N_R   0.500790 0.500930 0.147930 -0.203588
C22   C     C_R   0.408141 0.444284 0.073759 0.015475
H7    H     H_    0.333921 0.399949 0.129467 0.190782
C23   C     C_R   0.408096 0.442808 0.925811 0.053788
N2    N     N_R   0.500790 0.500890 0.852020 -0.207115
C24   C     C_R   0.601371 0.540365 0.928305 0.222714
C25   C     C_3   0.658586 0.664694 0.926247 -0.458788
C26   C     C_3   0.658274 0.665952 0.084819 -0.434810
H8    H     H_    0.752050 0.667573 0.884184 0.189369
H9    H     H_    0.595947 0.727388 0.875838 0.236836
H10   H     H_    0.751916 0.665686 0.132056 0.199016
H11   H     H_    0.596817 0.733936 0.131029 0.235727
N3    N     N_R   0.114927 0.487814 0.232335 0.110026
O9    O     O_R   0.165157 0.590482 0.192581 -0.333001
O10   O     O_R   0.085839 0.404542 0.138095 -0.391387
C27   C     C_1   0.507678 0.935461 0.882888 0.244088
N4    N     N_1   0.569030 0.936607 0.982401 -0.293907
C28   C     C_1   0.272971 0.089970 0.678543 0.427326
N5    N     N_1   0.174538 0.102959 0.635782 -0.228741
C29   C     C_1   0.307611 0.377393 0.858596 0.316792
N6    N     N_1   0.224471 0.324620 0.808326 -0.277339
C30   C     C_1   0.441544 0.117299 0.233924 0.327978
N7    N     N_1   0.423391 0.161958 0.127363 -0.305336
C31   C     C_1   0.402149 0.864357 0.253918 0.319292
N8    N     N_1   0.357917 0.810936 0.159905 -0.151926
N9    N     N_R   0.325522 0.850663 0.753572 0.128536
O11   O     O_R   0.308545 0.777175 0.857407 -0.345319
O12   O     O_R   0.255192 0.836598 0.643174 -0.401733

loop_
_geom_bond_atom_site_label_1
_geom_bond_atom_site_label_2
_geom_bond_distance
_ccdc_geom_bond_type
C7    N3    1.432525 S    
C21   C24   1.409786 A    
O4    Cu2   1.978824 S    
N3    O10   1.301411 A    
C24   C25   1.481986 S    
N9    O12   1.302341 A    
C21   N1    1.363855 A    
C12   H5    1.108905 S    
C23   N2    1.384096 A    
C16   C31   1.452622 S    
C3    C17   1.472868 S    
C8    C9    1.402101 A    
C16   C17   1.427684 A    
C25   H9    1.098260 S    
C26   H11   1.107476 S    
C19   N9    1.476190 S    
Cu2   O8    1.974135 S    
C5    C6    1.396974 A    
C17   C18   1.410842 A    
C31   N8    1.156971 T    
C28   N5    1.157867 T    
C5    C12   1.494976 S    
C7    C8    1.397036 A    
C23   C29   1.430312 S    
C30   N7    1.156942 T    
C22   C23   1.415452 A    
Cu1   N2    2.022090 S    
O1    Cu1   1.985468 S    
C27   N4    1.157168 T    
C15   C30   1.451297 S    
Cu1   O7    1.978824 S    
C1    C14   1.464142 S    
C29   N6    1.155213 T    
C14   C15   1.415261 A    
C5    C10   1.380632 A    
Cu2   N1    2.023114 S    
O3    Cu1   1.974135 S    
O4    C2    1.291589 A    
Cu2   O6    1.985468 S    
C13   C14   1.383760 A    
O8    C4    1.293384 A    
C13   C18   1.393966 A    
C18   C19   1.519833 S    
O2    C1    1.289975 A    
C15   C16   1.409454 A    
O7    C4    1.298580 A    
C11   H2    1.111869 S    
C26   H10   1.111703 S    
N2    C24   1.364842 A    
C21   C26   1.485413 S    
N9    O11   1.301755 A    
C4    C9    1.452136 S    
Cu1   Cu2   2.692039 S    
N1    C22   1.355667 A    
C9    C10   1.391597 A    
C19   C27   1.477756 S    
O3    C2    1.304639 A    
C19   C20   1.522401 S    
C12   H4    1.107401 S    
C22   H7    1.081015 S    
Cu1   O5    1.993004 S    
O5    C3    1.303812 A    
C11   C12   1.508602 S    
C8    H1    1.083878 S    
N3    O9    1.301324 A    
C10   C11   1.487592 S    
C2    C6    1.460999 S    
O6    C3    1.296765 A    
C20   C28   1.479231 S    
O2    Cu2   1.993001 S    
C25   C26   1.517169 S    
C20   H6    1.112993 S    
C13   C20   1.494301 S    
C25   H8    1.099000 S    
C6    C7    1.424706 A    
O1    C1    1.307004 A    
C11   H3    1.111663 S    
