data_mof_unit_40939.cif
_audit_creation_date              2013-03-05T15:44:34-0500
_audit_creation_method            fapswitch 2.2
_symmetry_space_group_name_H-M    P1
_symmetry_Int_Tables_number       1
_space_group_crystal_system       triclinic
_cell_length_a                    27.791751
_cell_length_b                    10.922278
_cell_length_c                    9.73976
_cell_angle_alpha                 89.565069
_cell_angle_beta                  90.067163
_cell_angle_gamma                 89.990343
_cell_volume                      2956.40939519

loop_
_atom_site_label
_atom_site_type_symbol
_atom_site_description
_atom_site_fract_x
_atom_site_fract_y
_atom_site_fract_z
_atom_type_partial_charge
O1    O     O_R   0.500010 0.321960 0.617040 -0.583632
O2    O     O_R   0.499990 0.321920 0.382900 -0.544946
C1    C     C_R   0.501029 0.265630 0.500164 0.841786
O3    O     O_R   0.430270 0.500040 0.617060 -0.536175
O4    O     O_R   0.430260 0.500000 0.382910 -0.556979
C2    C     C_R   0.407539 0.501547 0.499835 0.879438
Cu1   Cu    Cu3+1 0.500010 0.500020 0.638630 1.161048
Cu2   Cu    Cu3+1 0.499990 0.499980 0.361370 1.142306
O5    O     O_R   0.500010 0.678080 0.617100 -0.532988
O6    O     O_R   0.499990 0.678040 0.382960 -0.525550
O7    O     O_R   0.569740 0.500000 0.617090 -0.514575
O8    O     O_R   0.569730 0.499960 0.382940 -0.547803
C3    C     C_R   0.501620 0.734479 0.499866 0.874713
C4    C     C_R   0.592694 0.499214 0.500191 0.882488
C5    C     C_R   0.177955 0.419350 0.423982 0.611939
O9    O     O_2   0.203233 0.319299 0.387265 -0.472285
N1    N     N_R   0.201447 0.519727 0.473800 -0.451616
C6    C     C_R   0.177181 0.625320 0.503588 0.750157
C7    C     C_R   0.280517 0.584459 0.393546 0.659439
C8    C     C_R   0.330711 0.583656 0.400081 -0.197961
C9    C     C_R   0.326545 0.438349 0.593711 -0.125286
C10   C     C_R   0.275560 0.444345 0.588975 -0.124691
C11   C     C_R   0.253017 0.516828 0.487031 0.124115
C12   C     C_R   0.101848 0.525862 0.446598 -0.128137
C13   C     C_R   0.127696 0.420175 0.410615 -0.021910
C14   C     C_R   0.103276 0.321505 0.352251 -0.134791
C15   C     C_R   0.126946 0.631892 0.485943 -0.182269
C16   C     C_R   0.354276 0.507899 0.498361 -0.235919
H1    H     H_    0.123558 0.246369 0.308959 0.235129
C17   C     C_R   0.646190 0.497660 0.500927 -0.304196
C18   C     C_R   0.975921 0.409306 0.429678 -0.012443
C19   C     C_R   0.974771 0.626846 0.496666 -0.082672
C20   C     C_R   0.950148 0.515946 0.468278 -0.047676
C21   C     C_R   0.951136 0.295810 0.433113 0.622649
C22   C     C_R   0.901299 0.291743 0.443731 -0.147440
C23   C     C_R   0.874922 0.398695 0.465030 -0.077796
C24   C     C_R   0.899424 0.509946 0.484953 -0.132952
C25   C     C_R   0.873300 0.614255 0.525092 -0.235195
C26   C     C_R   0.822741 0.608461 0.528832 0.719894
N2    N     N_R   0.799554 0.500765 0.501680 -0.422355
C27   C     C_R   0.824580 0.395967 0.474167 0.687277
C28   C     C_R   0.722500 0.491587 0.376080 -0.135411
C29   C     C_R   0.671997 0.489912 0.376902 0.528198
C30   C     C_R   0.671815 0.503773 0.625751 0.518989
C31   C     C_R   0.722368 0.502511 0.627450 -0.133293
C32   C     C_R   0.747787 0.497801 0.501895 0.040436
O10   O     O_2   0.800718 0.289830 0.455092 -0.488206
C33   C     C_R   0.026202 0.417491 0.403963 0.032744
C34   C     C_R   0.050945 0.525623 0.442521 0.060923
C35   C     C_R   0.025344 0.634217 0.473931 -0.020194
C36   C     C_R   0.053203 0.323737 0.337677 -0.003062
H2    H     H_    0.883626 0.203400 0.440462 0.229242
O11   O     O_2   0.201706 0.723046 0.550597 -0.379667
C37   C     C_R   0.101797 0.743024 0.495930 0.616058
C38   C     C_R   0.948488 0.721563 0.561386 0.531014
C39   C     C_R   0.898479 0.718604 0.567292 0.618908
O12   O     O_2   0.796797 0.709361 0.558032 -0.431129
C40   C     C_R   0.051703 0.746316 0.476099 -0.157704
C41   C     C_2   0.508651 0.936170 0.390330 0.703962
C42   C     C_2   0.509715 0.865319 0.502793 -0.346228
H3    H     H_    0.519580 0.904090 0.601405 0.172711
C43   C     C_2   0.520513 0.066268 0.400972 -0.281441
C44   C     C_2   0.498657 0.133537 0.499220 0.378769
C45   C     C_2   0.505774 0.403287 0.926100 0.055666
N3    N     N_2   0.499480 0.498660 0.846910 0.037184
C46   C     C_2   0.491393 0.405019 0.075040 0.679057
N4    N     N_2   0.499460 0.498630 0.153040 -0.303599
C47   C     C_2   0.350761 0.359457 0.697825 0.971131
O13   O     O_2   0.341961 0.372628 0.819830 -0.504086
O14   O     O_R   0.383746 0.270623 0.655967 -0.696620
H4    H     H_    0.398240 0.223785 0.736213 0.387573
F1    F     F_    0.257660 0.654154 0.297314 -0.581432
F2    F     F_    0.126400 0.849784 0.510317 -0.544891
F3    F     F_    0.970765 0.811901 0.632143 -0.594881
F4    F     F_    0.647737 0.508363 0.747029 -0.561239
F5    F     F_    0.875258 0.815395 0.623706 -0.537414
C48   C     C_2   0.748273 0.505146 0.761383 1.012709
O15   O     O_2   0.731173 0.560617 0.858435 -0.471703
O16   O     O_R   0.792045 0.443478 0.777409 -0.748785
H5    H     H_    0.806023 0.452420 0.872998 0.343759
C49   C     C_2   0.029685 0.864516 0.431263 1.063378
O17   O     O_2   0.044381 0.961622 0.476947 -0.409486
O18   O     O_R   0.992338 0.864444 0.334839 -0.752842
H6    H     H_    0.980101 0.949829 0.312915 0.378602
F6    F     F_    0.497569 0.890118 0.264979 -0.527648
C50   C     C_2   0.557658 0.115447 0.304569 0.909439
O19   O     O_2   0.583017 0.202030 0.337293 -0.578914
O20   O     O_R   0.565432 0.057713 0.178895 -0.635774
H7    H     H_    0.592133 0.097625 0.123605 0.357034
C51   C     C_2   0.245189 0.373412 0.687082 0.973755
O21   O     O_2   0.254779 0.266585 0.713898 -0.496224
O22   O     O_R   0.204992 0.428511 0.746834 -0.731370
H8    H     H_    0.186880 0.370838 0.810346 0.360425
F7    F     F_    0.467604 0.081059 0.590387 -0.620867
C52   C     C_2   0.533733 0.296306 0.880140 0.862948
O23   O     O_2   0.569891 0.310842 0.810612 -0.508620
O24   O     O_R   0.519736 0.178578 0.920612 -0.656941
H9    H     H_    0.541649 0.112777 0.882693 0.359694
F8    F     F_    0.467917 0.580963 0.894078 -0.529092
F9    F     F_    0.470418 0.303443 0.129432 -0.584467
C53   C     C_2   0.532963 0.588564 0.105098 1.029835
O25   O     O_2   0.522010 0.696754 0.107062 -0.439169
O26   O     O_R   0.578390 0.553165 0.057834 -0.693141
H10   H     H_    0.598679 0.625380 0.026877 0.379226
F10   F     F_    0.648147 0.483612 0.255389 -0.560477
C54   C     C_2   0.748463 0.488715 0.242453 0.996450
O27   O     O_2   0.732122 0.429975 0.146682 -0.462164
O28   O     O_R   0.791346 0.553965 0.225165 -0.756695
H11   H     H_    0.805464 0.544420 0.129917 0.344492
F11   F     F_    0.974827 0.187317 0.439937 -0.631725
C55   C     C_2   0.032194 0.240909 0.232824 0.957376
O29   O     O_2   0.997062 0.273257 0.166006 -0.568063
O30   O     O_R   0.053675 0.127595 0.206907 -0.703763
H12   H     H_    0.036367 0.080173 0.132637 0.361338
C56   C     C_2   0.357299 0.667753 0.306568 1.002452
O31   O     O_2   0.390004 0.731156 0.350913 -0.545042
O32   O     O_R   0.344029 0.676745 0.168321 -0.633257
H13   H     H_    0.364642 0.737280 0.115239 0.379108

loop_
_geom_bond_atom_site_label_1
_geom_bond_atom_site_label_2
_geom_bond_distance
_ccdc_geom_bond_type
C38   C39   1.391474 A    
C53   O25   1.220509 D    
C39   F5    1.358458 S    
C52   O23   1.222142 D    
C12   C15   1.407457 A    
C49   O17   1.223357 D    
C23   C27   1.402314 A    
C15   C37   1.404640 A    
Cu1   Cu2   2.700449 S    
C3    C42   1.447205 S    
C31   C32   1.414261 A    
Cu1   O7    1.949484 S    
C43   C50   1.493532 S    
C44   F7    1.362359 S    
N1    C11   1.439170 S    
C23   C24   1.407626 A    
C24   C25   1.408948 A    
C28   C32   1.413987 A    
O4    C2    1.303045 A    
O7    C4    1.305840 A    
C50   O20   1.398164 S    
C5    C13   1.402732 A    
C54   O27   1.223170 D    
C56   O31   1.223159 D    
C26   O12   1.349167 S    
O28   H11   1.013779 S    
Cu1   O5    1.954511 S    
C21   C22   1.389724 A    
C29   F10   1.358012 S    
C46   F9    1.357696 S    
O5    C3    1.294103 A    
C6    O11   1.349249 S    
C38   F3    1.356965 S    
C33   C36   1.428087 A    
C2    C16   1.481925 S    
C55   O29   1.223353 D    
C47   O13   1.223040 D    
C56   O32   1.398398 S    
C18   C20   1.420587 A    
O14   H4    1.013876 S    
C19   C38   1.418400 A    
C46   N4    1.297797 D    
C41   C42   1.336630 D    
C53   O26   1.399718 S    
C9    C10   1.419161 A    
C17   C30   1.410278 A    
C7    F1    1.359813 S    
C4    C17   1.486858 S    
O3    Cu1   1.949307 S    
C49   O18   1.398946 S    
O24   H9    1.014001 S    
C48   O16   1.398413 S    
C27   O10   1.349609 S    
C35   C40   1.427188 A    
C12   C13   1.406350 A    
N3    F8    1.339991 S    
C8    C56   1.486042 S    
O3    C2    1.304211 A    
C40   C49   1.490781 S    
C26   N2    1.368739 A    
C50   O19   1.223475 D    
C8    C16   1.419914 A    
C13   C14   1.397784 A    
C48   O15   1.223162 D    
C20   C24   1.420673 A    
C42   H3    1.087454 S    
O1    C1    1.298409 A    
C22   C23   1.395991 A    
C45   C46   1.505390 S    
C30   F4    1.359531 S    
C7    C11   1.396583 A    
C41   F6    1.359018 S    
C43   C44   1.355110 D    
Cu1   N3    2.028609 S    
C37   F2    1.359925 S    
C51   O22   1.398384 S    
O18   H6    1.013757 S    
Cu2   O8    1.949302 S    
N1    C6    1.369086 A    
C10   C51   1.488827 S    
C18   C21   1.418449 A    
C55   O30   1.398839 S    
C28   C54   1.489409 S    
C19   C35   1.425292 A    
C14   H1    1.083823 S    
Cu2   O6    1.957742 S    
N2    C27   1.367687 A    
C9    C16   1.422903 A    
O8    C4    1.307542 A    
C18   C33   1.422648 A    
C9    C47   1.486146 S    
C21   F11   1.356675 S    
C17   C29   1.408667 A    
C28   C29   1.403718 A    
N2    C32   1.439049 S    
C22   H2    1.083458 S    
C30   C31   1.405098 A    
N4    C53   1.429771 S    
O30   H12   1.013847 S    
C37   C40   1.405710 A    
C12   C34   1.415200 A    
C5    N1    1.367919 A    
C33   C34   1.419571 A    
C41   C43   1.463177 S    
C36   C55   1.488308 S    
O1    Cu1   1.957742 S    
O2    Cu2   1.954511 S    
C6    C15   1.408184 A    
C45   C52   1.475783 S    
O6    C3    1.299648 A    
O4    Cu2   1.949486 S    
C52   O24   1.397479 S    
C1    C44   1.444371 S    
C19   C20   1.420165 A    
C7    C8    1.396390 A    
O2    C1    1.293267 A    
O32   H13   1.014036 S    
C45   N3    1.303088 D    
C51   O21   1.223013 D    
C25   C26   1.407054 A    
C54   O28   1.398418 S    
O22   H8    1.013795 S    
O16   H5    1.013795 S    
C25   C39   1.401535 A    
O20   H7    1.014006 S    
Cu2   N4    2.029286 S    
C47   O14   1.398059 S    
C34   C35   1.418592 A    
O26   H10   1.013871 S    
C10   C11   1.411239 A    
C31   C48   1.489701 S    
C14   C36   1.398853 A    
C5    O9    1.349760 S    
