data_mof_unit_13504.cif
_audit_creation_date              2012-12-11T16:09:32-0500
_audit_creation_method            fapswitch 2.2
_symmetry_space_group_name_H-M    P1
_symmetry_Int_Tables_number       1
_space_group_crystal_system       triclinic
_cell_length_a                    6.950727
_cell_length_b                    21.363406
_cell_length_c                    23.59714
_cell_angle_alpha                 90.051319
_cell_angle_beta                  90.039927
_cell_angle_gamma                 90.002005
_cell_volume                      3503.96544497

loop_
_atom_site_label
_atom_site_type_symbol
_atom_type_description
_atom_site_fract_x
_atom_site_fract_y
_atom_site_fract_z
_atom_type_partial_charge
O1    O     O_R   0.494270 0.443530 0.442350 -0.533395
O2    O     O_R   0.824060 0.436290 0.557250 -0.535118
O3    O     O_R   0.994370 0.556470 0.557650 -0.539218
C1    C     C_R   0.655276 0.421132 0.576674 0.724446
O4    O     O_R   0.823990 0.436120 0.442760 -0.530694
O5    O     O_R   0.994300 0.556300 0.442340 -0.537284
C2    C     C_R   0.655150 0.420907 0.423326 0.723867
O6    O     O_R   0.494350 0.443700 0.557660 -0.534006
O7    O     O_3   0.660800 0.539430 0.500000 -0.371269
V1    V     V_3+5 0.935650 0.492690 0.500000 1.467281
O8    O     O_R   0.324020 0.563710 0.442750 -0.538876
C3    C     C_R   0.155155 0.578862 0.423316 0.726791
O9    O     O_R   0.324090 0.563880 0.557240 -0.534731
C4    C     C_R   0.155332 0.579033 0.576660 0.716232
V2    V     V_3+5 0.435660 0.507310 0.500000 1.457461
O10   O     O_3   0.160640 0.460570 0.500000 -0.359807
C5    C     C_3   0.972269 0.731880 0.785367 -0.121205
C6    C     C_3   0.154361 0.693219 0.770346 -0.164160
C7    C     C_1   0.145683 0.624803 0.622065 -0.160646
C8    C     C_1   0.074103 0.874489 0.877098 -0.176930
C9    C     C_3   0.942884 0.747240 0.721677 -0.145403
C10   C     C_3   0.124685 0.709041 0.707159 0.093654
C11   C     C_3   0.068294 0.806998 0.728556 -0.149483
C12   C     C_3   0.098173 0.790870 0.791633 0.153828
C13   C     C_3   0.248787 0.768005 0.714071 0.026420
C14   C     C_3   0.280378 0.752829 0.777361 -0.179603
C15   C     C_1   0.136558 0.662803 0.660322 0.006434
C16   C     C_1   0.084156 0.836653 0.838723 -0.027905
H1    H     H_    0.803902 0.744514 0.698679 0.148414
C17   C     C_3   0.273056 0.807043 0.248044 -0.116521
C18   C     C_3   0.911511 0.789610 0.242184 -0.335045
C19   C     C_3   0.926736 0.742454 0.292235 -0.319320
H2    H     H_    0.789383 0.775722 0.214354 0.175882
H3    H     H_    0.874729 0.836906 0.258356 0.201029
H4    H     H_    0.907371 0.767902 0.332999 0.171961
H5    H     H_    0.808344 0.707554 0.288979 0.145045
C20   C     C_1   0.145250 0.624523 0.377810 -0.180993
C21   C     C_3   0.101414 0.790867 0.207217 0.111477
C22   C     C_3   0.284584 0.758535 0.297544 -0.362985
C23   C     C_3   0.124155 0.708391 0.291996 0.242455
C24   C     C_3   0.148930 0.675010 0.233982 -0.373313
C25   C     C_3   0.129027 0.722598 0.183904 -0.131595
C26   C     C_1   0.135947 0.662346 0.339394 -0.070612
C27   C     C_1   0.085489 0.837043 0.159802 -0.046100
C28   C     C_1   0.074510 0.874824 0.121412 -0.129480
H6    H     H_    0.995424 0.710072 0.160332 0.139654
H7    H     H_    0.290818 0.650863 0.233088 0.167053
H8    H     H_    0.427976 0.735325 0.296781 0.138617
H9    H     H_    0.037579 0.637888 0.229408 0.144022
C29   C     C_3   0.415067 0.259203 0.708644 -0.110713
C30   C     C_3   0.776959 0.239188 0.701468 -0.287946
C31   C     C_3   0.758637 0.190002 0.749745 -0.326210
H10   H     H_    0.370695 0.162405 0.741085 0.168205
H11   H     H_    0.921537 0.261427 0.703863 0.158202
H12   H     H_    0.769413 0.215715 0.659539 0.197327
H13   H     H_    0.729239 0.143139 0.731022 0.172203
H14   H     H_    0.897810 0.186668 0.772912 0.134895
C32   C     C_1   0.573691 0.123930 0.877142 -0.178176
C33   C     C_3   0.619142 0.290375 0.706931 0.191819
C34   C     C_3   0.403664 0.210031 0.757637 -0.377301
C35   C     C_3   0.595113 0.207951 0.791487 0.263973
C36   C     C_3   0.636787 0.274701 0.814465 -0.325309
C37   C     C_3   0.650696 0.322897 0.765138 -0.362814
C38   C     C_1   0.582926 0.161825 0.838787 -0.079936
C39   C     C_1   0.634648 0.337128 0.660101 -0.063384
C40   C     C_1   0.645270 0.375264 0.621985 -0.147501
H15   H     H_    0.541406 0.360333 0.771422 0.143564
H16   H     H_    0.794360 0.345903 0.766153 0.150088
H17   H     H_    0.520714 0.289154 0.844182 0.145218
H18   H     H_    0.309250 0.296908 0.718529 0.096363
H19   H     H_    0.283344 0.222676 0.786590 0.125092
H20   H     H_    0.774084 0.274653 0.838760 0.145163
C41   C     C_3   0.498642 0.315873 0.243854 -0.353840
C42   C     C_3   0.833019 0.278453 0.265806 -0.167867
C43   C     C_3   0.818255 0.229548 0.215752 -0.169847
H21   H     H_    0.509465 0.288179 0.154113 0.185733
H22   H     H_    0.560964 0.359618 0.226054 0.167193
H23   H     H_    0.884868 0.324136 0.248894 0.131792
H24   H     H_    0.900592 0.186556 0.226965 0.142565
C44   C     C_1   0.574414 0.124093 0.121478 -0.128657
C45   C     C_3   0.629721 0.290633 0.292058 0.183116
C46   C     C_3   0.475628 0.266693 0.195763 -0.301517
C47   C     C_3   0.604178 0.208542 0.206918 0.169902
C48   C     C_3   0.534447 0.179029 0.263447 -0.343779
C49   C     C_3   0.543354 0.227515 0.312619 -0.313952
C50   C     C_1   0.586152 0.162056 0.159795 -0.031418
C51   C     C_1   0.637992 0.337090 0.339465 -0.024638
C52   C     C_1   0.645651 0.375092 0.377842 -0.135546
H25   H     H_    0.396373 0.235419 0.329324 0.184063
H26   H     H_    0.628522 0.208207 0.348403 0.179786
H27   H     H_    0.384074 0.161804 0.258777 0.169955
H28   H     H_    0.354465 0.328210 0.260846 0.187381
H29   H     H_    0.322637 0.251863 0.193786 0.178799
H30   H     H_    0.625181 0.137813 0.274262 0.177400
O11   O     O_R   0.724990 0.055630 0.941600 -0.536918
O12   O     O_R   0.395220 0.063160 0.056480 -0.532506
O13   O     O_R   0.225040 0.942970 0.056870 -0.532795
C53   C     C_R   0.564069 0.078329 0.075973 0.731525
O14   O     O_R   0.395270 0.063000 0.941990 -0.539416
O15   O     O_R   0.225080 0.942800 0.941570 -0.536457
C54   C     C_R   0.564036 0.078197 0.922585 0.723919
O16   O     O_R   0.724940 0.055790 0.056910 -0.532203
O17   O     O_3   0.558580 0.959880 0.999250 -0.368758
V3    V     V_3+5 0.283680 0.006590 0.999220 1.466977
O18   O     O_R   0.895380 0.935350 0.941950 -0.538913
C55   C     C_R   0.064184 0.920197 0.922559 0.722114
O19   O     O_R   0.895330 0.935520 0.056440 -0.537297
C56   C     C_R   0.064214 0.920429 0.075903 0.730141
V4    V     V_3+5 0.783690 0.991900 0.999180 1.460939
O20   O     O_3   0.058660 0.038680 0.999200 -0.365627
H31   H     H_    0.189614 0.646221 0.787476 0.121368
C57   C     C_2   0.291796 0.716091 0.141528 0.749377
O21   O     O_2   0.459722 0.718179 0.156930 -0.579197
O22   O     O_R   0.248112 0.706745 0.084309 -0.663641
H32   H     H_    0.367473 0.702981 0.059869 0.298233
H33   H     H_    0.408730 0.803330 0.223440 0.143606
H34   H     H_    0.857176 0.717154 0.815099 0.114181
C58   C     C_2   0.355295 0.230800 0.652444 0.748543
O23   O     O_2   0.227151 0.255384 0.624760 -0.566739
O24   O     O_R   0.444004 0.176350 0.632472 -0.666151
H35   H     H_    0.390593 0.162187 0.594586 0.304341
H36   H     H_    0.419982 0.755366 0.800160 0.122969
C59   C     C_2   0.977519 0.258636 0.310537 0.703225
O25   O     O_2   0.081499 0.298056 0.332339 -0.574491
O26   O     O_R   0.987787 0.196292 0.328387 -0.672085
H37   H     H_    0.086280 0.189692 0.359503 0.294231
C60   C     C_2   0.907845 0.254502 0.161655 0.709480
O27   O     O_2   0.020487 0.221792 0.135031 -0.568576
O28   O     O_R   0.861453 0.314319 0.141875 -0.672261
H38   H     H_    0.930720 0.325158 0.105388 0.296554
C61   C     C_2   0.405465 0.789844 0.675288 0.727349
O29   O     O_2   0.492310 0.838105 0.686237 -0.558289
O30   O     O_R   0.452169 0.755041 0.627082 -0.667302
H39   H     H_    0.561059 0.774467 0.604585 0.295599
H40   H     H_    0.033323 0.853996 0.711353 0.144435
H41   H     H_    0.272600 0.781871 0.339592 0.169389
C62   C     C_2   0.266668 0.873612 0.270418 0.757274
O31   O     O_2   0.382853 0.912080 0.253067 -0.561136
O32   O     O_R   0.131510 0.890958 0.311394 -0.665508
H42   H     H_    0.143145 0.936571 0.322774 0.304725

loop_
_geom_bond_atom_site_label_1
_geom_bond_atom_site_label_2
_ccdc_geom_bond_type
C1    C40   S    
C51   C52   T    
C24   C25   S    
C6    C14   S    
C1    O6    A    
C57   O22   S    
O22   H32   S    
C59   O25   D    
C17   H33   S    
O24   H35   S    
C62   O32   S    
C29   C33   S    
C19   H5    S    
C12   C14   S    
C21   C25   S    
C31   C35   S    
O5    C3    A    
C59   O26   S    
V2    O10   S    
O15   V3    S    
C17   C21   S    
C25   H6    S    
C24   H9    S    
C3    C20   S    
C25   C57   S    
C58   O23   D    
C44   C50   T    
O1    C2    A    
O13   C56   A    
O8    V2    S    
C23   C26   S    
C47   C48   S    
C10   C13   S    
O12   C53   A    
C11   C12   S    
C18   H2    S    
O1    V2    S    
C48   H27   S    
C7    C15   T    
O7    V1    S    
C43   C60   S    
C28   C56   S    
C5    H34   S    
C11   C13   S    
C42   C59   S    
C46   H29   S    
C6    C10   S    
O9    C4    A    
O19   V4    S    
C41   C45   S    
C57   O21   D    
H10   C34   S    
C8    C55   S    
C22   H41   S    
C32   C38   T    
O32   H42   S    
C37   H15   S    
C5    C12   S    
C42   C43   S    
C30   C31   S    
C19   H4    S    
C6    H31   S    
O11   V4    S    
H21   C46   S    
C22   C23   S    
O4    C2    A    
C49   H25   S    
C8    C16   T    
C34   H19   S    
C13   C14   S    
C53   O16   A    
C9    H1    S    
C5    C9    S    
C36   H17   S    
C34   C35   S    
C20   C26   T    
C35   C38   S    
O2    C1    A    
C60   O28   S    
C21   C27   S    
C36   C37   S    
C2    C52   S    
O19   C56   A    
C5    C6    S    
C24   H7    S    
C18   H3    S    
C36   H20   S    
C32   C54   S    
C48   H30   S    
C48   C49   S    
C45   C51   S    
O3    C4    A    
C23   C24   S    
O14   C54   A    
C39   C40   T    
O6    V2    S    
C10   C15   S    
O9    V2    S    
O26   H37   S    
C30   C33   S    
C42   C45   S    
C60   O27   D    
O2    V1    S    
C41   C46   S    
C27   C28   T    
O28   H38   S    
C62   O31   D    
O12   V3    S    
O18   V4    S    
C37   H16   S    
C44   C53   S    
C29   C58   S    
O15   C55   A    
C4    C7    S    
C18   C19   S    
C12   C16   S    
C41   H28   S    
C61   O30   S    
O5    V1    S    
C49   H26   S    
O18   C55   A    
C33   C37   S    
C18   C21   S    
C11   H40   S    
O17   V4    S    
C30   H11   S    
C29   C34   S    
C9    C11   S    
O7    V2    S    
O4    V1    S    
O3    V1    S    
V1    O10   S    
V4    O20   S    
C33   C39   S    
V3    O20   S    
C43   C47   S    
O30   H39   S    
C31   H13   S    
C17   C22   S    
O14   V3    S    
C30   H12   S    
C19   C23   S    
C29   H18   S    
C35   C36   S    
C58   O24   S    
O13   V3    S    
C31   H14   S    
O11   C54   A    
C47   C50   S    
C46   C47   S    
C42   H23   S    
O17   V3    S    
C17   C62   S    
C41   H22   S    
O16   V4    S    
C14   H36   S    
C9    C10   S    
C43   H24   S    
C45   C49   S    
C61   O29   D    
O8    C3    A    
C22   H8    S    
C13   C61   S    
