data_mof_unit_8972.cif
_audit_creation_date              2012-12-10T17:37:26-0500
_audit_creation_method            fapswitch 2.2
_symmetry_space_group_name_H-M    P1
_symmetry_Int_Tables_number       1
_space_group_crystal_system       triclinic
_cell_length_a                    11.976586
_cell_length_b                    12.849139
_cell_length_c                    16.838999
_cell_angle_alpha                 90.637443
_cell_angle_beta                  82.214316
_cell_angle_gamma                 93.737063
_cell_volume                      2561.9798603

loop_
_atom_site_label
_atom_site_type_symbol
_atom_type_description
_atom_site_fract_x
_atom_site_fract_y
_atom_site_fract_z
_atom_type_partial_charge
C1    C     C_R   0.522735 0.700319 0.497308 0.917000
C2    C     C_R   0.477265 0.299681 0.502692 0.916998
C3    C     C_R   0.462376 0.188339 0.503386 -0.161616
C4    C     C_R   0.537624 0.811661 0.496614 -0.161617
C5    C     C_R   0.623379 0.966827 0.549205 -0.175221
C6    C     C_R   0.376621 0.033173 0.450796 -0.175221
C7    C     C_R   0.621224 0.860404 0.536916 -0.305693
C8    C     C_R   0.378775 0.139596 0.463084 -0.305693
C9    C     C_R   0.460590 0.869135 0.462631 0.477888
C10   C     C_R   0.539410 0.130865 0.537370 0.477888
C11   C     C_R   0.459040 0.975438 0.478058 -0.001281
C12   C     C_R   0.540960 0.024562 0.521943 -0.001280
C13   C     C_R   0.961877 0.403422 0.424282 -0.333863
C14   C     C_R   0.038123 0.596578 0.575718 -0.333863
C15   C     C_R   0.844811 0.412519 0.431740 0.054866
C16   C     C_R   0.155189 0.587481 0.568260 0.054866
C17   C     C_R   0.855029 0.541398 0.532927 -0.048996
C18   C     C_R   0.144971 0.458602 0.467073 -0.048995
C19   C     C_R   0.973016 0.535005 0.527574 0.090794
C20   C     C_R   0.026984 0.464995 0.472426 0.090794
C21   C     C_R   0.485010 0.497215 0.653589 0.879643
C22   C     C_R   0.514990 0.502784 0.346411 0.879644
C23   C     C_R   0.476199 0.479670 0.739164 -0.087378
C24   C     C_R   0.523801 0.520328 0.260836 -0.087376
C25   C     C_R   0.564648 0.433926 0.769677 -0.317449
C26   C     C_R   0.435355 0.566076 0.230322 -0.317458
C27   C     C_R   0.560161 0.418742 0.852013 0.562652
C28   C     C_R   0.439843 0.581259 0.147986 0.562664
C29   C     C_R   0.464094 0.447205 0.902467 -0.008419
C30   C     C_R   0.535908 0.552791 0.097533 -0.008421
C31   C     C_R   0.373402 0.488150 0.871897 -0.241985
C32   C     C_R   0.626597 0.511841 0.128103 -0.242002
C33   C     C_R   0.379156 0.504037 0.790134 -0.185612
C34   C     C_R   0.620843 0.495955 0.209867 -0.185606
C35   C     C_2   0.470072 0.457531 0.988348 0.456296
C36   C     C_2   0.529930 0.542466 0.011651 0.456304
H1    H     H_    0.637012 0.410425 0.729541 0.166974
H2    H     H_    0.362993 0.589580 0.270458 0.166973
H3    H     H_    0.205389 0.634864 0.605455 0.130567
H4    H     H_    0.794611 0.365136 0.394545 0.130567
H5    H     H_    0.000990 0.348895 0.381315 0.143436
H6    H     H_    0.999010 0.651105 0.618685 0.143435
H7    H     H_    0.690326 0.461825 0.232863 0.158329
H8    H     H_    0.309670 0.538165 0.767137 0.158330
H9    H     H_    0.301089 0.512588 0.911858 0.160570
H10   H     H_    0.698908 0.487399 0.088143 0.160567
H11   H     H_    0.318657 0.184446 0.437781 0.179063
H12   H     H_    0.681343 0.815553 0.562219 0.179063
H13   H     H_    0.687571 0.002976 0.581945 0.197646
H14   H     H_    0.312428 0.997024 0.418056 0.197646
H15   H     H_    0.188011 0.405179 0.425128 0.122887
H16   H     H_    0.811989 0.594821 0.574872 0.122886
N1    N     N_R   0.206400 0.519440 0.514690 -0.099623
N2    N     N_R   0.793600 0.480560 0.485310 -0.099623
O1    O     O_R   0.421320 0.658850 0.503920 -0.571841
O2    O     O_R   0.578680 0.341150 0.496080 -0.571841
O3    O     O_R   0.609840 0.646370 0.494500 -0.634503
O4    O     O_R   0.390160 0.353630 0.505500 -0.634503
O5    O     O_R   0.394600 0.506990 0.621070 -0.633118
O6    O     O_R   0.605400 0.493010 0.378930 -0.633118
O7    O     O_R   0.583120 0.494520 0.611640 -0.618621
O8    O     O_R   0.416880 0.505480 0.388360 -0.618620
Zn1   Zn    Zn3+2 0.374120 0.508330 0.506290 0.958711
Zn2   Zn    Zn3+2 0.625880 0.491670 0.493710 0.958710
O9    O     O_3   0.584288 0.613357 0.954103 -0.637534
C37   C     C_3   0.631337 0.703830 0.988328 -0.320601
H17   H     H_    0.666876 0.758254 0.939317 0.193158
H18   H     H_    0.701818 0.684944 0.021272 0.161180
H19   H     H_    0.565827 0.744621 0.027872 0.188944
O10   O     O_3   0.415707 0.386643 0.045896 -0.637539
C38   C     C_3   0.368685 0.296157 0.011671 -0.320599
H20   H     H_    0.434212 0.255373 0.972138 0.188947
H21   H     H_    0.298209 0.315023 0.978716 0.161185
H22   H     H_    0.333147 0.241733 0.060683 0.193158
O11   O     O_3   0.354315 0.626034 0.114678 -0.629089
C39   C     C_3   0.247561 0.577077 0.142998 -0.321553
H23   H     H_    0.213405 0.610400 0.201750 0.164543
H24   H     H_    0.249644 0.490715 0.146999 0.191121
H25   H     H_    0.188338 0.593096 0.100030 0.188865
O12   O     O_3   0.645692 0.373970 0.885321 -0.629097
C40   C     C_3   0.752443 0.422935 0.857003 -0.321564
H26   H     H_    0.750354 0.509296 0.853005 0.191125
H27   H     H_    0.786601 0.389617 0.798250 0.164547
H28   H     H_    0.811667 0.406918 0.899971 0.188864
O13   O     O_3   0.618203 0.179721 0.580870 -0.603430
C41   C     C_3   0.568164 0.188020 0.661265 -0.321554
H29   H     H_    0.537087 0.110345 0.687049 0.157491
H30   H     H_    0.633117 0.220868 0.697235 0.201663
H31   H     H_    0.498251 0.241698 0.666969 0.154698
O14   O     O_3   0.381797 0.820279 0.419129 -0.603430
C42   C     C_3   0.431837 0.811981 0.338735 -0.321554
H32   H     H_    0.366884 0.779135 0.302764 0.201661
H33   H     H_    0.462915 0.889657 0.312951 0.157491
H34   H     H_    0.501750 0.758302 0.333031 0.154699

loop_
_geom_bond_atom_site_label_1
_geom_bond_atom_site_label_2
_ccdc_geom_bond_type
C37   H18   S    
C10   O13   S    
C27   C29   A    
C35   C36   D    
C39   H25   S    
C13   H5    S    
C40   H26   S    
O13   C41   S    
C39   H24   S    
C21   O5    A    
C22   O6    A    
C41   H30   S    
C37   H19   S    
C42   H33   S    
C18   C20   A    
C16   N1    A    
C18   N1    A    
C25   H1    S    
C19   C20   A    
C35   O10   S    
C23   C33   A    
O1    Zn1   S    
O2    Zn2   S    
O10   C38   S    
C21   O7    A    
C14   H6    S    
C37   H17   S    
C5    H13   S    
C4    C7    A    
C17   H16   S    
C40   H27   S    
C18   H15   S    
C15   N2    A    
C39   H23   S    
C5    C12   A    
C3    C8    A    
C6    C11   A    
C5    C7    A    
C41   H29   S    
C26   H2    S    
C6    C8    A    
C24   C34   A    
C32   C34   A    
O7    Zn2   S    
O11   C39   S    
O8    Zn1   S    
C1    O3    A    
C22   O8    A    
C13   C15   A    
C31   C33   A    
C6    H14   S    
C9    C11   A    
C10   C12   A    
C27   O12   S    
C21   C23   S    
C14   C16   A    
O5    Zn1   S    
C42   H32   S    
C40   H28   S    
O3    Zn2   S    
C38   H21   S    
O4    Zn1   S    
C13   C20   A    
C36   O9    S    
C33   H8    S    
C32   H10   S    
C14   C19   A    
C34   H7    S    
C24   C26   A    
O12   C40   S    
C41   H31   S    
C9    O14   S    
C38   H22   S    
C11   C12   A    
C2    O4    A    
C25   C27   A    
C29   C35   S    
C26   C28   A    
C30   C36   S    
O6    Zn2   S    
C1    C4    S    
C7    H12   S    
C28   C30   A    
C2    C3    S    
C1    O1    A    
C8    H11   S    
C38   H20   S    
C29   C31   A    
C3    C10   A    
C2    O2    A    
C42   H34   S    
C30   C32   A    
N1    Zn1   S    
O14   C42   S    
N2    Zn2   S    
C17   C19   A    
C22   C24   S    
C23   C25   A    
C15   H4    S    
C16   H3    S    
O9    C37   S    
C31   H9    S    
C4    C9    A    
C28   O11   S    
C17   N2    A    
