data_mof_unit_35858.cif
_audit_creation_date              2012-12-10T17:58:16-0500
_audit_creation_method            fapswitch 2.2
_symmetry_space_group_name_H-M    P1
_symmetry_Int_Tables_number       1
_space_group_crystal_system       triclinic
_cell_length_a                    9.522519
_cell_length_b                    10.824266
_cell_length_c                    15.577987
_cell_angle_alpha                 89.870091
_cell_angle_beta                  74.003034
_cell_angle_gamma                 89.993314
_cell_volume                      1543.50732534

loop_
_atom_site_label
_atom_site_type_symbol
_atom_type_description
_atom_site_fract_x
_atom_site_fract_y
_atom_site_fract_z
_atom_type_partial_charge
C1    C     C_R   0.000056 0.262081 0.499810 0.796009
C2    C     C_R   0.000176 0.737889 0.499695 0.781690
C3    C     C_R   0.587446 0.496201 0.097025 -0.176095
C4    C     C_R   0.432802 0.404472 0.915456 -0.175312
C5    C     C_R   0.735756 0.496650 0.052040 -0.172639
C6    C     C_R   0.290625 0.374986 0.962984 -0.169242
C7    C     C_R   0.869114 0.063777 0.509406 -0.174076
C8    C     C_R   0.131669 0.936088 0.488678 -0.177505
C9    C     C_R   0.869125 0.936004 0.509425 -0.186382
C10   C     C_R   0.131605 0.063882 0.488814 -0.188485
C11   C     C_R   0.000356 0.871706 0.499224 -0.007517
C12   C     C_R   0.000276 0.128201 0.499337 -0.009647
C13   C     C_R   0.562043 0.398103 0.526994 -0.025854
C14   C     C_R   0.437445 0.602357 0.474286 -0.079438
C15   C     C_R   0.413586 0.398075 0.526878 -0.011966
C16   C     C_R   0.586338 0.601937 0.473249 -0.011490
C17   C     C_R   0.917205 0.502950 0.672368 0.840544
C18   C     C_R   0.082384 0.499622 0.327987 0.859911
C19   C     C_R   0.870019 0.502841 0.771209 -0.223132
C20   C     C_R   0.128800 0.481976 0.230839 -0.213265
C21   C     C_R   0.929389 0.494271 0.913277 -0.282847
C22   C     C_R   0.094752 0.379228 0.099916 -0.309890
C23   C     C_R   0.973824 0.491904 0.820314 0.586071
C24   C     C_R   0.042634 0.410397 0.189601 0.580175
C25   C     C_R   0.719657 0.512393 0.817836 -0.149363
C26   C     C_R   0.267786 0.523564 0.180690 -0.136563
C27   C     C_R   0.675609 0.487125 0.910456 0.038424
C28   C     C_R   0.330027 0.472287 0.095225 0.045893
C29   C     C_R   0.780890 0.492665 0.958840 0.037561
C30   C     C_R   0.237822 0.409163 0.052410 0.039011
C31   C     C_R   0.528267 0.463022 0.957235 0.079968
C32   C     C_R   0.480909 0.482804 0.050324 0.076459
Cu1   Cu    Cu3+1 0.140660 0.500020 0.500000 0.963189
Cu2   Cu    Cu3+1 0.859340 0.499980 0.500000 0.976778
H1    H     H_    0.814990 0.501433 0.090230 0.173104
H2    H     H_    0.221939 0.325302 0.929652 0.162102
H3    H     H_    0.011282 0.494875 0.949605 0.167229
H4    H     H_    0.025101 0.327233 0.068564 0.166736
H5    H     H_    0.558204 0.493750 0.168826 0.159644
H6    H     H_    0.471723 0.369887 0.848333 0.140507
H7    H     H_    0.766451 0.111804 0.517781 0.140705
H8    H     H_    0.234362 0.888027 0.480132 0.139300
H9    H     H_    0.766442 0.887862 0.517922 0.143825
H10   H     H_    0.234240 0.112031 0.480421 0.142922
H11   H     H_    0.606822 0.316731 0.549857 0.112239
H12   H     H_    0.391148 0.684988 0.454601 0.124781
H13   H     H_    0.348267 0.316580 0.549483 0.126005
H14   H     H_    0.651285 0.683791 0.451233 0.118566
N1    N     N_R   0.352080 0.500030 0.499980 -0.158435
N2    N     N_R   0.647920 0.499970 0.500020 -0.148239
O1    O     O_R   0.118740 0.319660 0.500000 -0.599205
O2    O     O_R   0.881260 0.680340 0.500000 -0.601448
O3    O     O_R   0.881170 0.319630 0.500010 -0.586070
O4    O     O_R   0.118830 0.680370 0.499990 -0.599185
O5    O     O_R   0.055570 0.500030 0.629830 -0.518788
O6    O     O_R   0.944430 0.499970 0.370170 -0.516703
O7    O     O_R   0.818000 0.500000 0.629840 -0.594035
O8    O     O_R   0.182000 0.500000 0.370160 -0.590848
C33   C     C_R   0.317233 0.648252 0.200626 0.119977
C34   C     C_R   0.399303 0.666813 0.261922 -0.118829
C35   C     C_R   0.444507 0.785757 0.277333 -0.160013
C36   C     C_R   0.405867 0.887205 0.233202 -0.095689
C37   C     C_R   0.323487 0.869862 0.172656 -0.129692
C38   C     C_R   0.279844 0.751037 0.156143 -0.143545
H15   H     H_    0.430788 0.589372 0.296409 0.151024
H16   H     H_    0.510139 0.799525 0.323212 0.113476
H17   H     H_    0.440290 0.979160 0.245644 0.133904
H18   H     H_    0.293837 0.948451 0.138259 0.136840
H19   H     H_    0.216407 0.738948 0.108730 0.134375
C39   C     C_R   0.622258 0.593640 0.781911 0.146319
C40   C     C_R   0.532717 0.547795 0.730943 -0.065146
C41   C     C_R   0.436952 0.626645 0.703551 -0.064801
C42   C     C_R   0.432332 0.752175 0.724451 -0.135255
C43   C     C_R   0.522558 0.799066 0.773682 -0.149886
C44   C     C_R   0.616451 0.720198 0.802717 -0.147061
H20   H     H_    0.537041 0.451431 0.712215 0.114316
H21   H     H_    0.366061 0.590478 0.666134 0.184782
H22   H     H_    0.358701 0.813008 0.702597 0.130045
H23   H     H_    0.518914 0.896368 0.790001 0.133540
H24   H     H_    0.684338 0.757560 0.841941 0.133754
F1    F     F_    0.908223 0.369651 0.235991 -0.663544
F2    F     F_    0.119041 0.484823 0.779025 -0.684573

loop_
_geom_bond_atom_site_label_1
_geom_bond_atom_site_label_2
_ccdc_geom_bond_type
Cu1   O5    S    
Cu2   O6    S    
Cu1   O8    S    
C23   F2    S    
C27   C29   A    
C42   C43   A    
C10   H10   S    
C15   H13   S    
C16   H14   S    
C14   H12   S    
C33   C38   A    
C41   H21   S    
C36   H17   S    
C8    H8    S    
C40   H20   S    
C14   N1    A    
Cu1   N1    S    
C22   H4    S    
C1    O3    A    
C35   H16   S    
C18   O8    A    
C20   C24   A    
Cu2   O7    S    
C42   H22   S    
C39   C40   A    
C44   H24   S    
C17   O5    A    
C18   C20   S    
C18   O6    A    
C7    H7    S    
C3    H5    S    
C33   C34   A    
C3    C32   A    
C1    C12   S    
C2    C11   S    
C10   C12   A    
C5    C29   A    
C7    C12   A    
Cu2   N2    S    
C9    H9    S    
C43   C44   A    
C27   C31   A    
C4    H6    S    
C28   C32   A    
C4    C6    A    
C2    O4    A    
C21   C29   A    
C13   N2    A    
C34   C35   A    
C19   C23   A    
C24   F1    S    
C36   C37   A    
C9    C11   A    
C31   C32   A    
Cu1   Cu2   S    
C38   H19   S    
C1    O1    A    
C2    O2    A    
C6    C30   A    
C34   H15   S    
C43   H23   S    
C13   C15   A    
C22   C24   A    
C25   C27   A    
C26   C33   S    
Cu1   O4    S    
C7    C9    A    
C37   H18   S    
C22   C30   A    
Cu2   O2    S    
C16   N2    A    
C41   C42   A    
C3    C5    A    
Cu1   O1    S    
C26   C28   A    
C21   C23   A    
C40   C41   A    
C13   H11   S    
C20   C26   A    
C8    C11   A    
C5    H1    S    
C28   C30   A    
C17   C19   S    
C6    H2    S    
C14   C16   A    
C15   N1    A    
C35   C36   A    
C19   C25   A    
C4    C31   A    
C37   C38   A    
C21   H3    S    
Cu2   O3    S    
C8    C10   A    
C39   C44   A    
C25   C39   S    
C17   O7    A    
