data_mof_unit_31312.cif
_audit_creation_date              2012-12-11T16:22:07-0500
_audit_creation_method            fapswitch 2.2
_symmetry_space_group_name_H-M    P1
_symmetry_Int_Tables_number       1
_space_group_crystal_system       triclinic
_cell_length_a                    13.501722
_cell_length_b                    14.029574
_cell_length_c                    30.038127
_cell_angle_alpha                 97.36273
_cell_angle_beta                  90.152336
_cell_angle_gamma                 118.748062
_cell_volume                      4933.92554604

loop_
_atom_site_label
_atom_site_type_symbol
_atom_type_description
_atom_site_fract_x
_atom_site_fract_y
_atom_site_fract_z
_atom_type_partial_charge
C1    C     C_R   0.719544 0.097908 0.569440 0.545291
C2    C     C_R   0.376140 0.741280 0.689814 0.018508
C3    C     C_R   0.310893 0.781579 0.672179 -0.141684
C4    C     C_R   0.308230 0.788327 0.626574 -0.135872
C5    C     C_R   0.264782 0.697002 0.842775 -0.133214
C6    C     C_R   0.240315 0.653079 0.882922 -0.150376
C7    C     C_R   0.423338 0.657876 0.886660 -0.000237
C8    C     C_R   0.446771 0.704084 0.846499 -0.103591
C9    C     C_R   0.365284 0.716878 0.823378 0.015494
C10   C     C_1   0.376140 0.732108 0.776958 -0.042894
C11   C     C_1   0.379209 0.737722 0.737312 -0.044454
C12   C     C_R   0.384384 0.790845 0.552169 0.527242
C13   C     C_R   0.314628 0.625172 0.903921 0.007724
C14   C     C_3   0.237845 0.087959 0.726593 0.031639
C15   C     C_3   0.273425 0.033163 0.760102 -0.088715
C16   C     C_1   0.303122 0.191865 0.878446 -0.030705
C17   C     C_1   0.375112 0.124103 0.616563 -0.027050
C18   C     C_3   0.292583 0.197039 0.758860 -0.114366
C19   C     C_3   0.329650 0.143296 0.792022 0.046745
C20   C     C_3   0.405486 0.233166 0.736696 -0.113820
C21   C     C_3   0.349454 0.124325 0.704354 0.058600
C22   C     C_3   0.442729 0.179107 0.770135 -0.105807
C23   C     C_R   0.399165 0.116571 0.570442 0.537746
C24   C     C_3   0.386826 0.069176 0.737042 -0.113064
C25   C     C_1   0.316289 0.165215 0.840070 -0.064312
C26   C     C_1   0.361637 0.124024 0.656074 -0.071186
C27   C     C_3   0.883487 0.270339 0.734362 0.038084
C28   C     C_3   0.789507 0.246771 0.767675 -0.107073
C29   C     C_1   0.888953 0.203518 0.879803 -0.030823
C30   C     C_1   0.762572 0.127219 0.615473 -0.020980
C31   C     C_3   0.928810 0.208769 0.759744 0.041643
C32   C     C_3   0.834839 0.183997 0.792607 0.048566
C33   C     C_3   0.850301 0.099707 0.729136 -0.114949
C34   C     C_R   0.720332 0.096041 0.443037 0.538944
C35   C     C_3   0.804929 0.161502 0.704349 0.038234
C36   C     C_3   0.756093 0.075321 0.762306 -0.111268
C37   C     C_3   0.710391 0.137219 0.736776 -0.111081
C38   C     C_1   0.857186 0.193152 0.841125 -0.065493
C39   C     C_1   0.785865 0.145103 0.655385 -0.070530
C40   C     C_3   0.246113 0.635546 0.259721 0.018025
C41   C     C_3   0.288860 0.725202 0.228715 -0.106414
C42   C     C_1   0.307626 0.606847 0.111072 -0.018345
C43   C     C_1   0.370537 0.743177 0.377715 -0.031138
C44   C     C_3   0.293864 0.570190 0.230553 -0.093285
C45   C     C_R   0.382979 0.785725 0.424280 0.539516
C46   C     C_3   0.338192 0.661210 0.200028 0.029636
C47   C     C_3   0.408074 0.635686 0.259504 0.030104
C48   C     C_3   0.358656 0.698953 0.288548 0.035134
C49   C     C_3   0.451594 0.725626 0.228588 0.036984
C50   C     C_3   0.402663 0.789783 0.258031 -0.113915
C51   C     C_1   0.324806 0.636044 0.151002 -0.070437
C52   C     C_1   0.365095 0.719677 0.337616 -0.082250
C53   C     C_R   0.363823 0.126161 0.398830 0.035717
C54   C     C_R   0.364497 0.222010 0.388336 -0.010072
C55   C     C_R   0.355873 0.232509 0.342786 -0.108376
C56   C     C_R   0.395679 0.115001 0.443496 0.524519
C57   C     C_R   0.345295 0.148946 0.309029 0.015716
C58   C     C_R   0.338290 0.052576 0.319733 -0.141986
C59   C     C_R   0.346970 0.040990 0.364309 -0.138695
C60   C     C_R   0.238213 0.102457 0.150621 -0.119878
C61   C     C_R   0.226911 0.118569 0.106628 -0.131616
C62   C     C_R   0.419850 0.270201 0.114702 -0.129291
C63   C     C_R   0.431198 0.253137 0.158580 -0.121475
C64   C     C_R   0.338748 0.172517 0.176942 0.038385
C65   C     C_1   0.343151 0.167122 0.223679 -0.037396
C66   C     C_1   0.344302 0.161212 0.262927 -0.041310
C67   C     C_R   0.370712 0.754607 0.597173 0.028592
C68   C     C_R   0.315707 0.206296 0.089165 0.022740
C69   C     C_R   0.782391 0.138731 0.403976 0.006401
C70   C     C_R   0.860623 0.107717 0.386723 -0.121183
C71   C     C_R   0.905795 0.136765 0.345292 0.012020
C72   C     C_R   0.870832 0.198631 0.322008 0.037699
C73   C     C_R   0.799434 0.235737 0.341129 -0.135431
C74   C     C_R   0.755858 0.206521 0.381777 -0.135557
C75   C     C_R   0.876063 0.287892 0.167891 -0.123308
C76   C     C_R   0.887567 0.289756 0.121656 -0.134288
C77   C     C_R   0.947485 0.151554 0.119678 -0.120880
C78   C     C_R   0.430397 0.705208 0.614457 -0.003587
C79   C     C_R   0.941125 0.153831 0.165652 -0.130076
C80   C     C_R   0.906756 0.222551 0.189883 0.036611
C81   C     C_1   0.900907 0.221564 0.237119 -0.043603
C82   C     C_1   0.892386 0.213716 0.276274 -0.050701
C83   C     C_R   0.924354 0.221914 0.097283 0.027516
C84   C     C_R   0.284640 0.232451 0.922226 0.542033
C85   C     C_R   0.269278 0.552277 0.939358 0.532145
C86   C     C_R   0.943902 0.222015 0.923323 0.541132
C87   C     C_R   0.292848 0.242635 0.048663 0.543810
C88   C     C_R   0.274840 0.558119 0.065104 0.546672
C89   C     C_R   0.434156 0.701637 0.661194 -0.098308
C90   C     C_R   0.958210 0.233825 0.051055 0.540325
Cr1   Cr    Cr6+3 0.583430 0.162610 0.509470 1.007846
Cr2   Cr    Cr6+3 0.584210 0.916680 0.495400 1.007037
Cr3   Cr    Cr6+3 0.332380 0.920740 0.495100 1.010536
Cr4   Cr    Cr6+3 0.086810 0.177030 0.983130 1.013233
Cr5   Cr    Cr6+3 0.337180 0.419300 0.994610 0.994558
Cr6   Cr    Cr6+3 0.084840 0.422330 0.995830 1.016248
H1    H     H_    0.158277 0.632541 0.895362 0.137382
H2    H     H_    0.423725 0.014634 0.727310 0.105714
H3    H     H_    0.459381 0.315795 0.727059 0.101011
H4    H     H_    0.253321 0.249138 0.765643 0.108915
H5    H     H_    0.764317 0.306622 0.784034 0.093833
H6    H     H_    0.703066 0.995165 0.774130 0.111599
H7    H     H_    0.875329 0.039741 0.712747 0.096650
H8    H     H_    0.201610 0.708150 0.825344 0.109330
H9    H     H_    0.447232 0.879489 0.270235 0.101448
H10   H     H_    0.248332 0.480349 0.218592 0.106879
H11   H     H_    0.146088 0.067366 0.087550 0.119230
H12   H     H_    0.166757 0.039178 0.164789 0.099931
H13   H     H_    0.329143 0.987427 0.293547 0.111238
H14   H     H_    0.346876 0.967320 0.371725 0.135147
H15   H     H_    0.489961 0.337633 0.101890 0.127043
H16   H     H_    0.869942 0.344927 0.105259 0.115432
H17   H     H_    0.772168 0.282673 0.323364 0.108163
H18   H     H_    0.695881 0.232013 0.394469 0.142571
H19   H     H_    0.884051 0.059085 0.405062 0.114791
H20   H     H_    0.261470 0.826216 0.614896 0.135791
H21   H     H_    0.964604 0.102795 0.182374 0.100785
H22   H     H_    0.977397 0.098891 0.102251 0.129383
H23   H     H_    0.482517 0.668058 0.675344 0.100951
H24   H     H_    0.219378 0.951023 0.770129 0.094732
O1    O     O_R   0.493980 0.188910 0.559650 -0.514278
O2    O     O_R   0.480180 0.824400 0.444640 -0.496312
O3    O     O_R   0.308310 0.808540 0.439800 -0.513424
O4    O     O_R   0.340740 0.020600 0.455570 -0.501365
O5    O     O_3   0.500010 0.000010 0.499990 -0.239308
O6    O     O_R   0.969650 0.150960 0.933380 -0.506992
O7    O     O_R   0.187740 0.180870 0.937580 -0.490309
O8    O     O_R   0.358510 0.327410 0.940870 -0.531216
O9    O     O_R   0.324180 0.507870 0.953930 -0.510676
O10   O     O_R   0.170560 0.527890 0.952050 -0.517149
O11   O     O_R   0.987620 0.318470 0.945550 -0.495818
O12   O     O_R   0.678640 0.153520 0.554450 -0.494221
O13   O     O_R   0.976400 0.159270 0.031530 -0.525945
O14   O     O_R   0.194000 0.188570 0.028560 -0.506312
O15   O     O_R   0.365260 0.335720 0.039020 -0.516529
O16   O     O_R   0.330440 0.515580 0.044910 -0.497508
O17   O     O_R   0.177310 0.536200 0.050190 -0.508549
O18   O     O_R   0.993870 0.326170 0.036530 -0.496904
O19   O     O_3   0.169610 0.339550 0.991190 -0.238690
O20   O     O_R   0.698130 0.004030 0.549500 -0.511523
O21   O     O_R   0.481060 0.827210 0.535360 -0.504819
O22   O     O_R   0.309260 0.811560 0.537660 -0.519136
O23   O     O_R   0.341620 0.023400 0.546290 -0.499374
O24   O     O_R   0.493030 0.185890 0.461780 -0.523067
O25   O     O_R   0.677760 0.150720 0.463730 -0.503533
O26   O     O_R   0.697180 0.001010 0.451640 -0.514937
C91   C     C_3   0.119790 0.037489 0.702677 -0.260285
C92   C     C_3   0.086326 0.926289 0.674149 -0.293961
C93   C     C_3   0.967526 0.876138 0.651187 -0.453470
H25   H     H_    0.904444 0.862197 0.676734 0.145800
H26   H     H_    0.963675 0.931499 0.628723 0.157093
H27   H     H_    0.945514 0.795987 0.630654 0.141380
H28   H     H_    0.147091 0.936673 0.647911 0.168575
H29   H     H_    0.088211 0.868581 0.695846 0.151461
H30   H     H_    0.057921 0.025797 0.728535 0.130812
H31   H     H_    0.118511 0.095552 0.681048 0.138387
H32   H     H_    0.527451 0.216542 0.788474 0.103199
C94   C     C_3   0.946731 0.375069 0.712559 -0.252462
C95   C     C_3   0.015690 0.479477 0.746388 -0.305014
C96   C     C_3   0.050121 0.582307 0.724438 -0.455615
H33   H     H_    0.099862 0.581982 0.695073 0.165815
H34   H     H_    0.973901 0.586163 0.713128 0.146778
H35   H     H_    0.103246 0.656806 0.749055 0.136734
H36   H     H_    0.965783 0.481328 0.775531 0.157057
H37   H     H_    0.094407 0.481616 0.758441 0.175871
H38   H     H_    0.003927 0.364158 0.688385 0.135962
H39   H     H_    0.882327 0.384233 0.693157 0.148941
H40   H     H_    0.620642 0.107684 0.726029 0.111313
C97   C     C_3   0.052890 0.244145 0.771340 -0.257221
C98   C     C_3   0.105783 0.336249 0.811829 -0.285541
C99   C     C_3   0.231374 0.412915 0.808008 -0.461864
H41   H     H_    0.283243 0.379279 0.820941 0.145602
H42   H     H_    0.250663 0.429994 0.773058 0.144769
H43   H     H_    0.255901 0.491480 0.829020 0.172331
H44   H     H_    0.060998 0.385206 0.815702 0.164995
H45   H     H_    0.096912 0.299696 0.843239 0.169261
H46   H     H_    0.058432 0.171812 0.779484 0.129644
H47   H     H_    0.098251 0.269564 0.740566 0.132205
H48   H     H_    0.240509 0.762000 0.215276 0.100884
C100  C     C_3   0.131190 0.588019 0.280022 -0.252609
C101  C     C_3   0.034265 0.552840 0.244373 -0.298291
C102  C     C_3   0.920635 0.508835 0.265460 -0.458486
H49   H     H_    0.902405 0.434252 0.280425 0.159626
H50   H     H_    0.921611 0.572171 0.292043 0.149633
H51   H     H_    0.852002 0.487369 0.239343 0.131622
H52   H     H_    0.047436 0.624227 0.227938 0.156822
H53   H     H_    0.032803 0.488494 0.218274 0.174130
H54   H     H_    0.118609 0.516554 0.296302 0.146698
H55   H     H_    0.131972 0.651999 0.306241 0.148811
C103  C     C_3   0.562280 0.779188 0.205520 -0.250671
C104  C     C_3   0.664538 0.853760 0.238790 -0.299126
C105  C     C_3   0.770450 0.911658 0.213469 -0.457394
H56   H     H_    0.794348 0.851226 0.196600 0.144878
H57   H     H_    0.755163 0.954393 0.187805 0.164447
H58   H     H_    0.841905 0.974119 0.237078 0.152707
H59   H     H_    0.649698 0.916941 0.259254 0.170452
H60   H     H_    0.678090 0.804313 0.261708 0.155766
H61   H     H_    0.575618 0.714530 0.185637 0.135664
H62   H     H_    0.553081 0.829103 0.181555 0.147446
C106  C     C_3   0.473085 0.586966 0.281025 -0.254540
C107  C     C_3   0.509130 0.522165 0.246160 -0.301134
C108  C     C_3   0.577680 0.479135 0.269004 -0.453135
H63   H     H_    0.653433 0.548277 0.288766 0.147000
H64   H     H_    0.524979 0.420572 0.291735 0.157048
H65   H     H_    0.606962 0.436142 0.243264 0.135094
H66   H     H_    0.432976 0.451662 0.227133 0.168294
H67   H     H_    0.562386 0.575692 0.222060 0.160593
H68   H     H_    0.548879 0.655034 0.301169 0.140467
H69   H     H_    0.417829 0.531519 0.304331 0.137726
H70   H     H_    0.264040 0.810636 0.693945 0.104199
C109  C     C_3   0.372781 0.312504 0.424155 -0.260090
C110  C     C_3   0.262592 0.319279 0.423373 -0.306260
C111  C     C_3   0.267439 0.406248 0.460790 -0.453255
H71   H     H_    0.275413 0.383636 0.494179 0.151344
H72   H     H_    0.340420 0.487969 0.457764 0.152389
H73   H     H_    0.188256 0.411620 0.458302 0.150028
H74   H     H_    0.247357 0.340334 0.390525 0.156567
H75   H     H_    0.190052 0.238264 0.427768 0.162530
H76   H     H_    0.389546 0.298795 0.458291 0.157776
H77   H     H_    0.444921 0.392117 0.418081 0.137685
H78   H     H_    0.509857 0.306194 0.178765 0.104059
H79   H     H_    0.359034 0.306150 0.333651 0.099679
H80   H     H_    0.845813 0.338783 0.186489 0.107761
C112  C     C_3   0.990363 0.101990 0.327304 -0.256496
C113  C     C_3   0.943711 0.977140 0.323655 -0.302933
C114  C     C_3   0.016418 0.939922 0.295670 -0.453383
H81   H     H_    0.018802 0.960159 0.260992 0.145343
H82   H     H_    0.103867 0.980789 0.311678 0.174304
H83   H     H_    0.980330 0.849594 0.293636 0.138436
H84   H     H_    0.942492 0.954087 0.357755 0.154906
H85   H     H_    0.855510 0.932404 0.308291 0.167313
H86   H     H_    0.015888 0.128056 0.293919 0.150366
H87   H     H_    0.068367 0.144523 0.350478 0.136344
C115  C     C_3   0.489384 0.654961 0.584895 -0.253727
C116  C     C_3   0.434947 0.530555 0.585504 -0.315372
C117  C     C_3   0.494116 0.480042 0.555603 -0.452102
H88   H     H_    0.490841 0.495351 0.520399 0.146270
H89   H     H_    0.583999 0.515762 0.568343 0.154741
H90   H     H_    0.451146 0.389858 0.555822 0.158681
H91   H     H_    0.439957 0.513380 0.620284 0.158919
H92   H     H_    0.344116 0.490422 0.573300 0.160201
H93   H     H_    0.485296 0.666890 0.549376 0.163323
H94   H     H_    0.580284 0.695754 0.597092 0.142381
H95   H     H_    0.526112 0.723382 0.831598 0.110385
C118  C     C_3   0.514784 0.641451 0.907951 -0.238825
C119  C     C_3   0.506594 0.530461 0.888895 -0.262477
C120  C     C_3   0.552191 0.529727 0.842410 -0.462216
H96   H     H_    0.497340 0.536427 0.816820 0.152809
H97   H     H_    0.640142 0.598305 0.842911 0.146134
H98   H     H_    0.552543 0.450865 0.832441 0.141575
H99   H     H_    0.556312 0.511604 0.912395 0.159022
H100  H     H_    0.417377 0.464048 0.886478 0.202561
H101  H     H_    0.599855 0.709420 0.902796 0.127155
H102  H     H_    0.511187 0.648749 0.945041 0.143912

loop_
_geom_bond_atom_site_label_1
_geom_bond_atom_site_label_2
_ccdc_geom_bond_type
C84   O8    A    
C7    C13   A    
C21   C26   S    
C103  C104  S    
C86   O6    A    
C58   H13   S    
C116  H91   S    
C14   C18   S    
C91   C92   S    
Cr3   O4    S    
C41   H48   S    
C57   C66   S    
C99   H41   S    
C1    O12   A    
C112  C113  S    
Cr4   O13   S    
Cr6   O19   S    
C81   C82   T    
C53   C59   A    
C116  C117  S    
C7    C8    A    
C23   O1    A    
C98   H45   S    
Cr4   O7    S    
C12   O21   A    
C27   C94   S    
C15   C19   S    
C109  H77   S    
C99   H42   S    
C46   C49   S    
C94   H38   S    
C17   C23   S    
C108  H64   S    
C24   H2    S    
C17   C26   T    
C32   C36   S    
C14   C21   S    
C36   C37   S    
C35   C37   S    
C42   C51   T    
C100  H55   S    
C112  H86   S    
Cr6   O18   S    
C5    C6    A    
C80   C81   S    
C34   O25   A    
C43   C52   T    
C53   C56   S    
C98   C99   S    
C8    H95   S    
Cr4   O6    S    
C74   H18   S    
C79   H21   S    
C16   C84   S    
C59   H14   S    
C73   H17   S    
C117  H88   S    
C36   H6    S    
C18   C19   S    
C73   C74   A    
C63   H78   S    
C104  H59   S    
C116  H92   S    
C113  H84   S    
C100  H54   S    
C85   O9    A    
C40   C100  S    
C28   H5    S    
C62   H15   S    
C95   C96   S    
C104  H60   S    
C106  C107  S    
C6    C13   A    
C108  H65   S    
C29   C38   T    
C94   H39   S    
C50   H9    S    
C41   C46   S    
C31   C33   S    
C70   C71   A    
C32   C38   S    
C91   H30   S    
C75   C80   A    
C119  C120  S    
C60   H12   S    
C44   C47   S    
C76   H16   S    
C115  H94   S    
C119  H99   S    
C84   O7    A    
C48   C50   S    
C5    H8    S    
C75   H80   S    
C106  H68   S    
C118  C119  S    
Cr2   O5    S    
Cr4   O19   S    
C87   O14   A    
C23   O23   A    
C67   C78   A    
C92   H29   S    
C61   H11   S    
C2    C11   S    
Cr5   O8    S    
C76   C83   A    
C97   H46   S    
C90   O18   A    
C44   C46   S    
C103  H62   S    
C37   H40   S    
C102  H50   S    
C98   H44   S    
C120  H97   S    
C78   C89   A    
C101  H53   S    
C99   H43   S    
C108  H63   S    
C63   C64   A    
Cr2   O26   S    
C33   C36   S    
C6    H1    S    
C87   O15   A    
C28   C32   S    
C19   C22   S    
C92   C93   S    
C88   O16   A    
C47   C49   S    
C77   H22   S    
C93   H27   S    
Cr6   O17   S    
C90   O13   A    
C8    C9    A    
C119  H100  S    
Cr1   O12   S    
C31   C97   S    
C27   C35   S    
C58   C59   A    
C101  C102  S    
C27   C31   S    
C14   C91   S    
C18   H4    S    
C45   O3    A    
C104  C105  S    
C60   C61   A    
C102  H51   S    
C105  H57   S    
C41   C50   S    
C2    C89   A    
C35   C39   S    
C75   C76   A    
C105  H58   S    
C5    C9    A    
C62   C63   A    
Cr2   O21   S    
Cr2   O2    S    
C85   O10   A    
C15   H24   S    
C110  H74   S    
C109  C110  S    
C12   O22   A    
C40   C44   S    
C95   H36   S    
C78   C115  S    
C20   C21   S    
Cr5   O15   S    
C113  C114  S    
C107  H67   S    
C77   C79   A    
C69   C74   A    
C97   C98   S    
C113  H85   S    
Cr4   O14   S    
C91   H31   S    
C43   C45   S    
C34   C69   S    
C29   C86   S    
C1    O20   A    
C115  H93   S    
Cr6   O11   S    
C89   H23   S    
C54   C109  S    
C20   C22   S    
C49   C50   S    
C114  H82   S    
C55   C57   A    
C112  H87   S    
C94   C95   S    
C45   O2    A    
C22   C24   S    
C47   C106  S    
C42   C88   S    
C115  C116  S    
C3    C4    A    
Cr2   O20   S    
C56   O4    A    
C97   H47   S    
Cr1   O25   S    
C100  C101  S    
C103  H61   S    
Cr6   O10   S    
Cr1   O24   S    
C9    C10   S    
C120  H98   S    
C16   C25   T    
C40   C48   S    
C83   C90   S    
C111  H73   S    
C54   C55   A    
C40   C41   S    
C71   C112  S    
Cr1   O5    S    
C33   H7    S    
C4    H20   S    
C31   C32   S    
Cr3   O3    S    
C72   C73   A    
C47   C48   S    
Cr3   O23   S    
C4    C67   A    
C101  H52   S    
C117  H90   S    
C53   C54   A    
C49   C103  S    
C22   H32   S    
C44   H10   S    
C70   H19   S    
C114  H83   S    
C109  H76   S    
C118  H102  S    
C7    C118  S    
Cr5   O19   S    
C106  H69   S    
C107  C108  S    
C62   C68   A    
C60   C64   A    
C105  H56   S    
C93   H26   S    
C2    C3    A    
C111  H72   S    
C71   C72   A    
C93   H25   S    
C96   H33   S    
C15   C24   S    
Cr5   O16   S    
C34   O26   A    
C61   C68   A    
C57   C58   A    
C20   H3    S    
C118  H101  S    
C28   C37   S    
C3    H70   S    
C111  H71   S    
C46   C51   S    
C64   C65   S    
C1    C30   S    
C33   C35   S    
C117  H89   S    
C30   C39   T    
C107  H66   S    
C18   C20   S    
C65   C66   T    
C69   C70   A    
C86   O11   A    
Cr3   O5    S    
C88   O17   A    
C12   C67   S    
C10   C11   T    
C19   C25   S    
C79   C80   A    
C56   O24   A    
C95   H37   S    
C48   C52   S    
C110  C111  S    
C114  H81   S    
Cr1   O1    S    
C21   C24   S    
C13   C85   S    
C27   C28   S    
Cr5   O9    S    
C68   C87   S    
C77   C83   A    
C14   C15   S    
C92   H28   S    
C55   H79   S    
C72   C82   S    
Cr3   O22   S    
C102  H49   S    
C120  H96   S    
C96   H34   S    
C110  H75   S    
C96   H35   S    
