data_mof_unit_67137.cif
_audit_creation_date              2012-12-11T17:48:23-0500
_audit_creation_method            fapswitch 2.2
_symmetry_space_group_name_H-M    P1
_symmetry_Int_Tables_number       1
_space_group_crystal_system       triclinic
_cell_length_a                    8.362421
_cell_length_b                    12.782618
_cell_length_c                    15.034799
_cell_angle_alpha                 97.451207
_cell_angle_beta                  97.951419
_cell_angle_gamma                 98.317998
_cell_volume                      1556.44613709

loop_
_atom_site_label
_atom_site_type_symbol
_atom_type_description
_atom_site_fract_x
_atom_site_fract_y
_atom_site_fract_z
_atom_type_partial_charge
Ba1   Ba    Ba6+2 0.843750 0.550210 0.455600 1.690207
Ba2   Ba    Ba6+2 0.346090 0.449880 0.544410 1.689585
C1    C     C_3   0.551218 0.912884 0.184212 -0.379532
C2    C     C_3   0.572151 0.820636 0.236920 0.371133
C3    C     C_3   0.365320 0.232514 0.260763 0.482507
C4    C     C_3   0.228221 0.141605 0.216459 -0.340809
C5    C     C_3   0.129932 0.195697 0.786119 0.356457
C6    C     C_3   0.186688 0.149717 0.871007 -0.065631
C7    C     C_3   0.696383 0.209568 0.828534 0.280886
C8    C     C_3   0.671767 0.125297 0.890895 -0.155677
C9    C     C_R   0.825117 0.452215 0.832800 0.010776
C10   C     C_R   0.892067 0.460304 0.926038 0.021642
C11   C     C_R   0.035228 0.461042 0.110917 -0.004779
C12   C     C_3   0.118532 0.820902 0.211479 0.296306
C13   C     C_R   0.872746 0.414122 0.077496 -0.007693
C14   C     C_R   0.799982 0.419253 0.989234 -0.054775
C15   C     C_R   0.107147 0.464117 0.203676 0.036638
C16   C     C_R   0.270653 0.512972 0.231283 -0.256210
C17   C     C_R   0.085888 0.536831 0.798370 0.040722
C18   C     C_R   0.152789 0.550724 0.894191 -0.016445
C19   C     C_R   0.058558 0.504336 0.955832 0.037402
C20   C     C_R   0.308921 0.609380 0.932911 -0.005414
C21   C     C_R   0.387435 0.590234 0.015764 -0.100367
C22   C     C_R   0.296981 0.547468 0.077904 -0.026976
C23   C     C_3   0.026228 0.818289 0.116529 -0.329166
C24   C     C_R   0.129613 0.505566 0.048714 0.047378
C25   C     C_R   0.366528 0.553225 0.169980 0.019989
C26   C     C_R   0.924640 0.484585 0.770592 -0.308155
C27   C     C_R   0.763085 0.180391 0.538775 -0.260022
C28   C     C_R   0.424789 0.808286 0.461461 -0.255878
C29   C     C_R   0.394888 0.983663 0.425016 -0.093393
C30   C     C_R   0.328717 0.876690 0.422712 -0.024087
C31   C     C_R   0.584051 0.846421 0.508361 0.067001
C32   C     C_R   0.651590 0.957027 0.513162 -0.034529
C33   C     C_R   0.554105 0.026368 0.471577 -0.038962
C34   C     C_3   0.323350 0.791399 0.692270 0.293930
C35   C     C_R   0.611769 0.138635 0.486555 0.075575
C36   C     C_R   0.864380 0.113287 0.572052 -0.022390
C37   C     C_R   0.807936 0.003008 0.563032 -0.017883
C38   C     C_3   0.257969 0.891070 0.666077 -0.036839
C39   C     C_3   0.929450 0.224473 0.351945 0.306336
C40   C     C_3   0.862570 0.105008 0.330719 -0.412564
C41   C     C_3   0.805687 0.708016 0.728036 0.255700
C42   C     C_3   0.898620 0.756463 0.822974 -0.188369
H1    H     H_    0.659951 0.850690 0.300778 0.067677
H2    H     H_    0.177102 0.918037 0.714171 0.148563
H3    H     H_    0.184056 0.871397 0.597370 0.087138
H4    H     H_    0.844592 0.265841 0.388622 0.019932
H5    H     H_    0.050033 0.236104 0.395757 0.069292
H6    H     H_    0.727994 0.092449 0.312766 0.126059
H7    H     H_    0.895460 0.065433 0.390379 0.093348
H8    H     H_    0.911635 0.065930 0.272631 0.150157
H9    H     H_    0.893267 0.676508 0.687233 0.053690
H10   H     H_    0.708345 0.640216 0.731589 0.024423
H11   H     H_    0.503388 0.975944 0.225659 0.091611
H12   H     H_    0.963167 0.838699 0.822734 0.145614
H13   H     H_    0.991451 0.708423 0.841874 0.104951
H14   H     H_    0.451281 0.789171 0.254328 -0.127821
H15   H     H_    0.463117 0.883939 0.120365 0.128562
H16   H     H_    0.316731 0.297421 0.299966 -0.010397
H17   H     H_    0.180453 0.099874 0.269713 0.080762
H18   H     H_    0.128145 0.172728 0.177409 0.150222
H19   H     H_    0.274597 0.082634 0.169771 0.141910
H20   H     H_    0.670518 0.947333 0.166792 0.137662
H21   H     H_    0.102132 0.792872 0.065263 0.105541
H22   H     H_    0.199894 0.277641 0.790471 0.081336
H23   H     H_    0.997770 0.198630 0.780843 -0.048499
H24   H     H_    0.135941 0.063211 0.863130 0.139010
H25   H     H_    0.321568 0.159832 0.883778 0.153693
H26   H     H_    0.811991 0.262051 0.858924 -0.039240
H27   H     H_    0.712177 0.174342 0.759683 0.081847
H28   H     H_    0.544459 0.082798 0.875658 0.172135
H29   H     H_    0.144345 0.738720 0.217377 -0.007957
H30   H     H_    0.691811 0.165566 0.962588 0.063047
H31   H     H_    0.799780 0.372034 0.118922 0.146162
H32   H     H_    0.671748 0.385828 0.970413 0.123464
H33   H     H_    0.513817 0.627153 0.037015 0.129440
H34   H     H_    0.325913 0.517459 0.301440 0.067254
H35   H     H_    0.872411 0.473681 0.699361 0.053077
H36   H     H_    0.315850 0.033995 0.395684 0.092082
H37   H     H_    0.888248 0.955193 0.594984 0.123137
H38   H     H_    0.808541 0.265392 0.547014 0.039198
H39   H     H_    0.234115 0.878173 0.219924 -0.013095
H40   H     H_    0.370853 0.725769 0.460130 0.065893
H41   H     H_    0.910327 0.760317 0.105513 0.177732
H42   H     H_    0.998026 0.898945 0.107559 0.114233
H43   H     H_    0.356778 0.745778 0.631415 -0.093927
O1    O     O_2   0.827880 0.435260 0.277750 -0.427932
O2    O     O_3   0.738024 0.788363 0.688699 -0.626179
O3    O     O_3   0.024476 0.856644 0.275948 -0.579095
O4    O     O_2   0.361830 0.564780 0.722310 -0.489358
O5    O     O_3   0.089430 0.561130 0.608830 -0.479504
O6    O     O_3   0.564130 0.365960 0.666760 -0.457764
O7    O     O_3   0.198855 0.734469 0.726770 -0.657100
O8    O     O_3   0.601940 0.368240 0.453770 -0.466320
O9    O     O_3   0.133170 0.309040 0.621000 -0.490996
O10   O     O_2   0.177116 0.118826 0.542122 -0.443258
O11   O     O_3   0.159243 0.127906 0.711825 -0.573435
O12   O     O_3   0.100280 0.438960 0.391170 -0.509565
O13   O     O_3   0.587780 0.631850 0.546230 -0.497758
O14   O     O_2   0.332590 0.233690 0.456160 -0.475040
O15   O     O_3   0.485469 0.189224 0.311168 -0.652775
O16   O     O_2   0.489254 0.451750 0.823754 -0.450137
O17   O     O_3   0.559970 0.262674 0.821854 -0.589002
O18   O     O_3   0.625580 0.634130 0.333250 -0.475846
O19   O     O_2   0.704379 0.553383 0.177640 -0.453163
O20   O     O_3   0.946151 0.263956 0.270535 -0.623474
O21   O     O_3   0.634862 0.743262 0.183078 -0.594611
O22   O     O_2   0.857130 0.766340 0.543890 -0.466365
O23   O     O_3   0.056550 0.691050 0.379010 -0.467603
O24   O     O_2   0.005482 0.881412 0.447191 -0.479365
P1    P     P_3+3 0.998730 0.403530 0.291970 0.995046
P2    P     P_3+3 0.687380 0.751030 0.571310 0.977902
P3    P     P_3+3 0.107630 0.828538 0.381788 0.971488
P4    P     P_3+3 0.190990 0.596560 0.708040 0.978535
P5    P     P_3+3 0.080451 0.169517 0.611636 0.986262
P6    P     P_3+3 0.580657 0.618161 0.215605 1.000368
P7    P     P_3+3 0.507140 0.232833 0.427876 0.957827
P8    P     P_3+3 0.612483 0.385956 0.785754 0.997698
I1    I     I_    0.441568 0.024192 0.668757 -0.416142
C43   C     C_2   0.794120 0.756804 0.895801 0.419440
H44   H     H_    0.760915 0.830933 0.925190 0.038723
O25   O     O_2   0.746184 0.673693 0.922852 -0.624677
I2    I     I_    0.479626 0.295818 0.157587 -0.447400
I3    I     I_    0.112160 0.229601 0.985936 -0.613525
C44   C     C_2   0.786192 0.045782 0.881628 0.507242
H45   H     H_    0.849660 0.022729 0.942092 0.013767
O26   O     O_2   0.804433 0.003673 0.806872 -0.577181
C45   C     C_2   0.358092 0.720221 0.920450 0.460332
H46   H     H_    0.486394 0.753767 0.931992 0.050165
O27   O     O_2   0.258321 0.780399 0.912747 -0.592769
C46   C     C_2   0.464183 0.816309 0.767674 0.645697
H47   H     H_    0.534394 0.754333 0.779296 -0.058601
O28   O     O_2   0.482462 0.895163 0.825187 -0.597099

loop_
_geom_bond_atom_site_label_1
_geom_bond_atom_site_label_2
_ccdc_geom_bond_type
C38   H3    S    
C13   H31   S    
C19   C24   A    
C44   H45   S    
C5    O11   S    
O20   P1    S    
C17   C18   A    
C22   C25   A    
C9    P8    S    
Ba1   O12   S    
C5    C6    S    
C1    H20   S    
C38   H2    S    
C2    O21   S    
C3    I2    S    
C6    H25   S    
C41   O2    S    
O14   P7    D    
C4    H17   S    
Ba2   O8    S    
C33   C35   A    
C22   C24   A    
C32   C33   A    
C34   C46   S    
Ba1   P1    S    
C36   C37   A    
C13   C14   A    
C42   C43   S    
Ba1   Ba2   S    
C39   C40   S    
C26   H35   S    
C12   O3    S    
Ba1   O22   S    
C1    H11   S    
C41   H9    S    
C35   P7    S    
C10   C14   A    
C46   H47   S    
C27   C36   A    
C21   C22   A    
C7    C8    S    
O23   P3    S    
C3    H16   S    
O22   P2    D    
C40   H7    S    
O17   P8    S    
Ba1   O1    S    
Ba2   O13   S    
O8    P7    S    
O18   P6    S    
Ba1   P2    S    
C12   H39   S    
Ba1   O13   S    
C39   H5    S    
Ba1   O18   S    
C31   C32   A    
C2    H1    S    
C25   P6    S    
C34   H43   S    
O2    P2    S    
O13   P2    S    
C32   C37   A    
C12   H29   S    
C34   C38   S    
C23   H21   S    
C7    H26   S    
C37   H37   S    
C29   H36   S    
Ba2   O14   S    
C10   C19   A    
C4    H19   S    
C41   C42   S    
Ba1   O23   S    
C36   P5    S    
Ba2   P4    S    
C42   H12   S    
C41   H10   S    
O11   P5    S    
C29   C30   A    
C17   P4    S    
C42   H13   S    
Ba1   O8    S    
C23   H41   S    
C15   C16   A    
C21   H33   S    
O10   P5    D    
Ba2   O5    S    
C17   C26   A    
C43   H44   S    
C40   H6    S    
C16   H34   S    
C38   I1    S    
C18   C20   A    
Ba2   O12   S    
C6    H24   S    
Ba1   O5    S    
C11   C13   A    
C20   C45   S    
C8    H28   S    
C29   C33   A    
C11   C24   A    
C2    H14   S    
C1    C2    S    
C15   P1    S    
C45   H46   S    
C3    O15   S    
C44   O26   D    
C39   O20   S    
C28   C31   A    
C14   H32   S    
O21   P6    S    
Ba2   O6    S    
O16   P8    D    
C16   C25   A    
C7    H27   S    
O15   P7    S    
O7    P4    S    
C31   P2    S    
C11   C15   A    
C4    H18   S    
Ba2   O9    S    
C27   H38   S    
O19   P6    D    
C5    H22   S    
C28   C30   A    
C8    H30   S    
C3    C4    S    
C9    C26   A    
C7    O17   S    
O12   P1    S    
C23   H42   S    
C39   H4    S    
O4    P4    D    
O24   P3    D    
O3    P3    S    
C12   C23   S    
C28   H40   S    
Ba2   O4    S    
O5    P4    S    
C43   O25   D    
C5    H23   S    
O1    P1    D    
C34   O7    S    
C6    I3    S    
C18   C19   A    
C46   O28   D    
C27   C35   A    
C20   C21   A    
O9    P5    S    
O6    P8    S    
C30   P3    S    
C8    C44   S    
C9    C10   A    
C40   H8    S    
C45   O27   D    
C1    H15   S    
