data_mof_unit_28726.cif
_audit_creation_date              2012-12-11T15:06:44-0500
_audit_creation_method            fapswitch 2.2
_symmetry_space_group_name_H-M    P1
_symmetry_Int_Tables_number       1
_space_group_crystal_system       triclinic
_cell_length_a                    7.239726
_cell_length_b                    15.131905
_cell_length_c                    22.247963
_cell_angle_alpha                 90.000262
_cell_angle_beta                  90.006342
_cell_angle_gamma                 89.999414
_cell_volume                      2437.28315463

loop_
_atom_site_label
_atom_site_type_symbol
_atom_type_description
_atom_site_fract_x
_atom_site_fract_y
_atom_site_fract_z
_atom_type_partial_charge
O1    O     O_R   0.390810 0.844810 0.447340 -0.535656
O2    O     O_R   0.109190 0.155190 0.947340 -0.535690
O3    O     O_R   0.890810 0.655190 0.552660 -0.535688
O4    O     O_R   0.609190 0.344810 0.052660 -0.535659
O5    O     O_R   0.720550 0.655820 0.440420 -0.537538
O6    O     O_R   0.779450 0.344180 0.940420 -0.537539
O7    O     O_R   0.220550 0.844180 0.559580 -0.537540
O8    O     O_R   0.279450 0.155820 0.059580 -0.537540
C1    C     C_R   0.552983 0.627077 0.426164 0.679033
C2    C     C_R   0.947004 0.372920 0.926161 0.679042
C3    C     C_R   0.052995 0.872920 0.573839 0.679043
C4    C     C_R   0.447019 0.127079 0.073837 0.679034
O9    O     O_R   0.720530 0.844130 0.440420 -0.537267
O10   O     O_R   0.779470 0.155870 0.940420 -0.537256
O11   O     O_R   0.220530 0.655870 0.559580 -0.537260
O12   O     O_R   0.279470 0.344130 0.059580 -0.537267
O13   O     O_R   0.890830 0.844810 0.552660 -0.537657
O14   O     O_R   0.609170 0.155190 0.052660 -0.537643
O15   O     O_R   0.390830 0.655190 0.447340 -0.537643
O16   O     O_R   0.109170 0.344810 0.947340 -0.537656
C5    C     C_R   0.551820 0.873431 0.426627 0.688572
C6    C     C_R   0.948167 0.126572 0.926624 0.688553
C7    C     C_R   0.051834 0.626572 0.573376 0.688552
C8    C     C_R   0.448177 0.373430 0.073375 0.688571
O17   O     O_3   0.557310 0.749980 0.536820 -0.373598
O18   O     O_3   0.942690 0.250020 0.036820 -0.373578
O19   O     O_3   0.057310 0.750020 0.463180 -0.373576
O20   O     O_3   0.442690 0.249980 0.963180 -0.373596
V1    V     V_3+5 0.832160 0.749980 0.493170 1.416777
V2    V     V_3+5 0.667840 0.250020 0.993170 1.416833
V3    V     V_3+5 0.332160 0.750020 0.506830 1.416834
V4    V     V_3+5 0.167840 0.249980 0.006830 1.416771
C9    C     C_R   0.864852 0.597573 0.859856 -0.194596
C10   C     C_R   0.634374 0.402311 0.359931 -0.194677
C11   C     C_R   0.365705 0.902308 0.140066 -0.194678
C12   C     C_R   0.135176 0.097567 0.640147 -0.194604
H1    H     H_    0.840992 0.539802 0.947383 0.120179
H2    H     H_    0.658198 0.460090 0.447462 0.120178
H3    H     H_    0.341867 0.960086 0.052535 0.120193
H4    H     H_    0.159029 0.039797 0.552620 0.120180
H5    H     H_    0.861202 0.720394 0.774719 0.124619
H6    H     H_    0.637705 0.279460 0.274809 0.124582
H7    H     H_    0.362388 0.779460 0.225185 0.124658
H8    H     H_    0.138823 0.220389 0.725285 0.124605
H9    H     H_    0.812708 0.660611 0.875340 0.156097
H10   H     H_    0.686113 0.339215 0.375452 0.156043
H11   H     H_    0.313993 0.839208 0.124544 0.156228
H12   H     H_    0.187341 0.160600 0.624664 0.156072
C13   C     C_R   0.947771 0.446395 0.882831 -0.033989
C14   C     C_R   0.552153 0.553594 0.382842 -0.033903
C15   C     C_R   0.447861 0.053598 0.117159 -0.033871
C16   C     C_R   0.052228 0.946395 0.617169 -0.033990
C17   C     C_R   0.048552 0.462834 0.589276 0.042948
C18   C     C_R   0.451796 0.537163 0.089279 0.042974
C19   C     C_R   0.548124 0.037164 0.410727 0.043009
C20   C     C_R   0.951454 0.962833 0.910725 0.042945
C21   C     C_R   0.015849 0.389609 0.627669 0.387564
C22   C     C_R   0.484977 0.610359 0.127656 0.387520
C23   C     C_R   0.514930 0.110358 0.372351 0.387556
C24   C     C_R   0.984163 0.889609 0.872331 0.387575
C25   C     C_R   0.995765 0.402718 0.689915 -0.286963
C26   C     C_R   0.505040 0.597246 0.189903 -0.287056
C27   C     C_R   0.494938 0.097251 0.310101 -0.287060
C28   C     C_R   0.004242 0.902718 0.810084 -0.286966
C29   C     C_R   0.993145 0.487353 0.715549 0.039785
C30   C     C_R   0.507105 0.512623 0.215553 0.039798
C31   C     C_R   0.492913 0.012628 0.284449 0.039803
C32   C     C_R   0.006859 0.987352 0.784452 0.039781
C33   C     C_R   0.000364 0.561436 0.676370 0.050062
C34   C     C_R   0.499567 0.438534 0.176386 0.050083
C35   C     C_R   0.500460 0.938538 0.323614 0.050097
C36   C     C_R   0.999642 0.061435 0.823631 0.050059
C37   C     C_R   0.966786 0.500216 0.778676 0.109149
C38   C     C_R   0.533246 0.499756 0.278689 0.109143
C39   C     C_R   0.466787 0.999760 0.221312 0.109136
C40   C     C_R   0.033218 0.000215 0.721325 0.109152
C41   C     C_R   0.913179 0.584954 0.799398 0.140496
C42   C     C_R   0.586337 0.414964 0.299448 0.140506
C43   C     C_R   0.413729 0.914965 0.200550 0.140510
C44   C     C_R   0.086838 0.084951 0.700604 0.140498
C45   C     C_R   0.906161 0.656078 0.759451 -0.222699
C46   C     C_R   0.593114 0.343819 0.259514 -0.222652
C47   C     C_R   0.406966 0.843820 0.240482 -0.222639
C48   C     C_R   0.093858 0.156074 0.740551 -0.222702
C49   C     C_R   0.958641 0.645669 0.699688 -0.162501
C50   C     C_R   0.540838 0.354266 0.199730 -0.162432
C51   C     C_R   0.459224 0.854268 0.300267 -0.162459
C52   C     C_R   0.041369 0.145666 0.800314 -0.162495
C53   C     C_R   0.989283 0.431815 0.821891 -0.216674
C54   C     C_R   0.510961 0.568200 0.321880 -0.216661
C55   C     C_R   0.489046 0.068206 0.178122 -0.216661
C56   C     C_R   0.010712 0.931816 0.678109 -0.216680
C57   C     C_R   0.880686 0.528727 0.901031 -0.188430
C58   C     C_R   0.618744 0.471193 0.401089 -0.188608
C59   C     C_R   0.381311 0.971191 0.098909 -0.188652
C60   C     C_R   0.119330 0.028723 0.598971 -0.188417
C61   C     C_R   0.039897 0.549343 0.614239 -0.177025
C62   C     C_R   0.460168 0.450650 0.114245 -0.177028
C63   C     C_R   0.539821 0.950653 0.385757 -0.177037
C64   C     C_R   0.960106 0.049342 0.885761 -0.177025
H13   H     H_    0.038837 0.367102 0.809319 0.097312
H14   H     H_    0.461766 0.632961 0.309271 0.097271
H15   H     H_    0.538215 0.132971 0.190733 0.097263
H16   H     H_    0.961147 0.867104 0.690681 0.097313
H17   H     H_    0.967599 0.345768 0.717429 0.113488
H18   H     H_    0.533626 0.654160 0.217408 0.113502
H19   H     H_    0.466334 0.154162 0.282594 0.113503
H20   H     H_    0.032408 0.845769 0.782570 0.113491
H21   H     H_    0.956838 0.703654 0.671252 0.105509
H22   H     H_    0.542411 0.296271 0.171303 0.105392
H23   H     H_    0.457658 0.796272 0.328693 0.105391
H24   H     H_    0.043173 0.203651 0.828750 0.105510
C65   C     C_3   0.083714 0.454654 0.521273 -0.338647
C66   C     C_3   0.085994 0.362154 0.492672 -0.255518
C67   C     C_3   0.128822 0.367252 0.425560 -0.797282
H25   H     H_    0.026077 0.409470 0.402150 0.239499
H26   H     H_    0.268747 0.395001 0.418369 0.250249
H27   H     H_    0.123914 0.299948 0.405733 0.231213
H28   H     H_    0.193933 0.320667 0.514292 0.230815
H29   H     H_    0.948017 0.330751 0.497621 0.229242
H30   H     H_    0.975792 0.493551 0.497497 0.165368
H31   H     H_    0.219318 0.486174 0.511629 0.173972
C68   C     C_3   0.416416 0.545371 0.021288 -0.338591
C69   C     C_3   0.413908 0.637890 0.992720 -0.255665
C70   C     C_3   0.370364 0.632850 0.925653 -0.797409
H32   H     H_    0.472800 0.590620 0.902125 0.239501
H33   H     H_    0.230338 0.605154 0.918603 0.250243
H34   H     H_    0.375137 0.700160 0.905839 0.231193
H35   H     H_    0.306247 0.679384 0.014470 0.230654
H36   H     H_    0.551960 0.669259 0.997532 0.229346
H37   H     H_    0.524258 0.506498 0.997467 0.165294
H38   H     H_    0.280792 0.513839 0.011683 0.173996
C71   C     C_3   0.583484 0.045373 0.478718 -0.338577
C72   C     C_3   0.586010 0.137896 0.507283 -0.255656
C73   C     C_3   0.629630 0.132863 0.574344 -0.797318
H39   H     H_    0.527239 0.090618 0.597886 0.239488
H40   H     H_    0.769695 0.105185 0.581378 0.250223
H41   H     H_    0.624835 0.200179 0.594156 0.231191
H42   H     H_    0.693639 0.179392 0.485518 0.230614
H43   H     H_    0.447944 0.169261 0.502486 0.229363
H44   H     H_    0.475629 0.006505 0.502538 0.165284
H45   H     H_    0.719103 0.013834 0.488327 0.173985
C74   C     C_3   0.916276 0.954653 0.978726 -0.338655
C75   C     C_3   0.914098 0.862159 0.007333 -0.255533
C76   C     C_3   0.871306 0.867260 0.074446 -0.797366
H46   H     H_    0.974012 0.909512 0.097845 0.239534
H47   H     H_    0.731350 0.894971 0.081645 0.250253
H48   H     H_    0.876317 0.799962 0.094280 0.231121
H49   H     H_    0.806183 0.820649 0.985725 0.230825
H50   H     H_    0.052099 0.830783 0.002376 0.229241
H51   H     H_    0.024137 0.993579 0.002503 0.165385
H52   H     H_    0.780635 0.986139 0.988362 0.173973
O21   O     O_3   0.997158 0.305749 0.604221 -0.675281
H53   H     H_    0.945647 0.265738 0.635235 0.279658
O22   O     O_3   0.504226 0.694178 0.104186 -0.675287
H54   H     H_    0.556120 0.734121 0.135184 0.279642
O23   O     O_3   0.495533 0.194158 0.395826 -0.675315
H55   H     H_    0.444141 0.234162 0.364796 0.279695
O24   O     O_3   0.002867 0.805751 0.895778 -0.675281
H56   H     H_    0.054456 0.765749 0.864770 0.279653

loop_
_geom_bond_atom_site_label_1
_geom_bond_atom_site_label_2
_ccdc_geom_bond_type
O17   V3    S    
C73   H41   S    
C47   C51   A    
C18   C68   S    
O1    C5    A    
O23   H55   S    
C19   C23   A    
C68   H38   S    
O19   V1    S    
C9    H9    S    
O3    C7    A    
H6    C46   S    
C24   O24   S    
C44   C48   A    
O15   V3    S    
C4    C15   S    
C36   C64   A    
C66   C67   S    
C29   C37   A    
C68   C69   S    
C30   C34   A    
O7    C3    A    
C71   H45   S    
C8    C62   S    
C28   C32   A    
O9    V1    S    
C50   H22   S    
O10   V2    S    
C49   H21   S    
C72   H43   S    
O4    C8    A    
C29   C33   A    
C51   H23   S    
C74   C75   S    
C30   C38   A    
H7    C47   S    
O1    V3    S    
O13   V1    S    
O2    V4    S    
C11   C43   A    
O3    V1    S    
C12   C60   A    
C54   H14   S    
C75   H50   S    
C3    C16   S    
C15   C55   A    
C20   C74   S    
C1    O15   A    
C65   H31   S    
C2    O16   A    
C67   H26   S    
C14   C54   A    
O2    C6    A    
C70   H34   S    
C16   C60   A    
O14   V2    S    
C25   H17   S    
C66   H28   S    
C39   C55   A    
C53   H13   S    
O11   C7    A    
C11   H11   S    
O12   C8    A    
O10   C6    A    
H4    C60   S    
C36   C52   A    
C17   C65   S    
C45   C49   A    
C28   H20   S    
O5    V1    S    
C27   C31   A    
O7    V3    S    
C76   H47   S    
C69   H36   S    
O8    V4    S    
C48   C52   A    
C73   H39   S    
C26   C30   A    
C6    C64   S    
C12   C44   A    
C13   C53   A    
C72   H42   S    
C17   C21   A    
O18   V4    S    
C14   C58   A    
C17   C61   A    
C19   C71   S    
C21   O21   S    
O6    V2    S    
C20   C24   A    
C32   C36   A    
C19   C63   A    
O5    C1    A    
C75   H49   S    
C42   C46   A    
O24   H56   S    
C41   C45   A    
O8    C4    A    
C67   H27   S    
H5    C45   S    
H2    C58   S    
C18   C22   A    
H1    C57   S    
C32   C40   A    
O11   V3    S    
H3    C59   S    
C22   C26   A    
C40   C56   A    
C10   H10   S    
C74   H52   S    
C7    C61   S    
C10   C58   A    
C71   C72   S    
C35   C51   A    
C16   C56   A    
C31   C39   A    
C20   C64   A    
C27   H19   S    
C34   C50   A    
C76   H46   S    
C76   H48   S    
C33   C49   A    
C65   C66   S    
O16   V4    S    
C73   H40   S    
C3    O13   A    
C68   H37   S    
C71   H44   S    
C1    C14   S    
C40   C44   A    
C55   H15   S    
C75   C76   S    
H8    C48   S    
C9    C57   A    
O6    C2    A    
C21   C25   A    
C72   C73   S    
C26   H18   S    
C11   C59   A    
O12   V4    S    
C23   C27   A    
C24   C28   A    
C38   C54   A    
O20   V2    S    
C37   C53   A    
C46   C50   A    
C10   C42   A    
C43   C47   A    
C23   O23   S    
C9    C41   A    
C67   H25   S    
C70   H32   S    
C35   C63   A    
C5    C63   S    
C74   H51   S    
C69   H35   S    
C12   H12   S    
C31   C35   A    
O9    C5    A    
O4    V2    S    
C22   O22   S    
C56   H16   S    
C52   H24   S    
C25   C29   A    
C65   H30   S    
C38   C42   A    
C4    O14   A    
O22   H54   S    
C70   H33   S    
C37   C41   A    
C18   C62   A    
C13   C57   A    
O21   H53   S    
C2    C13   S    
C39   C43   A    
C66   H29   S    
C34   C62   A    
C15   C59   A    
C69   C70   S    
C33   C61   A    
