data_mof_unit_7357.cif
_audit_creation_date              2012-12-10T17:29:18-0500
_audit_creation_method            fapswitch 2.2
_symmetry_space_group_name_H-M    P1
_symmetry_Int_Tables_number       1
_space_group_crystal_system       triclinic
_cell_length_a                    12.097196
_cell_length_b                    12.869313
_cell_length_c                    13.176616
_cell_angle_alpha                 85.068994
_cell_angle_beta                  112.407556
_cell_angle_gamma                 92.48374
_cell_volume                      1889.33931955

loop_
_atom_site_label
_atom_site_type_symbol
_atom_type_description
_atom_site_fract_x
_atom_site_fract_y
_atom_site_fract_z
_atom_type_partial_charge
C1    C     C_R   0.476922 0.299479 0.493387 0.908062
C2    C     C_R   0.568719 0.511117 0.989955 -0.050479
C3    C     C_R   0.549705 0.541070 0.879861 -0.034671
C4    C     C_R   0.484464 0.543643 0.031229 0.068399
C5    C     C_R   0.404836 0.626887 0.974970 -0.178331
C6    C     C_R   0.399391 0.665799 0.869538 0.525656
C7    C     C_R   0.472919 0.624202 0.824637 -0.244838
C8    C     C_R   0.474577 0.491311 0.124861 -0.294293
C9    C     C_R   0.314785 0.602633 0.111965 0.412116
C10   C     C_R   0.606963 0.486281 0.826768 -0.134294
C11   C     C_R   0.546780 0.806528 0.536336 -0.201825
C12   C     C_R   0.565615 0.494906 0.707660 0.874349
C13   C     C_R   0.464762 0.186657 0.489512 -0.287767
C14   C     C_R   0.353330 0.028542 0.499080 -0.320474
C15   C     C_R   0.353807 0.136383 0.473925 0.414145
C16   C     C_R   0.567127 0.127890 0.506407 0.363693
C17   C     C_R   0.564336 0.020948 0.528382 -0.011247
C18   C     C_R   0.456792 0.971527 0.523905 0.055158
C19   C     C_R   0.450682 0.864283 0.533300 -0.268175
C20   C     C_R   0.660018 0.854372 0.559148 0.498127
C21   C     C_R   0.667244 0.962146 0.552357 -0.234348
C22   C     C_R   0.022976 0.625234 0.431785 0.311185
C23   C     C_R   0.525264 0.698715 0.511709 0.876143
C24   C     C_R   0.140529 0.611587 0.435814 0.389842
C25   C     C_R   0.157465 0.448330 0.540376 0.463430
C26   C     C_R   0.035365 0.455925 0.531683 -0.084214
C27   C     C_R   0.968219 0.544772 0.475534 -0.056838
C28   C     C_R   0.851071 0.556455 0.474446 0.103910
C29   C     C_R   0.862347 0.395211 0.576042 0.034217
C30   C     C_R   0.980550 0.382639 0.584814 -0.271036
C31   C     C_R   0.434272 0.504757 0.291036 0.911075
C32   C     C_R   0.329639 0.663579 0.024144 0.355875
C33   C     C_R   0.398930 0.526164 0.171230 -0.238249
C34   C     C_R   0.692904 0.411501 0.885960 -0.403705
C35   C     C_R   0.725611 0.392538 0.999697 0.446643
C36   C     C_R   0.671234 0.450089 0.053344 0.361303
H1    H     H_    0.272338 0.988245 0.497186 0.154586
H2    H     H_    0.752923 0.998944 0.563620 0.201121
H3    H     H_    0.801562 0.626517 0.437627 0.160494
H4    H     H_    0.821924 0.336438 0.615150 0.163579
H5    H     H_    0.024920 0.313746 0.631417 0.159878
H6    H     H_    0.527723 0.423583 0.164829 0.209555
H7    H     H_    0.735759 0.368841 0.843892 0.186956
H8    H     H_    0.467072 0.657266 0.744413 0.165525
H9    H     H_    0.367146 0.826642 0.527843 0.239721
N1    N     N_R   0.798200 0.480260 0.519790 -0.115655
N2    N     N_R   0.201820 0.519740 0.480210 -0.183555
O1    O     O_R   0.579910 0.341070 0.505280 -0.580005
O2    O     O_R   0.388440 0.353740 0.492580 -0.574978
O3    O     O_R   0.643280 0.490550 0.663120 -0.644320
O4    O     O_R   0.451810 0.503220 0.650420 -0.572285
O5    O     O_R   0.611560 0.646260 0.507420 -0.606974
O6    O     O_R   0.420090 0.658930 0.494720 -0.591529
O7    O     O_R   0.548190 0.496780 0.349580 -0.619212
O8    O     O_R   0.356720 0.509450 0.336880 -0.590819
Zn1   Zn    Zn3+2 0.627850 0.491540 0.508480 0.961012
Zn2   Zn    Zn3+2 0.372150 0.508460 0.491520 1.005332
O9    O     O_3   0.222791 0.622869 0.144434 -0.615905
C37   C     C_3   0.114996 0.579085 0.072262 0.111426
H10   H     H_    0.107101 0.582995 0.984812 0.127787
H11   H     H_    0.039578 0.624964 0.072749 0.180521
C38   C     C_3   0.099703 0.466667 0.112125 -0.813944
H12   H     H_    0.106499 0.463220 0.198784 0.285998
H13   H     H_    0.010818 0.436243 0.059707 0.268961
H14   H     H_    0.169671 0.416772 0.106968 0.225523
O10   O     O_3   0.762852 0.798447 0.580883 -0.615976
C39   C     C_3   0.802647 0.751243 0.689834 0.122562
H15   H     H_    0.866752 0.689239 0.696788 0.168106
H16   H     H_    0.729146 0.712009 0.710553 0.126433
C40   C     C_3   0.867455 0.829704 0.774338 -0.838119
H17   H     H_    0.803551 0.887278 0.777919 0.235232
H18   H     H_    0.908697 0.788077 0.857082 0.247027
H19   H     H_    0.938173 0.871553 0.752131 0.282063
O11   O     O_3   0.250712 0.196154 0.439489 -0.616416
C41   C     C_3   0.146804 0.143637 0.372865 0.007171
H20   H     H_    0.111469 0.090980 0.425171 0.150921
H21   H     H_    0.163959 0.098758 0.311726 0.155010
C42   C     C_3   0.051376 0.223795 0.310116 -0.708343
H22   H     H_    0.032761 0.271283 0.368194 0.256554
H23   H     H_    0.081739 0.276043 0.254158 0.265585
H24   H     H_    0.967903 0.183266 0.260725 0.212568
O12   O     O_3   0.669859 0.173765 0.498906 -0.609101
C43   C     C_3   0.662265 0.172649 0.389000 0.129396
H25   H     H_    0.616691 0.244315 0.340734 0.188527
H26   H     H_    0.612392 0.103551 0.346575 0.114962
C44   C     C_3   0.787590 0.169907 0.388279 -0.767420
H27   H     H_    0.833108 0.097098 0.433224 0.221954
H28   H     H_    0.782026 0.172334 0.302049 0.220102
H29   H     H_    0.841161 0.237780 0.428011 0.283232
O13   O     O_3   0.976953 0.725367 0.415082 -0.617014
C45   C     C_3   0.913908 0.754460 0.302139 0.119509
H30   H     H_    0.892017 0.688673 0.248395 0.212209
H31   H     H_    0.968346 0.810067 0.272242 0.147734
C46   C     C_3   0.801495 0.813703 0.287061 -0.739535
H32   H     H_    0.826124 0.883723 0.335244 0.240778
H33   H     H_    0.754251 0.839309 0.198722 0.217352
H34   H     H_    0.739466 0.764491 0.314725 0.263880
O14   O     O_3   0.204093 0.701534 0.428688 -0.619317
C47   C     C_3   0.190401 0.730427 0.319103 0.258592
H35   H     H_    0.108102 0.697762 0.256748 0.113317
H36   H     H_    0.269390 0.702954 0.307097 0.246301
C48   C     C_3   0.189823 0.849290 0.300533 -0.891356
H37   H     H_    0.151639 0.884901 0.353556 0.247721
H38   H     H_    0.282017 0.880141 0.319511 0.261078
H39   H     H_    0.134855 0.873452 0.213389 0.238728
O15   O     O_3   0.317253 0.739353 0.804837 -0.552784
C49   C     C_3   0.212563 0.687917 0.738183 0.104392
H40   H     H_    0.169735 0.642991 0.789825 0.136159
H41   H     H_    0.232053 0.633941 0.685526 0.146724
C50   C     C_3   0.124840 0.769151 0.663344 -0.661868
H42   H     H_    0.156641 0.802936 0.598734 0.260105
H43   H     H_    0.035486 0.732500 0.624285 0.228077
H44   H     H_    0.116454 0.833125 0.711093 0.279209
O16   O     O_3   0.240801 0.399938 0.635626 -0.597668
C51   C     C_3   0.239009 0.290130 0.636605 0.177641
H45   H     H_    0.317575 0.265628 0.622154 0.213700
H46   H     H_    0.157603 0.256807 0.574085 0.139820
C52   C     C_3   0.256314 0.242847 0.751778 -0.896557
H47   H     H_    0.188627 0.271607 0.780061 0.254146
H48   H     H_    0.249239 0.156512 0.751850 0.239490
H49   H     H_    0.346345 0.264397 0.811009 0.259568
S1    S     S_3+6 0.275474 0.793394 0.998614 0.035197
O17   O     O_2   0.351864 0.865912 0.956446 -0.258731
O18   O     O_2   0.148611 0.795370 0.917185 -0.351074
O19   O     O_3   0.279537 0.835979 0.116809 -0.564767
H50   H     H_    0.261341 0.911293 0.099801 0.368797
S2    S     S_3+6 0.756754 0.476440 0.191118 -0.016630
O20   O     O_2   0.739148 0.391958 0.269664 -0.359119
O21   O     O_2   0.887358 0.483525 0.210125 -0.318845
O22   O     O_3   0.712821 0.591988 0.211806 -0.608448
H51   H     H_    0.677856 0.577572 0.267842 0.383354
O23   O     O_3   0.818912 0.326312 0.061030 -0.573220
C53   C     C_3   0.795336 0.223711 0.025895 0.094703
H52   H     H_    0.707932 0.212704 0.956449 0.123427
H53   H     H_    0.792883 0.170458 0.095906 0.154851
C54   C     C_3   0.895800 0.189923 0.993605 -0.858560
H54   H     H_    0.982969 0.194666 0.063860 0.259352
H55   H     H_    0.879955 0.108208 0.969948 0.222473
H56   H     H_    0.899508 0.241145 0.922730 0.247740

loop_
_geom_bond_atom_site_label_1
_geom_bond_atom_site_label_2
_ccdc_geom_bond_type
C14   C18   A    
C35   C36   A    
C4    C8    A    
O16   C51   S    
C23   O5    A    
C28   N1    A    
C26   C27   A    
C38   H12   S    
C24   O14   S    
C20   O10   S    
C8    H6    S    
C34   C35   A    
C3    C7    A    
C5    C6    A    
C48   H38   S    
C42   H23   S    
C45   H31   S    
O15   C49   S    
C51   H45   S    
O2    Zn2   S    
C48   H39   S    
C9    O9    S    
C50   H42   S    
C38   H13   S    
C9    C32   A    
C52   H47   S    
C21   H2    S    
C43   H25   S    
C16   C17   A    
C51   H46   S    
C53   C54   S    
C49   H40   S    
C31   C33   S    
C30   H5    S    
C40   H17   S    
O4    Zn2   S    
C25   N2    A    
C5    C32   A    
O10   C39   S    
C37   H10   S    
C9    C33   A    
C49   H41   S    
C46   H32   S    
C54   H56   S    
C23   O6    A    
C50   H43   S    
C6    O15   S    
O7    Zn1   S    
C11   C20   A    
C37   H11   S    
O11   C41   S    
C39   H15   S    
C32   S1    S    
C54   H55   S    
C45   H30   S    
O6    Zn2   S    
C44   H27   S    
O23   C53   S    
C28   H3    S    
O9    C37   S    
O12   C43   S    
O3    Zn1   S    
C39   H16   S    
C52   H49   S    
C15   O11   S    
C2    C4    A    
C41   H20   S    
S2    O21   D    
C29   C30   A    
N2    Zn2   S    
C47   H35   S    
C51   C52   S    
C11   C19   A    
C47   C48   S    
C40   H19   S    
C16   O12   S    
C17   C18   A    
C22   O13   S    
C10   C34   A    
C7    H8    S    
C46   H33   S    
C41   H21   S    
C50   H44   S    
C10   C12   S    
C47   H36   S    
C26   C30   A    
C22   C27   A    
C13   C15   A    
C53   H52   S    
C49   C50   S    
C22   C24   A    
C36   S2    S    
C1    C13   S    
S1    O18   D    
S2    O20   D    
C12   O4    A    
C2    C36   A    
O1    Zn1   S    
C37   C38   S    
C38   H14   S    
C43   H26   S    
C42   H22   S    
C24   N2    A    
C34   H7    S    
C54   H54   S    
C44   H29   S    
C12   O3    A    
C19   H9    S    
C1    O1    A    
C6    C7    A    
C46   H34   S    
C29   N1    A    
C39   C40   S    
S1    O19   S    
O8    Zn2   S    
C2    C3    A    
C25   C26   A    
S2    O22   S    
C3    C10   A    
C25   O16   S    
C14   H1    S    
C42   H24   S    
O13   C45   S    
O19   H50   S    
C29   H4    S    
C11   C23   S    
O22   H51   S    
C44   H28   S    
C8    C33   A    
C31   O7    A    
C48   H37   S    
C41   C42   S    
C52   H48   S    
C4    C5    A    
C43   C44   S    
C20   C21   A    
O14   C47   S    
C13   C16   A    
N1    Zn1   S    
C27   C28   A    
C53   H53   S    
C18   C19   A    
C14   C15   A    
C40   H18   S    
C31   O8    A    
S1    O17   D    
C1    O2    A    
C35   O23   S    
O5    Zn1   S    
C45   C46   S    
C17   C21   A    
