data_mof_unit_14236.cif
_audit_creation_date              2012-12-11T14:43:34-0500
_audit_creation_method            fapswitch 2.2
_symmetry_space_group_name_H-M    P1
_symmetry_Int_Tables_number       1
_space_group_crystal_system       triclinic
_cell_length_a                    20.674514
_cell_length_b                    7.106275
_cell_length_c                    16.511823
_cell_angle_alpha                 90.430595
_cell_angle_beta                  92.278633
_cell_angle_gamma                 89.653127
_cell_volume                      2423.87008466

loop_
_atom_site_label
_atom_site_type_symbol
_atom_type_description
_atom_site_fract_x
_atom_site_fract_y
_atom_site_fract_z
_atom_type_partial_charge
O1    O     O_R   0.564840 0.505290 0.579830 -0.543810
O2    O     O_R   0.435160 0.005290 0.420170 -0.543167
O3    O     O_R   0.556720 0.179930 0.409350 -0.530448
O4    O     O_R   0.443280 0.679930 0.590650 -0.538556
C1    C     C_R   0.569752 0.343156 0.380316 0.702462
C2    C     C_R   0.430508 0.845105 0.619780 0.707382
O5    O     O_R   0.572280 0.175810 0.578530 -0.530817
O6    O     O_R   0.427720 0.675810 0.421470 -0.530818
O7    O     O_R   0.450830 0.001920 0.590540 -0.531574
O8    O     O_R   0.549170 0.501920 0.409460 -0.533802
C3    C     C_R   0.590324 0.343315 0.604458 0.691448
C4    C     C_R   0.409777 0.843288 0.395427 0.699535
O9    O     O_3   0.460130 0.338030 0.503750 -0.363970
O10   O     O_3   0.539870 0.838030 0.496250 -0.361708
V1    V     V_3+5 0.507400 0.064560 0.499310 1.561711
V2    V     V_3+5 0.492600 0.564560 0.500690 1.544943
C5    C     C_R   0.144146 0.926192 0.166636 -0.135978
C6    C     C_R   0.856524 0.424719 0.832326 -0.132269
C7    C     C_R   0.356042 0.844094 0.332687 -0.100585
C8    C     C_R   0.644428 0.343741 0.666667 -0.095754
C9    C     C_R   0.299506 0.683791 0.220034 -0.064636
C10   C     C_R   0.701390 0.184655 0.778854 -0.070839
C11   C     C_R   0.352360 0.698122 0.274929 -0.096187
C12   C     C_R   0.648238 0.199633 0.724438 -0.093761
C13   C     C_R   0.306090 0.979278 0.333333 -0.109020
C14   C     C_R   0.694809 0.475504 0.665093 -0.127799
C15   C     C_R   0.252459 0.969314 0.276992 -0.014296
C16   C     C_R   0.748867 0.464468 0.720773 -0.008541
C17   C     C_R   0.248862 0.815548 0.221169 0.095155
C18   C     C_R   0.752260 0.313748 0.777157 0.098322
C19   C     C_R   0.194816 0.794673 0.166963 -0.190986
C20   C     C_R   0.806153 0.293864 0.831628 -0.196901
C21   C     C_R   0.148263 0.079075 0.220833 -0.226017
C22   C     C_R   0.852886 0.574011 0.777083 -0.229757
C23   C     C_R   0.201624 0.104972 0.274681 0.434144
C24   C     C_R   0.800097 0.596945 0.721951 0.431690
H1    H     H_    0.192899 0.678742 0.123876 0.134502
H2    H     H_    0.807906 0.180226 0.875139 0.128165
H3    H     H_    0.109285 0.181685 0.220340 0.184718
H4    H     H_    0.891905 0.675045 0.777466 0.183961
H5    H     H_    0.390144 0.592015 0.273207 0.112960
H6    H     H_    0.610214 0.095762 0.726687 0.110114
H7    H     H_    0.308389 0.084703 0.380615 0.219032
H8    H     H_    0.692285 0.579897 0.617975 0.212037
C25   C     C_R   0.383347 0.845088 0.837837 -0.162408
C26   C     C_R   0.622122 0.248367 0.168175 -0.164668
H9    H     H_    0.472873 0.828754 0.776442 0.103856
H10   H     H_    0.533277 0.225650 0.230052 0.105122
H11   H     H_    0.407228 0.828174 0.896976 0.113018
H12   H     H_    0.601468 0.184622 0.113280 0.112893
C27   C     C_R   0.390997 0.854527 0.692022 -0.053289
C28   C     C_R   0.609170 0.344019 0.307776 -0.056609
C29   C     C_R   0.080436 0.952028 0.735144 -0.228050
C30   C     C_R   0.914094 0.514856 0.259429 -0.216185
C31   C     C_R   0.116692 0.001017 0.669589 -0.095408
C32   C     C_R   0.873610 0.591127 0.316499 -0.095759
C33   C     C_R   0.184346 0.007209 0.676513 0.364587
C34   C     C_R   0.806349 0.574785 0.307003 0.366337
C35   C     C_R   0.216939 0.931201 0.746892 -0.070954
C36   C     C_R   0.779797 0.448340 0.247106 -0.055940
C37   C     C_R   0.179456 0.899956 0.816615 0.038872
C38   C     C_R   0.820897 0.386873 0.183991 0.048302
C39   C     C_R   0.285143 0.894093 0.752692 0.071519
C40   C     C_R   0.713778 0.388161 0.244731 0.095022
C41   C     C_R   0.315764 0.866212 0.830130 0.135476
C42   C     C_R   0.687486 0.301264 0.173219 0.132012
C43   C     C_R   0.278607 0.854433 0.898808 -0.197561
C44   C     C_R   0.727128 0.261243 0.108541 -0.204198
C45   C     C_R   0.211380 0.864052 0.891805 -0.161515
C46   C     C_R   0.793177 0.297768 0.114783 -0.166294
C47   C     C_R   0.323448 0.871478 0.684013 -0.082395
C48   C     C_R   0.674470 0.397136 0.313123 -0.046843
C49   C     C_R   0.420779 0.843709 0.769313 -0.185014
C50   C     C_R   0.583218 0.271181 0.234688 -0.161726
C51   C     C_R   0.110838 0.912849 0.810125 -0.087223
C52   C     C_R   0.888366 0.424751 0.189887 -0.087446
H13   H     H_    0.301436 0.861373 0.624032 0.178645
H14   H     H_    0.694948 0.433011 0.372082 0.170811
H15   H     H_    0.028112 0.961979 0.729312 0.159341
H16   H     H_    0.965396 0.545477 0.264950 0.154233
H17   H     H_    0.091387 0.051278 0.615193 0.192250
H18   H     H_    0.894701 0.680593 0.363798 0.193110
H19   H     H_    0.184563 0.845546 0.946173 0.099868
H20   H     H_    0.822368 0.256133 0.064618 0.112764
O11   O     O_R   0.950790 0.256670 0.090520 -0.535390
O12   O     O_R   0.049210 0.756670 0.909480 -0.535655
O13   O     O_R   0.927720 0.590370 0.921470 -0.542671
O14   O     O_R   0.072280 0.090370 0.078530 -0.542361
C53   C     C_R   0.910070 0.422641 0.895168 0.718368
C54   C     C_R   0.090123 0.922835 0.104505 0.716784
O15   O     O_R   0.943270 0.586180 0.090640 -0.536945
O16   O     O_R   0.056730 0.086180 0.909360 -0.535704
O17   O     O_R   0.064850 0.759970 0.079840 -0.532330
O18   O     O_R   0.935150 0.259970 0.920160 -0.534198
C55   C     C_R   0.929955 0.419476 0.118815 0.696865
C56   C     C_R   0.070044 0.917350 0.881498 0.701995
O19   O     O_3   0.039850 0.428050 0.996240 -0.371968
O20   O     O_3   0.960150 0.928050 0.003760 -0.374261
V3    V     V_3+5 0.992610 0.701540 0.000700 1.446249
V4    V     V_3+5 0.007390 0.201540 0.999300 1.447154
S1    S     S_3+6 0.221778 0.160800 0.608154 0.045038
O21   O     O_2   0.237083 0.054243 0.532282 -0.291254
O22   O     O_2   0.175933 0.318911 0.585950 -0.279434
O23   O     O_3   0.290125 0.254537 0.649353 -0.496449
H21   H     H_    0.276120 0.327010 0.697121 0.327980
S2    S     S_3+6 0.760335 0.758509 0.351540 0.026603
O24   O     O_2   0.742927 0.705245 0.435725 -0.270868
O25   O     O_2   0.799873 0.935436 0.357059 -0.311206
O26   O     O_3   0.692145 0.803294 0.295811 -0.505265
H22   H     H_    0.707083 0.853020 0.243913 0.328784
H23   H     H_    0.297751 0.567092 0.177379 0.108916
H24   H     H_    0.703055 0.069973 0.821804 0.105627
S3    S     S_3+6 0.200774 0.311516 0.335710 0.029134
O27   O     O_2   0.171548 0.264465 0.414670 -0.237487
O28   O     O_2   0.267570 0.389079 0.351301 -0.342900
O29   O     O_3   0.154465 0.477176 0.289375 -0.524602
H25   H     H_    0.154568 0.584908 0.327811 0.378437
S4    S     S_3+6 0.801748 0.793691 0.656543 0.018089
O30   O     O_2   0.822485 0.727494 0.574958 -0.263731
O31   O     O_2   0.736159 0.885204 0.647912 -0.344187
O32   O     O_3   0.855167 0.953687 0.693307 -0.519763
H26   H     H_    0.848987 0.064607 0.657784 0.379569
H27   H     H_    0.301556 0.830457 0.958034 0.117313
H28   H     H_    0.707430 0.193656 0.053971 0.116886

loop_
_geom_bond_atom_site_label_1
_geom_bond_atom_site_label_2
_ccdc_geom_bond_type
C42   C44   A    
C39   C41   A    
S1    O21   D    
C15   C17   A    
C12   H6    S    
O1    C3    A    
C47   H13   S    
O2    C4    A    
C44   H28   S    
C2    O7    A    
C14   H8    S    
C37   C51   A    
O5    C3    A    
C21   H3    S    
C27   C47   A    
O12   V3    S    
C25   C49   A    
C29   H15   S    
C26   C42   A    
C28   C50   A    
C52   C55   S    
C33   C35   A    
S2    O24   D    
C34   C36   A    
O16   C56   A    
O29   H25   S    
C38   C46   A    
C36   C38   A    
C53   O18   A    
S4    O30   D    
C48   H14   S    
C9    H23   S    
C8    C12   A    
C8    C14   A    
C41   C43   A    
C1    C28   S    
C20   H2    S    
C2    C27   S    
C31   H17   S    
C46   H20   S    
O17   V3    S    
O13   V3    S    
S3    O29   S    
O5    V1    S    
O6    V2    S    
C13   H7    S    
C29   C51   A    
C5    C21   A    
O23   H21   S    
O19   V3    S    
C51   C56   S    
C30   H16   S    
C29   C31   A    
C30   C32   A    
C3    C8    S    
C35   C37   A    
H10   C50   S    
H9    C49   S    
O4    C2    A    
C15   C23   A    
C9    C17   A    
C19   H1    S    
C43   C45   A    
S4    O32   S    
C40   C42   A    
O4    V2    S    
C7    C11   A    
C45   H19   S    
O18   V4    S    
O6    C4    A    
C28   C48   A    
C25   H11   S    
O1    V2    S    
O2    V1    S    
C6    C22   A    
O32   H26   S    
O14   V4    S    
O12   C56   A    
C30   C52   A    
C44   C46   A    
O14   C54   A    
S1    O23   S    
C10   H24   S    
C31   C33   A    
C25   C41   A    
C5    C19   A    
C10   C12   A    
C6    C20   A    
C26   C50   A    
O19   V4    S    
C24   S4    S    
O16   V4    S    
C54   O17   A    
S3    O27   D    
C37   C45   A    
C38   C52   A    
C6    C53   S    
C14   C16   A    
C5    C54   S    
C27   C49   A    
C39   C47   A    
O3    C1    A    
C43   H27   S    
C32   H18   S    
C13   C15   A    
C33   S1    S    
C26   H12   S    
C35   C39   A    
C11   H5    S    
C36   C40   A    
O15   V3    S    
C9    C11   A    
O7    V1    S    
C1    O8    A    
C17   C19   A    
O11   V4    S    
C10   C18   A    
O26   H22   S    
C18   C20   A    
O11   C55   A    
S2    O25   D    
C4    C7    S    
C16   C18   A    
C21   C23   A    
C32   C34   A    
C23   S3    S    
C22   C24   A    
C40   C48   A    
C7    C13   A    
O20   V4    S    
S4    O31   D    
O15   C55   A    
C16   C24   A    
S1    O22   D    
O20   V3    S    
O9    V2    S    
O13   C53   A    
O10   V1    S    
C22   H4    S    
O3    V1    S    
O8    V2    S    
C34   S2    S    
S3    O28   D    
S2    O26   S    
