data_mof_unit_31349.cif
_audit_creation_date              2012-12-11T19:28:07-0500
_audit_creation_method            fapswitch 2.2
_symmetry_space_group_name_H-M    P1
_symmetry_Int_Tables_number       1
_space_group_crystal_system       triclinic
_cell_length_a                    8.199099
_cell_length_b                    15.07906
_cell_length_c                    16.524512
_cell_angle_alpha                 111.744237
_cell_angle_beta                  98.042214
_cell_angle_gamma                 81.384748
_cell_volume                      1868.28350712

loop_
_atom_site_label
_atom_site_type_symbol
_atom_type_description
_atom_site_fract_x
_atom_site_fract_y
_atom_site_fract_z
_atom_type_partial_charge
Ba1   Ba    Ba6+2 0.364200 0.465260 0.540900 1.663635
Ba2   Ba    Ba6+2 0.825630 0.534670 0.459090 1.659380
C1    C     C_3   0.152344 0.210382 0.788664 -0.301696
C2    C     C_R   0.897257 0.536499 0.753880 -0.316862
C3    C     C_2   0.475454 0.383403 0.132531 -0.131414
C4    C     C_3   0.691622 0.328384 0.772109 0.356712
C5    C     C_2   0.449491 0.418366 0.217872 0.056134
C6    C     C_2   0.175047 0.498709 0.190565 0.010797
C7    C     C_3   0.222727 0.487830 0.101645 -0.055380
C8    C     C_3   0.343085 0.397670 0.063998 0.017408
C9    C     C_2   0.082779 0.497306 0.035024 -0.078363
C10   C     C_2   0.114855 0.514629 0.965068 -0.075350
C11   C     C_R   0.825746 0.573490 0.923960 -0.011707
C12   C     C_3   0.181727 0.272691 0.738952 0.310723
C13   C     C_R   0.984255 0.531365 0.899086 -0.037656
C14   C     C_R   0.704116 0.595658 0.864169 -0.106264
C15   C     C_R   0.739429 0.575954 0.778320 0.081551
C16   C     C_3   0.696582 0.323934 0.862940 -0.309680
C17   C     C_R   0.018985 0.512574 0.812586 0.012623
C18   C     C_R   0.337357 0.816225 0.436989 0.055562
C19   C     C_R   0.266891 0.909164 0.440132 0.018050
C20   C     C_R   0.134110 0.100720 0.457513 -0.060630
C21   C     C_R   0.269167 0.054385 0.407995 -0.044537
C22   C     C_R   0.335786 0.961188 0.400670 -0.075308
C23   C     C_3   0.016926 0.732004 0.729202 0.305893
C24   C     C_R   0.074766 0.198776 0.473165 0.078603
C25   C     C_R   0.942769 0.241229 0.524864 -0.114471
C26   C     C_R   0.121565 0.808466 0.521452 0.020526
C27   C     C_R   0.051712 0.901417 0.526389 -0.003102
C28   C     C_3   0.698359 0.231368 0.339856 0.306339
C29   C     C_R   0.124465 0.952182 0.485904 0.061283
C30   C     C_R   0.914448 0.946475 0.573640 0.030375
C31   C     C_R   0.846223 0.037729 0.578930 -0.056244
C32   C     C_R   0.917423 0.090498 0.541496 -0.083300
C33   C     C_R   0.058669 0.047886 0.494843 0.018064
C34   C     C_3   0.020909 0.780313 0.828107 -0.302451
C35   C     C_R   0.854673 0.186023 0.552741 -0.023352
C36   C     C_R   0.261668 0.766901 0.476188 -0.257535
C37   C     C_3   0.723859 0.122497 0.312476 -0.383084
C38   C     C_3   0.518887 0.791951 0.689811 0.211467
C39   C     C_3   0.556162 0.897020 0.739120 0.747951
C40   C     C_3   0.168390 0.290657 0.273371 0.298593
C41   C     C_3   0.154558 0.244237 0.174077 -0.367636
C42   C     C_3   0.486787 0.672323 0.223794 0.340893
C43   C     C_3   0.480841 0.675669 0.132518 -0.340657
C44   C     C_3   0.968362 0.739508 0.275409 0.370137
C45   C     C_3   0.923016 0.828506 0.250922 -0.354237
C46   C     C_2   0.291511 0.475014 0.246959 -0.295470
H1    H     H_    0.249871 0.228495 0.681263 0.070081
H2    H     H_    0.271977 0.179212 0.812511 0.201861
H3    H     H_    0.255067 0.184626 0.153257 0.132663
H4    H     H_    0.164591 0.297607 0.144122 0.058172
H5    H     H_    0.032718 0.215512 0.150176 0.139771
H6    H     H_    0.058605 0.299245 0.714493 -0.053817
H7    H     H_    0.078741 0.151537 0.745326 0.130305
H8    H     H_    0.890125 0.711689 0.703459 -0.004392
H9    H     H_    0.107162 0.666520 0.714223 0.046632
H10   H     H_    0.935804 0.847857 0.845453 0.162876
H11   H     H_    0.981232 0.731886 0.856664 0.044502
H12   H     H_    0.813088 0.091915 0.261788 0.133913
H13   H     H_    0.148647 0.796830 0.856397 0.165745
H14   H     H_    0.083247 0.254632 0.845963 0.090597
H15   H     H_    0.722447 0.394339 0.913527 0.051776
H16   H     H_    0.567588 0.607073 0.225880 0.093756
H17   H     H_    0.359369 0.667901 0.236271 -0.064672
H18   H     H_    0.605617 0.683771 0.119049 0.158077
H19   H     H_    0.439500 0.608204 0.082911 0.066193
H20   H     H_    0.392896 0.737189 0.126931 0.113819
H21   H     H_    0.105380 0.726608 0.283981 -0.088956
H22   H     H_    0.917236 0.753605 0.338296 0.077700
H23   H     H_    0.773148 0.101543 0.369499 0.047531
H24   H     H_    0.975051 0.817095 0.188848 0.121426
H25   H     H_    0.974161 0.891295 0.303297 0.053089
H26   H     H_    0.591820 0.384306 0.766094 0.104853
H27   H     H_    0.786258 0.844001 0.242534 0.150748
H28   H     H_    0.587476 0.336802 0.110843 0.099024
H29   H     H_    0.584909 0.631090 0.885887 0.122115
H30   H     H_    0.266008 0.490556 0.313783 0.069290
H31   H     H_    0.927295 0.527528 0.689474 0.073248
H32   H     H_    0.957328 0.488867 0.042685 0.102777
H33   H     H_    0.242712 0.517836 0.956943 0.103740
H34   H     H_    0.603962 0.092200 0.285679 0.126133
H35   H     H_    0.328041 0.089872 0.375728 0.098687
H36   H     H_    0.442948 0.931026 0.364264 0.095653
H37   H     H_    0.739814 0.066979 0.615525 0.173702
H38   H     H_    0.811779 0.348619 0.765135 -0.072206
H39   H     H_    0.857739 0.912601 0.608100 0.130227
H40   H     H_    0.316479 0.696466 0.474675 0.055567
H41   H     H_    0.575732 0.306168 0.872450 0.168002
H42   H     H_    0.794937 0.267953 0.871115 0.131061
H43   H     H_    0.819449 0.259989 0.362972 0.000324
H44   H     H_    0.615106 0.259920 0.393282 0.056691
H45   H     H_    0.383971 0.788530 0.671726 0.030985
H46   H     H_    0.451454 0.087585 0.946321 0.348025
H47   H     H_    0.473630 0.121078 0.699858 0.368906
H48   H     H_    0.897555 0.371480 0.618548 0.156746
H49   H     H_    0.795176 0.359283 0.515991 0.196529
H50   H     H_    0.586370 0.760147 0.630104 -0.001314
H51   H     H_    0.692675 0.898623 0.748134 -0.052924
H52   H     H_    0.293168 0.314364 0.296676 0.005786
H53   H     H_    0.072934 0.353359 0.291936 0.070354
N1    N     N_3   0.903650 0.342712 0.551182 -0.446223
O1    O     O_2   0.428380 0.595300 0.716110 -0.456605
O2    O     O_2   0.683413 0.811683 0.445805 -0.453262
O3    O     O_3   0.550982 0.755104 0.284992 -0.616268
O4    O     O_3   0.649320 0.571650 0.606870 -0.501802
O5    O     O_3   0.067580 0.379340 0.450790 -0.469268
O6    O     O_2   0.850900 0.734750 0.551740 -0.471842
O7    O     O_3   0.058869 0.796056 0.693674 -0.600433
O8    O     O_2   0.837168 0.488758 0.189441 -0.495411
O9    O     O_3   0.900645 0.661076 0.209039 -0.595541
O10   O     O_3   0.202060 0.415880 0.655570 -0.463328
O11   O     O_2   0.359092 0.512805 0.810218 -0.509733
O12   O     O_3   0.144097 0.222477 0.307997 -0.642647
O13   O     O_3   0.572504 0.744852 0.748565 -0.625417
O14   O     O_3   0.276313 0.346344 0.794704 -0.603600
O15   O     O_2   0.338790 0.265210 0.448200 -0.475874
O16   O     O_3   0.612600 0.359140 0.609510 -0.507916
O17   O     O_2   0.510533 0.186724 0.551142 -0.472459
O18   O     O_2   0.298357 0.936915 0.837463 -0.279643
O19   O     O_2   0.571517 0.894336 0.903455 -0.304490
O20   O     O_3   0.510711 0.063304 0.892726 -0.475377
O21   O     O_2   0.528040 0.932227 0.589885 -0.386711
O22   O     O_2   0.285817 0.982468 0.675071 -0.338542
O23   O     O_3   0.660341 0.238484 0.709255 -0.596656
O24   O     O_3   0.537749 0.081374 0.731800 -0.482204
O25   O     O_2   0.761310 0.404660 0.283830 -0.462280
O26   O     O_3   0.540390 0.428270 0.393120 -0.509959
O27   O     O_3   0.987650 0.584040 0.344420 -0.490575
O28   O     O_3   0.628682 0.255069 0.267351 -0.626496
O29   O     O_3   0.122130 0.620580 0.549200 -0.484925
O30   O     O_3   0.577110 0.640790 0.390470 -0.488648
P1    P     P_3+3 0.592580 0.619750 0.703570 1.001332
P2    P     P_3+3 0.156510 0.273300 0.422380 0.994398
P3    P     P_3+3 0.658970 0.241375 0.604115 0.939569
P4    P     P_3+3 0.597130 0.380170 0.296420 0.976457
P5    P     P_3+3 0.536397 0.757592 0.390523 0.983039
P6    P     P_3+3 0.215385 0.449879 0.769250 0.949505
P7    P     P_3+3 0.042110 0.741739 0.579470 0.964310
P8    P     P_3+3 0.973914 0.556813 0.231708 0.943026
S1    S     S_3+6 0.480374 0.946527 0.845943 -0.010708
S2    S     S_3+6 0.471365 0.972878 0.679902 -0.114479

loop_
_geom_bond_atom_site_label_1
_geom_bond_atom_site_label_2
_ccdc_geom_bond_type
H48   N1    S    
C32   C35   A    
C23   H8    S    
C38   H45   S    
C34   H11   S    
C42   O3    S    
C42   H16   S    
C13   C17   A    
C20   C33   A    
C19   C29   A    
C24   C25   A    
C21   H35   S    
C26   C27   A    
C32   C33   A    
C27   C30   A    
C34   H10   S    
O26   P4    S    
Ba1   O10   S    
C38   H50   S    
C41   H4    S    
C38   O13   S    
Ba2   O5    S    
Ba2   O27   S    
O2    P5    D    
Ba1   Ba2   S    
C46   H30   S    
C31   H37   S    
C40   H52   S    
C44   H21   S    
C2    C17   A    
C1    H7    S    
C40   O12   S    
O4    P1    S    
C14   C15   A    
C43   H19   S    
Ba2   O30   S    
C21   C22   A    
C35   P3    S    
C7    C8    S    
Ba1   O1    S    
H49   N1    S    
C23   O7    S    
Ba1   O4    S    
Ba2   O25   S    
O23   P3    S    
C44   O9    S    
O22   S2    D    
C42   H17   S    
C26   P7    S    
C23   H9    S    
Ba1   P1    S    
O15   P2    D    
C3    C8    S    
C1    H2    S    
C41   H5    S    
O9    P8    S    
C4    H26   S    
O14   P6    S    
C4    C16   S    
Ba2   O29   S    
C16   H42   S    
O10   P6    S    
O25   P4    D    
C45   H25   S    
C2    H31   S    
C28   H44   S    
C3    C5    D    
C6    C7    S    
O13   P1    S    
O30   P5    S    
C28   O28   S    
C30   H39   S    
Ba2   O4    S    
Ba2   P4    S    
C36   H40   S    
C18   P5    S    
C6    C46   D    
C39   S1    S    
C24   P2    S    
O19   S1    D    
C18   C36   A    
C10   C13   S    
C26   C36   A    
C43   H20   S    
C39   H51   S    
C31   C32   A    
O12   P2    S    
Ba1   O15   S    
C7    C9    S    
C1    C12   S    
Ba1   O5    S    
C2    C15   A    
H46   O20   S    
Ba1   O26   S    
C38   C39   S    
C12   H6    S    
C11   C13   A    
C15   P1    S    
C29   C33   A    
C19   C22   A    
C40   C41   S    
C34   H13   S    
C40   H53   S    
C42   C43   S    
C1    H14   S    
C28   C37   S    
C44   C45   S    
O11   P6    D    
C16   H41   S    
O28   P4    S    
O18   S1    D    
C37   H34   S    
C28   H43   S    
Ba1   O29   S    
O6    P7    D    
C9    C10   D    
O5    P2    S    
C25   N1    S    
C4    H38   S    
O7    P7    S    
C6    P8    S    
C5    C46   S    
C3    H28   S    
O8    P8    D    
O1    P1    D    
C45   H27   S    
C5    P4    S    
C27   C29   A    
C30   C31   A    
H47   O24   S    
C41   H3    S    
O27   P8    S    
C25   C35   A    
C17   P6    S    
C12   O14   S    
C37   H12   S    
O21   S2    D    
Ba2   O6    S    
O24   S2    S    
C10   H33   S    
Ba1   O16   S    
C22   H36   S    
C16   H15   S    
O17   P3    D    
C45   H24   S    
C44   H22   S    
O29   P7    S    
C9    H32   S    
C23   C34   S    
O3    P5    S    
C12   H1    S    
C39   S2    S    
C18   C19   A    
C20   C24   A    
C11   C14   A    
C43   H18   S    
C37   H23   S    
C20   C21   A    
C14   H29   S    
O20   S1    S    
C4    O23   S    
O16   P3    S    
Ba1   P2    S    
Ba2   O26   S    
