data_mof_unit_13515.cif
_audit_creation_date              2013-03-05T15:50:30-0500
_audit_creation_method            fapswitch 2.2
_symmetry_space_group_name_H-M    P1
_symmetry_Int_Tables_number       1
_space_group_crystal_system       triclinic
_cell_length_a                    15.06732
_cell_length_b                    15.104969
_cell_length_c                    34.753315
_cell_angle_alpha                 91.95238
_cell_angle_beta                  91.881738
_cell_angle_gamma                 60.148695
_cell_volume                      6854.9837389

loop_
_atom_site_label
_atom_site_type_symbol
_atom_site_description
_atom_site_fract_x
_atom_site_fract_y
_atom_site_fract_z
_atom_type_partial_charge
O1    O     O_R   0.324990 0.503440 0.453910 -0.514782
O2    O     O_R   0.522030 0.339050 0.458320 -0.491184
C1    C     C_R   0.611786 0.301188 0.444246 0.557382
O3    O     O_R   0.676180 0.324490 0.458320 -0.473935
O4    O     O_R   0.643570 0.521510 0.464260 -0.458339
C2    C     C_R   0.594280 0.611209 0.449896 0.582432
O5    O     O_R   0.504630 0.675350 0.460920 -0.435585
O6    O     O_R   0.339850 0.642450 0.459830 -0.441569
C3    C     C_R   0.303040 0.591587 0.442569 0.568997
O7    O     O_R   0.321120 0.501280 0.538470 -0.531738
O8    O     O_R   0.518440 0.337050 0.536710 -0.482280
C4    C     C_R   0.607202 0.296512 0.552585 0.585065
O9    O     O_R   0.672300 0.322330 0.542880 -0.441798
O10   O     O_R   0.639980 0.519500 0.542640 -0.523922
C5    C     C_R   0.589725 0.608567 0.558418 0.543098
O11   O     O_R   0.500750 0.673190 0.545480 -0.449196
O12   O     O_R   0.336260 0.640450 0.538210 -0.459672
C6    C     C_R   0.294645 0.591612 0.551104 0.526980
Cr1   Cr    Cr6+3 0.426010 0.422500 0.497000 1.098348
Cr2   Cr    Cr6+3 0.651300 0.426310 0.501970 1.165028
Cr3   Cr    Cr6+3 0.422670 0.651170 0.501050 1.216701
O13   O     O_3   0.499990 0.499990 0.500010 -0.307892
C7    C     C_R   0.729525 0.705821 0.099110 -0.030992
C8    C     C_R   0.634443 0.762677 0.116961 -0.134505
C9    C     C_R   0.620885 0.740889 0.153898 -0.128594
C10   C     C_R   0.701909 0.661930 0.173772 -0.029984
C11   C     C_R   0.795425 0.597348 0.155460 0.225553
C12   C     C_R   0.808945 0.618779 0.117648 0.199469
C13   C     C_R   0.654287 0.595618 0.229240 0.258460
C14   C     C_R   0.642377 0.593530 0.268983 0.285097
C15   C     C_R   0.669576 0.651409 0.294374 0.006945
C16   C     C_R   0.705342 0.714573 0.280466 0.027624
C17   C     C_R   0.712075 0.720712 0.240338 0.026046
C18   C     C_R   0.691356 0.657183 0.215253 -0.038684
C19   C     C_R   0.574034 0.727721 0.354593 -0.030010
C20   C     C_R   0.564279 0.724744 0.394407 0.135973
C21   C     C_R   0.723035 0.560787 0.397379 0.135960
C22   C     C_R   0.738048 0.566384 0.357868 -0.021832
C23   C     C_R   0.659215 0.646297 0.336104 -0.028751
C24   C     C_R   0.631292 0.635100 0.414707 0.004849
H1    H     H_    0.571430 0.827929 0.103180 0.202284
H2    H     H_    0.548858 0.789718 0.167992 0.192169
C25   C     C_R   0.106911 0.729402 0.083966 -0.014935
C26   C     C_R   0.175270 0.633538 0.100396 0.016999
C27   C     C_R   0.202465 0.630211 0.139681 -0.015479
C28   C     C_R   0.164857 0.720157 0.162064 -0.014938
C29   C     C_R   0.107932 0.814586 0.144548 -0.064272
C30   C     C_R   0.079278 0.819156 0.105884 -0.083035
C31   C     C_R   0.237240 0.740055 0.226075 0.010697
C32   C     C_R   0.241694 0.732146 0.266271 -0.059255
C33   C     C_R   0.180252 0.702567 0.285222 -0.023711
C34   C     C_R   0.108528 0.684894 0.264136 0.228372
C35   C     C_R   0.107366 0.687225 0.223512 0.247944
C36   C     C_R   0.171039 0.715426 0.204531 -0.037836
C37   C     C_R   0.237980 0.574766 0.338322 0.245859
C38   C     C_R   0.261292 0.551845 0.377245 -0.113090
C39   C     C_R   0.207663 0.729389 0.393134 0.203429
C40   C     C_R   0.186926 0.751880 0.353831 -0.087108
C41   C     C_R   0.203231 0.675499 0.326310 0.005805
C42   C     C_R   0.251214 0.626615 0.404644 -0.028352
H3    H     H_    0.027486 0.893248 0.094137 0.193531
H4    H     H_    0.155478 0.829812 0.344579 0.189603
H5    H     H_    0.296489 0.744863 0.283012 0.213727
H6    H     H_    0.249119 0.557507 0.153466 0.210050
H7    H     H_    0.293985 0.473081 0.385647 0.181369
H8    H     H_    0.079257 0.884650 0.161471 0.212629
C43   C     C_R   0.717506 0.105202 0.086805 -0.062696
C44   C     C_R   0.784850 0.131165 0.106951 0.152816
C45   C     C_R   0.774772 0.150692 0.147091 0.185645
C46   C     C_R   0.696715 0.145445 0.166503 -0.073423
C47   C     C_R   0.621108 0.134501 0.145459 0.152676
C48   C     C_R   0.628770 0.119447 0.105435 0.162338
C49   C     C_R   0.611316 0.234210 0.227946 0.027225
C50   C     C_R   0.601221 0.230126 0.267835 0.241766
C51   C     C_R   0.677434 0.149226 0.289529 -0.012046
C52   C     C_R   0.760318 0.065109 0.270883 0.019921
C53   C     C_R   0.767396 0.066195 0.230420 0.250668
C54   C     C_R   0.693400 0.150480 0.209185 0.008977
C55   C     C_R   0.744880 0.188263 0.350816 0.250333
C56   C     C_R   0.727989 0.222498 0.389080 -0.056200
C57   C     C_R   0.574821 0.208695 0.390130 -0.101709
C58   C     C_R   0.594249 0.168246 0.352594 -0.067467
C59   C     C_R   0.675180 0.163809 0.331896 0.066929
C60   C     C_R   0.639423 0.240118 0.408050 -0.017341
H9    H     H_    0.541568 0.147699 0.338601 0.180340
H10   H     H_    0.780301 0.243743 0.402841 0.218880
H11   H     H_    0.507226 0.219441 0.404398 0.167277
C61   C     C_R   0.688037 0.684331 0.921315 -0.019324
C62   C     C_R   0.767336 0.599967 0.901963 -0.091530
C63   C     C_R   0.753702 0.575750 0.864010 -0.033822
C64   C     C_R   0.661584 0.637111 0.844204 0.028494
C65   C     C_R   0.577674 0.711582 0.864697 -0.038009
C66   C     C_R   0.588763 0.734081 0.903640 0.001218
C67   C     C_R   0.583825 0.620746 0.781841 -0.068928
C68   C     C_R   0.577350 0.620239 0.741452 0.274547
C69   C     C_R   0.648949 0.633612 0.720259 0.000860
C70   C     C_R   0.722342 0.652699 0.739950 0.052876
C71   C     C_R   0.726320 0.653047 0.780753 0.264327
C72   C     C_R   0.658205 0.634912 0.801503 -0.047759
C73   C     C_R   0.718387 0.547444 0.655806 -0.022797
C74   C     C_R   0.714367 0.550833 0.615025 -0.084352
C75   C     C_R   0.562710 0.720451 0.617492 0.171411
C76   C     C_R   0.569466 0.720430 0.658210 0.202525
C77   C     C_R   0.645093 0.632916 0.677335 -0.032991
C78   C     C_R   0.626379 0.629395 0.596511 -0.059591
H12   H     H_    0.843019 0.557514 0.914940 0.161385
H13   H     H_    0.530711 0.609309 0.798349 0.209333
H14   H     H_    0.818297 0.515142 0.848951 0.188265
H15   H     H_    0.504961 0.755502 0.849694 0.192370
C79   C     C_R   0.077084 0.691987 0.903818 -0.004675
C80   C     C_R   0.120795 0.748084 0.889350 -0.030483
C81   C     C_R   0.152456 0.732254 0.850552 -0.008395
C82   C     C_R   0.142059 0.658707 0.827206 0.065273
C83   C     C_R   0.113510 0.592412 0.843806 0.239341
C84   C     C_R   0.080596 0.610960 0.881776 -0.087313
C85   C     C_R   0.233005 0.580701 0.765230 0.257056
C86   C     C_R   0.233786 0.581249 0.725164 -0.043871
C87   C     C_R   0.154259 0.659700 0.704371 -0.148199
C88   C     C_R   0.069662 0.739733 0.723558 -0.004546
C89   C     C_R   0.068057 0.739730 0.764236 0.256058
C90   C     C_R   0.149269 0.659810 0.784892 0.039387
C91   C     C_R   0.194531 0.727265 0.646904 -0.017640
C92   C     C_R   0.223200 0.715571 0.607981 -0.004025
C93   C     C_R   0.174803 0.583869 0.598225 0.001017
C94   C     C_R   0.154280 0.589192 0.638027 0.011043
C95   C     C_R   0.166888 0.659274 0.662272 -0.086106
C96   C     C_R   0.225908 0.634300 0.585082 -0.038896
H16   H     H_    0.051171 0.565150 0.893364 0.177987
H17   H     H_    0.298433 0.521280 0.709899 0.225253
C97   C     C_R   0.671936 0.085552 0.906954 -0.034157
C98   C     C_R   0.593120 0.076966 0.886399 -0.018108
C99   C     C_R   0.578103 0.097560 0.846536 0.179284
C100  C     C_R   0.641798 0.125695 0.827770 -0.013478
C101  C     C_R   0.710785 0.144442 0.849169 -0.050884
C102  C     C_R   0.720817 0.132398 0.888853 -0.003929
C103  C     C_R   0.613522 0.235865 0.771370 0.235438
C104  C     C_R   0.615152 0.247603 0.731607 0.247614
C105  C     C_R   0.637347 0.165481 0.706090 0.017788
C106  C     C_R   0.656737 0.070891 0.719657 0.252960
C107  C     C_R   0.658850 0.056523 0.759719 0.003422
C108  C     C_R   0.635802 0.139909 0.785555 -0.059275
C109  C     C_R   0.551208 0.200009 0.641978 0.183405
C110  C     C_R   0.547574 0.220826 0.602694 -0.042240
C111  C     C_R   0.720776 0.196061 0.607989 0.142161
C112  C     C_R   0.726638 0.170715 0.647042 -0.008563
C113  C     C_R   0.638347 0.180401 0.664455 0.033360
C114  C     C_R   0.627456 0.231926 0.586964 -0.009259
H18   H     H_    0.755098 0.171551 0.834669 0.208799
O14   O     O_R   0.834210 0.019400 0.034570 -0.463592
O15   O     O_R   0.002210 0.824620 0.031030 -0.482576
C115  C     C_R   0.046884 0.738820 0.048151 0.531011
O16   O     O_R   0.024400 0.669340 0.039790 -0.483159
O17   O     O_R   0.830490 0.694950 0.045870 -0.446023
C116  C     C_R   0.745495 0.744863 0.063155 0.557945
O18   O     O_R   0.675430 0.831160 0.051290 -0.492154
O19   O     O_R   0.698870 0.998880 0.039560 -0.450680
C117  C     C_R   0.749429 0.042759 0.050417 0.576319
O20   O     O_R   0.811290 0.006780 0.950620 -0.527683
O21   O     O_R   0.980960 0.812920 0.953200 -0.463833
C118  C     C_R   0.019519 0.721114 0.940195 0.577931
O22   O     O_R   0.001480 0.656720 0.955830 -0.515426
O23   O     O_R   0.809240 0.683250 0.968050 -0.491021
C119  C     C_R   0.716184 0.728737 0.955386 0.518821
O24   O     O_R   0.652500 0.818540 0.967340 -0.522506
O25   O     O_R   0.677620 0.987170 0.961730 -0.447956
C120  C     C_R   0.720015 0.027399 0.942748 0.538155
Cr4   Cr    Cr6+3 0.905130 0.911420 0.992650 1.126706
Cr5   Cr    Cr6+3 0.911860 0.682710 0.002320 1.132803
Cr6   Cr    Cr6+3 0.682710 0.906840 0.004710 1.156996
O26   O     O_3   0.833240 0.833660 0.999890 -0.293029
N1    N     N_R   0.484428 0.812009 0.414078 0.077732
O27   O     O_R   0.388841 0.844557 0.404906 -0.257538
O28   O     O_R   0.507157 0.854099 0.443163 -0.243399
N2    N     N_R   0.876166 0.510482 0.174903 0.145182
O29   O     O_R   0.923690 0.422179 0.157186 -0.141283
O30   O     O_R   0.901890 0.518415 0.210414 -0.207749
N3    N     N_R   0.800852 0.479775 0.419975 0.071752
O31   O     O_R   0.834271 0.384864 0.409806 -0.299055
O32   O     O_R   0.835745 0.500942 0.451618 -0.283208
C121  C     C_2   0.217762 0.537058 0.077271 0.320068
H19   H     H_    0.209581 0.538766 0.046148 0.136924
O33   O     O_2   0.264059 0.454171 0.092661 -0.391233
C122  C     C_2   0.305568 0.769033 0.206859 0.318716
H20   H     H_    0.306396 0.771230 0.175726 0.118810
O34   O     O_2   0.362399 0.790641 0.225610 -0.417443
N4    N     N_R   0.038920 0.663520 0.284153 0.103067
O35   O     O_R   0.009897 0.601422 0.269515 -0.175817
O36   O     O_R   0.006718 0.703707 0.318128 -0.282207
N5    N     N_R   0.905018 0.555525 0.099361 0.118414
O37   O     O_R   0.988604 0.548571 0.114200 -0.210611
O38   O     O_R   0.910318 0.497368 0.070015 -0.250320
N6    N     N_R   0.044133 0.657773 0.201222 0.107038
O39   O     O_R   0.075447 0.561223 0.195359 -0.175336
O40   O     O_R   0.969623 0.724363 0.179987 -0.293930
N7    N     N_R   0.252152 0.494313 0.311495 0.132289
O41   O     O_R   0.236227 0.421674 0.322141 -0.224190
O42   O     O_R   0.286042 0.489855 0.277121 -0.206647
N8    N     N_R   0.181186 0.811482 0.420821 0.119635
O43   O     O_R   0.172960 0.897213 0.410361 -0.213765
O44   O     O_R   0.148463 0.807502 0.454564 -0.254459
N9    N     N_R   0.857783 0.144971 0.086207 0.128879
O45   O     O_R   0.827005 0.206695 0.057348 -0.262086
O46   O     O_R   0.955329 0.089160 0.093363 -0.255714
N10   N     N_R   0.547892 0.114865 0.083970 0.134613
O47   O     O_R   0.507992 0.170376 0.053624 -0.252416
O48   O     O_R   0.516963 0.052294 0.093646 -0.245054
N11   N     N_R   0.510266 0.305412 0.286381 0.120174
O49   O     O_R   0.511765 0.375902 0.308491 -0.244598
O50   O     O_R   0.432054 0.291137 0.286761 -0.216489
C123  C     C_2   0.538829 0.326439 0.205540 0.392018
H21   H     H_    0.555583 0.334503 0.176177 0.125217
O51   O     O_2   0.460088 0.395033 0.219283 -0.346074
C124  C     C_2   0.838279 0.490659 0.340706 0.354518
H22   H     H_    0.905373 0.449948 0.359130 0.191137
O52   O     O_2   0.848014 0.471885 0.306179 -0.395625
N12   N     N_R   0.841613 0.178094 0.168120 0.137979
O53   O     O_R   0.803443 0.258335 0.190812 -0.213975
O54   O     O_R   0.939908 0.115972 0.168884 -0.193488
C125  C     C_2   0.837016 0.973593 0.292637 0.367721
H23   H     H_    0.899358 0.909606 0.277938 0.189015
O55   O     O_2   0.830692 0.966185 0.327172 -0.444389
N13   N     N_R   0.849720 0.981498 0.210593 0.073005
O56   O     O_R   0.830317 0.934881 0.182226 -0.301958
O57   O     O_R   0.944015 0.957719 0.218270 -0.335845
N14   N     N_R   0.829436 0.184728 0.331289 0.094043
O58   O     O_R   0.816816 0.222474 0.297144 -0.234683
O59   O     O_R   0.915357 0.157477 0.349831 -0.229869
N15   N     N_R   0.536609 0.137725 0.164777 0.100135
O60   O     O_R   0.552907 0.073155 0.191652 -0.247372
O61   O     O_R   0.443011 0.204138 0.155035 -0.193148
C126  C     C_2   0.496387 0.808982 0.924889 0.267804
H24   H     H_    0.497047 0.811945 0.956094 0.153829
O62   O     O_2   0.417126 0.866682 0.907778 -0.459569
N16   N     N_R   0.494905 0.805628 0.680430 0.133358
O63   O     O_R   0.524157 0.848287 0.707201 -0.218565
O64   O     O_R   0.400599 0.824860 0.679930 -0.241194
N17   N     N_R   0.607093 0.528923 0.283728 0.131454
O65   O     O_R   0.649057 0.433671 0.272581 -0.199157
O66   O     O_R   0.531791 0.565380 0.307695 -0.282622
N18   N     N_R   0.496017 0.608917 0.722965 0.138553
O67   O     O_R   0.499466 0.581775 0.686877 -0.304898
O68   O     O_R   0.417444 0.624360 0.742680 -0.282599
C127  C     C_2   0.791371 0.675578 0.717261 0.377469
H25   H     H_    0.778284 0.689225 0.686643 0.114110
O69   O     O_2   0.863796 0.679733 0.732055 -0.397153
N19   N     N_R   0.796548 0.675838 0.801539 0.129238
O70   O     O_R   0.761834 0.754112 0.825171 -0.318949
O71   O     O_R   0.892335 0.605929 0.804070 -0.233282
C128  C     C_2   0.792220 0.450466 0.675051 0.380647
H26   H     H_    0.813660 0.377970 0.660633 0.201983
O72   O     O_2   0.830218 0.449501 0.706681 -0.437446
C129  C     C_2   0.805993 0.482285 0.591376 0.312512
H27   H     H_    0.804525 0.492274 0.560598 0.167427
O73   O     O_2   0.887043 0.419010 0.605873 -0.403380
N20   N     N_R   0.500965 0.814230 0.597026 0.107031
O74   O     O_R   0.535043 0.829823 0.565493 -0.237018
O75   O     O_R   0.418535 0.889426 0.611687 -0.192816
C130  C     C_2   0.137757 0.819297 0.915048 0.273288
H28   H     H_    0.122188 0.892868 0.905017 0.124577
O76   O     O_2   0.171272 0.795136 0.947808 -0.456176
N21   N     N_R   0.621601 0.541218 0.203022 0.105462
O77   O     O_R   0.680777 0.483217 0.175605 -0.253472
O78   O     O_R   0.531202 0.551233 0.206071 -0.272085
C131  C     C_2   0.124154 0.519540 0.655388 0.342154
H29   H     H_    0.069624 0.546878 0.678584 0.148726
O79   O     O_2   0.164302 0.429718 0.645433 -0.360038
N22   N     N_R   0.316702 0.498803 0.785453 0.136856
O80   O     O_R   0.365469 0.408154 0.769568 -0.208698
O81   O     O_R   0.348399 0.515438 0.818731 -0.241068
C132  C     C_2   0.197459 0.791506 0.834549 0.292393
H30   H     H_    0.175785 0.867439 0.845437 0.138537
O82   O     O_2   0.261040 0.755279 0.809252 -0.436032
C133  C     C_2   0.983785 0.820268 0.700593 0.334122
H31   H     H_    0.978147 0.809694 0.669764 0.128577
O83   O     O_2   0.918961 0.899858 0.715408 -0.375919
N23   N     N_R   0.983655 0.819395 0.784911 0.097992
O84   O     O_R   0.925122 0.797855 0.804547 -0.284406
O85   O     O_R   0.976913 0.908310 0.789806 -0.288677
C134  C     C_2   0.196927 0.807549 0.672475 0.285502
H32   H     H_    0.221647 0.791533 0.702353 0.186780
O86   O     O_2   0.167427 0.893419 0.660928 -0.407415
C135  C     C_2   0.252417 0.787269 0.592176 0.359499
H33   H     H_    0.305626 0.803962 0.608027 0.183150
O87   O     O_2   0.213707 0.831264 0.562161 -0.381464
N24   N     N_R   0.114702 0.507585 0.822786 0.129312
O88   O     O_R   0.096744 0.510447 0.785849 -0.241507
O89   O     O_R   0.127169 0.428579 0.841293 -0.240141
C136  C     C_2   0.133321 0.537311 0.569279 0.306545
H34   H     H_    0.148764 0.535153 0.538944 0.146154
O90   O     O_2   0.074702 0.507935 0.578142 -0.407337
C137  C     C_2   0.522435 0.052650 0.906249 0.325649
H35   H     H_    0.500617 0.999874 0.893323 0.179640
O91   O     O_2   0.484604 0.094889 0.936801 -0.416612
C138  C     C_2   0.780633 0.171728 0.911049 0.304184
H36   H     H_    0.772425 0.183657 0.941992 0.152249
O92   O     O_2   0.838160 0.193241 0.895008 -0.450942
C139  C     C_2   0.826778 0.130708 0.668318 0.351392
H37   H     H_    0.897508 0.098183 0.652566 0.195033
O93   O     O_2   0.832491 0.133496 0.703399 -0.426076
N25   N     N_R   0.589842 0.344660 0.716672 0.126549
O94   O     O_R   0.502451 0.398409 0.698931 -0.269691
O95   O     O_R   0.661307 0.368192 0.713422 -0.272522
N26   N     N_R   0.588965 0.321445 0.797253 0.115750
O96   O     O_R   0.531504 0.338388 0.826843 -0.229730
O97   O     O_R   0.628406 0.379754 0.792601 -0.263638
N27   N     N_R   0.497341 0.092372 0.825216 0.077586
O98   O     O_R   0.495328 0.007246 0.822745 -0.296477
O99   O     O_R   0.432742 0.169110 0.804577 -0.178742
N28   N     N_R   0.673865 0.990358 0.692468 0.123491
O100  O     O_R   0.748012 0.957556 0.668137 -0.309830
O101  O     O_R   0.602381 0.967078 0.686244 -0.172654
C140  C     C_2   0.692550 0.953565 0.775139 0.405978
H38   H     H_    0.722386 0.935786 0.804340 0.157280
O102  O     O_2   0.686368 0.887765 0.755948 -0.374619
N29   N     N_R   0.466523 0.197884 0.659126 0.080619
O103  O     O_R   0.435289 0.136673 0.645359 -0.187281
O104  O     O_R   0.419858 0.257620 0.688344 -0.234826
C141  C     C_2   0.738269 0.770342 0.308422 0.330167
H39   H     H_    0.706961 0.790927 0.337054 0.099461
O105  O     O_2   0.804068 0.790655 0.300381 -0.384612
C142  C     C_2   0.458545 0.232335 0.579107 0.349801
H40   H     H_    0.382026 0.273043 0.590726 0.171978
O106  O     O_2   0.470772 0.192475 0.547096 -0.418429
N30   N     N_R   0.809646 0.185562 0.589606 0.077325
O107  O     O_R   0.843153 0.129701 0.558392 -0.234806
O108  O     O_R   0.854044 0.235686 0.602823 -0.290917
C143  C     C_2   0.734593 0.796929 0.223701 0.352607
H41   H     H_    0.780058 0.777924 0.198040 0.171261
O109  O     O_2   0.697348 0.883552 0.237160 -0.423563
C144  C     C_2   0.496116 0.818808 0.333136 0.285936
H42   H     H_    0.458621 0.893429 0.347265 0.175919
O110  O     O_2   0.470930 0.811482 0.299945 -0.433248

loop_
_geom_bond_atom_site_label_1
_geom_bond_atom_site_label_2
_geom_bond_distance
_ccdc_geom_bond_type
N20   O75   1.300020 A    
C51   C52   1.418214 A    
C37   C41   1.414024 A    
C139  O93   1.220166 D    
C109  C113  1.408212 A    
C137  H35   1.082662 S    
C85   N22   1.436188 S    
C83   C84   1.394710 A    
N26   O97   1.300804 A    
C121  H19   1.084344 S    
N1    O28   1.301306 A    
C135  H33   1.082842 S    
C102  C138  1.488768 S    
O23   C119  1.285584 A    
O4    C2    1.287064 A    
C112  C139  1.496001 S    
C65   H15   1.083875 S    
C73   C77   1.419612 A    
C75   N20   1.446108 S    
C49   C50   1.406294 A    
C79   C80   1.418066 A    
C56   H10   1.081464 S    
C19   C20   1.400856 A    
N30   O107  1.301213 A    
C62   H12   1.083028 S    
C66   C126  1.485124 S    
Cr3   O13   1.980398 S    
C8    H1    1.083044 S    
N16   O64   1.300595 A    
N15   O60   1.300944 A    
C121  O33   1.221432 D    
O20   Cr4   2.046409 S    
C112  C113  1.417913 A    
C124  O52   1.220125 D    
O25   Cr6   1.932003 S    
C128  O72   1.219749 D    
C144  H42   1.085057 S    
C33   C34   1.413517 A    
C107  C108  1.421697 A    
C124  H22   1.084244 S    
O12   Cr3   1.929687 S    
C122  H20   1.084274 S    
C21   C22   1.411109 A    
O18   Cr6   2.049861 S    
N26   O96   1.300980 A    
N27   O98   1.301057 A    
C52   C53   1.414992 A    
C116  O18   1.273492 A    
C93   C96   1.418648 A    
C76   N16   1.436874 S    
C69   C77   1.490857 S    
O17   Cr5   1.924886 S    
C2    C24   1.487277 S    
C74   C129  1.499002 S    
N25   O94   1.299866 A    
O9    Cr2   2.053345 S    
O2    Cr1   1.919859 S    
C111  C112  1.410749 A    
C106  C107  1.413294 A    
C2    O5    1.271195 A    
C58   H9    1.082821 S    
C98   C137  1.483263 S    
C97   C98   1.424327 A    
N24   O89   1.301652 A    
C138  H36   1.085132 S    
O7    C6    1.281613 A    
C94   C131  1.487822 S    
O21   Cr4   1.915823 S    
C134  O86   1.220981 D    
C45   C46   1.411803 A    
C35   N6    1.433781 S    
N7    O41   1.301509 A    
O3    Cr2   2.027704 S    
C61   C62   1.407987 A    
C142  H40   1.085496 S    
N8    O44   1.301591 A    
N4    O35   1.300413 A    
C136  O90   1.220334 D    
C129  H27   1.083275 S    
O11   Cr3   2.028335 S    
C80   C81   1.417603 A    
C12   N5    1.433333 S    
C70   C71   1.417248 A    
C103  N26   1.443452 S    
O4    Cr2   1.936639 S    
C35   C36   1.415814 A    
C128  H26   1.084290 S    
C137  O91   1.221022 D    
N12   O54   1.300130 A    
C21   C24   1.413300 A    
C22   C23   1.419825 A    
C88   C133  1.490795 S    
C52   C125  1.497167 S    
C140  H38   1.082853 S    
C43   C48   1.419191 A    
N5    O38   1.301030 A    
N2    O29   1.301204 A    
C141  O105  1.217375 D    
C131  H29   1.085599 S    
N3    O32   1.301314 A    
N10   O47   1.301356 A    
C7    C8    1.404315 A    
C86   H17   1.083320 S    
C80   C130  1.487691 S    
N17   O65   1.300939 A    
C32   H5    1.084336 S    
N9    O46   1.299813 A    
C67   C68   1.403878 A    
C45   N12   1.437254 S    
C34   N4    1.445163 S    
C111  C114  1.416220 A    
C11   N2    1.440677 S    
C89   N23   1.435012 S    
C50   N11   1.429474 S    
N28   O101  1.298871 A    
C67   H13   1.083519 S    
C73   C128  1.492094 S    
C64   C65   1.399926 A    
C143  O109  1.220783 D    
C9    C10   1.393254 A    
C84   H16   1.083368 S    
N6    O40   1.299533 A    
C13   C14   1.402079 A    
C92   C96   1.423973 A    
C15   C16   1.412339 A    
C134  H32   1.085097 S    
N12   O53   1.300957 A    
O12   C6    1.280467 A    
C43   C117  1.492379 S    
C7    C12   1.420044 A    
N13   O57   1.300912 A    
O23   Cr5   1.917409 S    
C58   C59   1.407778 A    
C123  O51   1.220246 D    
C1    O3    1.265525 A    
C1    C60   1.476356 S    
C79   C118  1.482708 S    
C89   C90   1.414485 A    
N19   O70   1.300933 A    
C132  H30   1.082148 S    
N23   O85   1.301078 A    
C103  C104  1.401773 A    
N22   O80   1.301181 A    
C101  C102  1.390681 A    
C99   N27   1.437948 S    
C21   N3    1.437176 S    
C27   H6    1.083934 S    
C135  O87   1.221213 D    
N9    O45   1.301139 A    
C130  H28   1.083063 S    
C63   H14   1.083094 S    
C47   C48   1.400940 A    
C86   C87   1.396484 A    
C39   C40   1.405942 A    
C105  C113  1.473674 S    
N18   O67   1.300695 A    
N14   O59   1.301335 A    
C75   C76   1.415407 A    
C53   N13   1.437520 S    
C82   C90   1.479402 S    
C4    O9    1.280381 A    
N30   O108  1.300780 A    
C31   C32   1.402673 A    
N11   O50   1.299835 A    
O10   C5    1.283306 A    
C64   C72   1.483013 S    
N7    O42   1.301027 A    
C40   H4    1.083559 S    
C37   C38   1.397392 A    
N21   O77   1.300660 A    
C109  N29   1.440953 S    
C47   N15   1.437459 S    
C97   C102  1.420718 A    
O14   Cr4   2.032203 S    
C56   C60   1.406591 A    
C26   C121  1.484845 S    
N15   O61   1.301255 A    
C53   C54   1.416131 A    
C34   C35   1.412763 A    
O8    Cr1   1.927620 S    
C10   C11   1.410765 A    
C144  O110  1.221124 D    
C4    C114  1.493830 S    
N14   O58   1.301042 A    
C71   N19   1.433726 S    
C14   C15   1.411149 A    
C127  H25   1.083688 S    
C71   C72   1.410778 A    
C75   C78   1.416959 A    
Cr6   O26   1.977536 S    
C31   C122  1.486998 S    
C119  O24   1.274909 A    
C44   C45   1.413306 A    
N27   O99   1.301181 A    
C115  O16   1.275672 A    
C46   C47   1.408721 A    
C29   H8    1.082424 S    
C48   N10   1.437708 S    
Cr5   O26   1.981651 S    
N29   O103  1.301328 A    
O16   Cr5   2.035645 S    
N25   O95   1.300111 A    
O1    Cr1   2.043677 S    
C17   C143  1.490607 S    
N11   O49   1.300654 A    
C110  C142  1.485574 S    
O10   Cr2   1.910373 S    
O1    C3    1.275272 A    
C85   C90   1.409529 A    
C81   C132  1.494303 S    
C125  H23   1.082376 S    
C39   C42   1.418284 A    
C40   C41   1.401546 A    
O5    Cr3   2.049460 S    
C13   C18   1.406663 A    
C43   C44   1.415747 A    
C19   C23   1.414802 A    
N24   O88   1.300862 A    
C38   H7    1.083595 S    
C97   C120  1.491851 S    
O21   C118  1.279574 A    
C106  N28   1.436792 S    
O7    Cr1   2.037493 S    
C28   C36   1.477679 S    
C32   C33   1.400808 A    
C126  O62   1.221456 D    
C57   H11   1.082879 S    
C93   C136  1.498424 S    
Cr2   O13   1.977368 S    
C94   C95   1.412634 A    
N16   O63   1.299999 A    
C22   C124  1.495928 S    
N4    O36   1.301381 A    
C98   C99   1.416287 A    
C25   C115  1.482428 S    
C26   C27   1.407768 A    
O20   C120  1.271965 A    
C129  O73   1.220318 D    
C82   C83   1.416010 A    
C28   C29   1.395576 A    
C44   N9    1.435686 S    
C92   C135  1.483045 S    
C9    H2    1.084039 S    
C88   C89   1.414677 A    
C100  C108  1.483292 S    
C3    C42   1.481717 S    
C16   C17   1.411099 A    
C5    C78   1.501060 S    
C143  H41   1.083475 S    
C136  H34   1.082996 S    
C55   C59   1.412777 A    
N22   O81   1.300847 A    
C51   C59   1.480351 S    
C63   C64   1.399793 A    
C107  C140  1.488743 S    
O15   Cr4   1.928618 S    
C65   C66   1.409049 A    
C140  O102  1.218318 D    
C68   N18   1.446789 S    
N5    O37   1.300945 A    
N2    O30   1.300902 A    
C105  C106  1.403695 A    
C38   C42   1.403842 A    
C131  O79   1.221126 D    
N3    O31   1.300856 A    
C7    C116  1.475906 S    
C76   C77   1.413590 A    
C109  C110  1.404616 A    
C62   C63   1.392791 A    
O14   C117  1.282154 A    
C79   C84   1.400647 A    
C5    O11   1.280562 A    
C37   N7    1.438459 S    
N1    O27   1.301248 A    
O25   C120  1.286026 A    
C39   N8    1.440186 S    
C46   C54   1.483916 S    
C139  H37   1.084232 S    
C68   C69   1.423496 A    
C25   C26   1.420087 A    
C91   C134  1.493222 S    
C57   C58   1.397639 A    
N28   O100  1.300409 A    
C110  C114  1.423373 A    
C103  C108  1.417721 A    
O19   C117  1.276202 A    
C122  O34   1.221271 D    
C31   C36   1.412552 A    
O19   Cr6   1.913608 S    
C85   C86   1.393187 A    
C87   C88   1.413404 A    
C73   C74   1.418167 A    
C133  O83   1.219136 D    
C10   C18   1.463604 S    
C99   C100  1.411737 A    
C142  O106  1.221273 D    
C13   N21   1.438873 S    
C49   C54   1.412058 A    
N8    O43   1.301447 A    
C25   C30   1.407177 A    
C16   C141  1.492754 S    
O24   Cr6   2.029865 S    
C81   C82   1.421417 A    
Cr4   O26   1.980100 S    
C74   C78   1.417613 A    
N19   O71   1.298687 A    
N29   O104  1.300953 A    
C50   C51   1.410428 A    
C49   C123  1.497795 S    
C20   C24   1.417023 A    
Cr1   O13   1.976445 S    
C8    C9    1.382337 A    
N21   O78   1.300998 A    
O6    C3    1.276204 A    
C127  O69   1.219936 D    
C91   C95   1.411115 A    
C130  O76   1.221283 D    
C19   C144  1.493909 S    
C141  H39   1.083090 S    
C111  N30   1.436730 S    
C6    C96   1.498801 S    
C70   C127  1.501078 S    
C29   C30   1.391140 A    
C69   C70   1.424282 A    
N18   O68   1.301119 A    
C17   C18   1.414788 A    
N23   O84   1.299873 A    
N10   O48   1.301512 A    
N17   O66   1.301201 A    
C33   C41   1.480678 S    
C14   N17   1.437366 S    
N20   O74   1.301938 A    
C11   C12   1.409010 A    
C57   C60   1.400208 A    
C61   C66   1.425325 A    
C20   N1    1.437430 S    
O15   C115  1.282400 A    
O6    Cr3   1.913124 S    
O8    C4    1.275653 A    
C83   N24   1.445638 S    
C61   C119  1.492620 S    
C101  H18   1.084308 S    
C104  C105  1.403027 A    
N6    O39   1.300797 A    
O2    C1    1.284404 A    
O17   C116  1.275846 A    
C138  O92   1.221543 D    
C30   H3    1.081173 S    
C100  C101  1.393428 A    
C67   C72   1.395400 A    
C15   C23   1.472426 S    
C132  O82   1.220965 D    
C125  O55   1.220400 D    
N13   O56   1.300733 A    
C118  O22   1.274394 A    
O22   Cr5   2.039676 S    
C55   C56   1.394612 A    
C27   C28   1.400927 A    
C123  H21   1.084378 S    
C126  H24   1.083813 S    
C104  N25   1.430530 S    
C87   C95   1.480993 S    
C91   C92   1.411981 A    
C55   N14   1.439833 S    
C93   C94   1.418192 A    
C133  H31   1.084666 S    
