data_mof_unit_30913.cif
_audit_creation_date              2012-12-10T17:00:51-0500
_audit_creation_method            fapswitch 2.2
_symmetry_space_group_name_H-M    P1
_symmetry_Int_Tables_number       1
_space_group_crystal_system       triclinic
_cell_length_a                    10.796653
_cell_length_b                    10.62016
_cell_length_c                    10.175445
_cell_angle_alpha                 96.954819
_cell_angle_beta                  105.556362
_cell_angle_gamma                 89.163473
_cell_volume                      1115.53235742

loop_
_atom_site_label
_atom_site_type_symbol
_atom_type_description
_atom_site_fract_x
_atom_site_fract_y
_atom_site_fract_z
_atom_type_partial_charge
C1    C     C_R   0.502007 0.262536 0.492264 0.913874
C2    C     C_2   0.119585 0.503657 0.408812 -0.400343
C3    C     C_2   0.064310 0.534813 0.512203 0.000106
C4    C     C_2   0.877290 0.516994 0.597785 -0.357304
C5    C     C_2   0.947195 0.465365 0.514833 0.140432
C6    C     C_2   0.388287 0.930633 0.427652 -0.011660
C7    C     C_3   0.906750 0.337824 0.425883 -0.348372
C8    C     C_3   0.006828 0.236216 0.466875 -0.862099
C9    C     C_3   0.421286 0.399211 0.053413 -0.269402
C10   C     C_3   0.382610 0.288218 0.115627 -0.718618
C11   C     C_2   0.125513 0.634912 0.627666 0.933217
C12   C     C_2   0.470934 0.873105 0.527346 -0.066002
C13   C     C_2   0.299646 0.862649 0.302239 0.922242
C14   C     C_3   0.529570 0.940270 0.673457 -0.415239
C15   C     C_3   0.427011 0.970681 0.750315 -0.728852
C16   C     C_3   0.685060 0.650075 0.934011 -0.340792
C17   C     C_3   0.691011 0.787562 0.001779 -0.940563
C18   C     C_2   0.386864 0.067961 0.441451 -0.172695
C19   C     C_2   0.498308 0.129010 0.466883 -0.336525
C20   C     C_2   0.577679 0.571791 0.956014 0.136893
C21   C     C_2   0.567557 0.577848 0.102597 -0.045897
C22   C     C_R   0.258922 0.504117 0.442027 0.986559
C23   C     C_R   0.494042 0.738493 0.506845 0.915074
C24   C     C_R   0.740455 0.499271 0.558821 0.875512
H1    H     H_    0.406671 0.502083 0.852551 0.189541
H2    H     H_    0.815202 0.300279 0.437248 0.203871
H3    H     H_    0.889799 0.348535 0.315360 0.199066
H4    H     H_    0.468174 0.232700 0.160190 0.260352
H5    H     H_    0.323299 0.317506 0.186565 0.279200
H6    H     H_    0.320312 0.222252 0.031475 0.207027
H7    H     H_    0.328956 0.439664 0.998810 0.190778
H8    H     H_    0.475444 0.349351 0.984831 0.180969
H9    H     H_    0.190008 0.685325 0.832343 0.340281
H10   H     H_    0.179373 0.713776 0.216945 0.342179
H11   H     H_    0.355123 0.036418 0.697328 0.261963
H12   H     H_    0.627612 0.646807 0.179319 0.157935
H13   H     H_    0.377391 0.882071 0.757932 0.286944
H14   H     H_    0.473024 0.016764 0.855857 0.224702
H15   H     H_    0.601531 0.879116 0.734051 0.206987
H16   H     H_    0.585722 0.027076 0.676405 0.212904
H17   H     H_    0.593372 0.828428 0.981285 0.278067
H18   H     H_    0.734988 0.794036 0.114235 0.260570
H19   H     H_    0.752476 0.845527 0.959493 0.255917
H20   H     H_    0.778654 0.604426 0.973818 0.199672
H21   H     H_    0.670649 0.656705 0.824376 0.265731
H22   H     H_    0.911375 0.597346 0.675034 0.152167
H23   H     H_    0.068721 0.449599 0.312579 0.140504
H24   H     H_    0.296634 0.117809 0.430681 0.144128
H25   H     H_    0.586931 0.079817 0.464468 0.129668
H26   H     H_    0.099481 0.259956 0.447469 0.248172
H27   H     H_    0.023433 0.225810 0.577565 0.269813
H28   H     H_    0.971331 0.143789 0.405657 0.251769
N1    N     N_2   0.501330 0.501330 0.852460 -0.236085
N2    N     N_2   0.501370 0.501360 0.148130 -0.062515
O1    O     O_R   0.499980 0.319060 0.613030 -0.594294
O2    O     O_R   0.145372 0.611555 0.764098 -0.831081
O3    O     O_2   0.275369 0.909226 0.194148 -0.640960
O4    O     O_R   0.238842 0.749440 0.308755 -0.779259
O5    O     O_R   0.500020 0.319100 0.386910 -0.622742
O6    O     O_R   0.317800 0.500000 0.570840 -0.606483
O7    O     O_R   0.317840 0.500040 0.344720 -0.589178
O8    O     O_R   0.499980 0.680900 0.613090 -0.612086
O9    O     O_R   0.500020 0.680940 0.386970 -0.607806
O10   O     O_R   0.682160 0.499960 0.655280 -0.630174
O11   O     O_R   0.682200 0.500000 0.429160 -0.605350
O12   O     O_2   0.162263 0.735339 0.602222 -0.623173
Zn1   Zn    Zn3+2 0.499970 0.499970 0.650990 0.941200
Zn2   Zn    Zn3+2 0.500030 0.500030 0.349010 0.949561

loop_
_geom_bond_atom_site_label_1
_geom_bond_atom_site_label_2
_ccdc_geom_bond_type
C16   H21   S    
C2    C22   S    
O1    Zn1   S    
C17   H19   S    
C15   H14   S    
C13   O4    S    
C2    H23   S    
C3    C11   S    
C9    C10   S    
C19   H25   S    
C20   N1    D    
O7    Zn2   S    
C11   O12   D    
C16   C20   S    
O11   Zn2   S    
H9    O2    S    
C23   O9    A    
C2    C3    D    
C1    O1    A    
C7    C8    S    
C24   O10   A    
C21   H12   S    
C4    H22   S    
C22   O7    A    
C22   O6    A    
C10   H5    S    
C7    H2    S    
C24   O11   A    
C4    C24   S    
O8    Zn1   S    
C15   H11   S    
H1    N1    S    
C1    O5    A    
C6    C12   D    
C21   N2    D    
N1    Zn1   S    
C6    C18   S    
C17   H17   S    
C10   H6    S    
C1    C19   S    
N2    Zn2   S    
C9    H7    S    
C14   H16   S    
O10   Zn1   S    
C8    H26   S    
C8    H28   S    
C17   H18   S    
C13   O3    D    
C7    H3    S    
C20   C21   S    
C5    C7    S    
C18   C19   D    
C10   H4    S    
H10   O4    S    
O5    Zn2   S    
C16   H20   S    
C14   C15   S    
C4    C5    D    
C12   C23   S    
C9    N2    S    
C8    H27   S    
C9    H8    S    
C3    C5    S    
C14   H15   S    
O9    Zn2   S    
C23   O8    A    
C15   H13   S    
C11   O2    S    
O6    Zn1   S    
C12   C14   S    
C16   C17   S    
C6    C13   S    
C18   H24   S    
