data_mof_unit_61596.cif
_audit_creation_date              2012-12-10T16:47:08-0500
_audit_creation_method            fapswitch 2.2
_symmetry_space_group_name_H-M    P1
_symmetry_Int_Tables_number       1
_space_group_crystal_system       triclinic
_cell_length_a                    21.929118
_cell_length_b                    21.973716
_cell_length_c                    22.049708
_cell_angle_alpha                 118.809363
_cell_angle_beta                  119.373682
_cell_angle_gamma                 90.029628
_cell_volume                      7712.70732453

loop_
_atom_site_label
_atom_site_type_symbol
_atom_type_description
_atom_site_fract_x
_atom_site_fract_y
_atom_site_fract_z
_atom_type_partial_charge
C1    C     C_R   0.002991 0.385514 0.505689 0.858872
C2    C     C_R   0.997218 0.614231 0.494014 0.866563
C3    C     C_3   0.269992 0.840805 0.046016 -0.373025
C4    C     C_3   0.721624 0.159475 0.954088 -0.372799
C5    C     C_3   0.221377 0.791892 0.949003 -0.374588
C6    C     C_3   0.770240 0.208383 0.051100 -0.375126
C7    C     C_1   0.336840 0.839496 0.174768 -0.114217
C8    C     C_1   0.663146 0.160502 0.825231 -0.114163
C9    C     C_1   0.161714 0.663381 0.825206 -0.114455
C10   C     C_1   0.838274 0.336602 0.174794 -0.114708
C11   C     C_1   0.124178 0.625297 0.749790 -0.171270
C12   C     C_1   0.875816 0.374689 0.250209 -0.171374
C13   C     C_2   0.979383 0.238993 0.545547 0.212217
C14   C     C_2   0.936496 0.762183 0.457292 0.197014
C15   C     C_2   0.987082 0.179735 0.491142 0.048443
C16   C     C_2   0.998637 0.820260 0.508979 0.053335
C17   C     C_2   0.969773 0.301079 0.535248 -0.199050
C18   C     C_2   0.936625 0.700923 0.468630 -0.202385
C19   C     C_2   0.012335 0.327240 0.520363 -0.368229
C20   C     C_2   0.991357 0.671541 0.477998 -0.377419
C21   C     C_R   0.616074 0.998534 0.497458 0.844009
C22   C     C_R   0.383933 0.001009 0.502556 0.844796
C23   C     C_R   0.079770 0.580044 0.660006 0.827461
C24   C     C_R   0.920228 0.419949 0.339993 0.826758
C25   C     C_R   0.419780 0.920583 0.340021 0.825105
C26   C     C_R   0.580218 0.079417 0.659978 0.825076
C27   C     C_R   0.882579 0.002294 0.500613 0.842846
C28   C     C_R   0.117368 0.001690 0.499279 0.845874
C29   C     C_R   0.996752 0.117017 0.498594 0.810054
C30   C     C_R   0.998928 0.882968 0.501418 0.852941
C31   C     C_2   0.756176 0.007623 0.445208 -0.162268
C32   C     C_2   0.243344 0.061016 0.553735 -0.160138
C33   C     C_2   0.818381 0.008543 0.504505 -0.311768
C34   C     C_2   0.181492 0.004066 0.495219 -0.322398
C35   C     C_2   0.693554 0.017790 0.453501 -0.159105
C36   C     C_2   0.305975 0.062902 0.545429 -0.158225
C37   C     C_2   0.679603 0.993483 0.492073 -0.314658
C38   C     C_2   0.320481 0.001282 0.508093 -0.316385
C39   C     C_3   0.283540 0.696294 0.951838 -0.373147
C40   C     C_3   0.720700 0.310687 0.047830 -0.373857
C41   C     C_3   0.169849 0.693112 0.953611 -0.374270
C42   C     C_3   0.834248 0.299588 0.046614 -0.373461
C43   C     C_3   0.218450 0.742016 0.050600 -0.374321
C44   C     C_3   0.785645 0.250688 0.949622 -0.374611
C45   C     C_1   0.374699 0.876858 0.250205 -0.171117
C46   C     C_1   0.625293 0.123143 0.749794 -0.170963
C47   C     C_3   0.207850 0.709918 0.917412 0.322950
C48   C     C_3   0.792135 0.290067 0.082587 0.323307
C49   C     C_3   0.332138 0.745192 0.048814 -0.374688
C50   C     C_3   0.672102 0.261796 0.950855 -0.374737
C51   C     C_3   0.290603 0.793180 0.082551 0.322880
C52   C     C_3   0.709381 0.206813 0.917447 0.323014
Cu1   Cu    Cu3+1 0.061030 0.500010 0.499990 0.943053
Cu2   Cu    Cu3+1 0.938970 0.499990 0.500010 0.937026
Cu3   Cu    Cu3+1 0.499800 0.938990 0.500010 0.945088
Cu4   Cu    Cu3+1 0.500200 0.061010 0.499990 0.942991
Cu5   Cu    Cu3+1 0.041320 0.041320 0.582630 0.955338
Cu6   Cu    Cu3+1 0.958680 0.958680 0.417370 0.943319
H1    H     H_    0.347397 0.710086 0.073779 0.162950
H2    H     H_    0.662892 0.296829 0.925810 0.162293
H3    H     H_    0.312305 0.708259 0.927130 0.162802
H4    H     H_    0.689081 0.304048 0.072369 0.162639
H5    H     H_    0.384134 0.780532 0.070468 0.161164
H6    H     H_    0.617251 0.231784 0.929034 0.161306
H7    H     H_    0.239735 0.875683 0.068914 0.162470
H8    H     H_    0.748691 0.119616 0.931430 0.162295
H9    H     H_    0.928208 0.325449 0.540766 0.174980
H10   H     H_    0.891784 0.679861 0.468569 0.180258
H11   H     H_    0.057243 0.306061 0.520930 0.181991
H12   H     H_    0.033289 0.689691 0.472421 0.172144
H13   H     H_    0.752432 0.003282 0.392207 0.159233
H14   H     H_    0.246792 0.108493 0.606081 0.161312
H15   H     H_    0.825228 0.021081 0.561951 0.152781
H16   H     H_    0.174912 0.960266 0.438312 0.152571
H17   H     H_    0.656369 0.041558 0.423481 0.159776
H18   H     H_    0.342698 0.115634 0.574415 0.160627
H19   H     H_    0.275566 0.637819 0.930450 0.161820
H20   H     H_    0.734723 0.369087 0.069139 0.160939
H21   H     H_    0.711940 0.962466 0.513862 0.154463
H22   H     H_    0.288584 0.949406 0.487316 0.152493
H23   H     H_    0.115384 0.702758 0.930210 0.162481
H24   H     H_    0.885755 0.284815 0.070255 0.162722
H25   H     H_    0.159734 0.634576 0.932249 0.161033
H26   H     H_    0.850409 0.357780 0.067903 0.161351
H27   H     H_    0.231555 0.706850 0.075597 0.162579
H28   H     H_    0.778585 0.285511 0.924553 0.162497
H29   H     H_    0.187216 0.775038 0.073570 0.161062
H30   H     H_    0.813920 0.212540 0.926893 0.161403
H31   H     H_    0.248968 0.805658 0.924242 0.161947
H32   H     H_    0.739555 0.199815 0.075700 0.161968
H33   H     H_    0.167880 0.803396 0.925524 0.162199
H34   H     H_    0.820545 0.191895 0.074821 0.161737
H35   H     H_    0.320826 0.877941 0.067628 0.161909
H36   H     H_    0.667700 0.127541 0.932316 0.162317
O1    O     O_R   0.051550 0.410990 0.500010 -0.589050
O2    O     O_R   0.948450 0.589010 0.499990 -0.586378
O3    O     O_R   0.876060 0.965100 0.430240 -0.578124
O4    O     O_R   0.123940 0.034900 0.569760 -0.582971
O5    O     O_R   0.034880 0.123910 0.569760 -0.588462
O6    O     O_R   0.965120 0.876090 0.430240 -0.604153
O7    O     O_R   0.965100 0.054130 0.430200 -0.566677
O8    O     O_R   0.034900 0.945870 0.569800 -0.565979
O9    O     O_R   0.948470 0.410970 0.500030 -0.585521
O10   O     O_R   0.051530 0.589030 0.499970 -0.588889
O11   O     O_R   0.111820 0.560290 0.620550 -0.582237
O12   O     O_R   0.888180 0.439710 0.379450 -0.584129
O13   O     O_R   0.008740 0.560280 0.620570 -0.584604
O14   O     O_R   0.991260 0.439720 0.379430 -0.583423
O15   O     O_R   0.588860 0.948460 0.499990 -0.587694
O16   O     O_R   0.411140 0.051540 0.500010 -0.581078
O17   O     O_R   0.588880 0.051510 0.499970 -0.581108
O18   O     O_R   0.411120 0.948490 0.500030 -0.588190
O19   O     O_R   0.439520 0.888190 0.379450 -0.581585
O20   O     O_R   0.560480 0.111810 0.620550 -0.583369
O21   O     O_R   0.439550 0.991240 0.379430 -0.583891
O22   O     O_R   0.560450 0.008760 0.620570 -0.582163
O23   O     O_R   0.945840 0.034880 0.569800 -0.595151
O24   O     O_R   0.054160 0.965120 0.430200 -0.590093
N1    N     N_2   0.977165 0.240089 0.610035 -0.413804
H37   H     H_    0.943814 0.192907 0.590992 0.245852
C53   C     C_3   0.976435 0.306510 0.671937 -0.677102
H38   H     H_    0.983810 0.300858 0.722325 0.224601
H39   H     H_    0.922920 0.316539 0.643072 0.212247
H40   H     H_    0.022374 0.353690 0.700437 0.239793
N2    N     N_2   0.870941 0.760133 0.391932 -0.419798
H41   H     H_    0.873939 0.750629 0.343029 0.264550
C54   C     C_3   0.800790 0.720210 0.365169 -0.698615
H42   H     H_    0.755761 0.730428 0.321338 0.230702
H43   H     H_    0.797317 0.739065 0.419733 0.232322
H44   H     H_    0.793151 0.660602 0.332331 0.222894
N3    N     N_2   0.972059 0.169529 0.415265 -0.440073
H45   H     H_    0.936135 0.192581 0.388248 0.262990
C55   C     C_3   0.026799 0.153603 0.396068 -0.661629
H46   H     H_    0.048189 0.198463 0.394761 0.212320
H47   H     H_    0.000971 0.102003 0.333652 0.237491
H48   H     H_    0.073941 0.147688 0.442992 0.216893
N4    N     N_2   0.060746 0.830839 0.583924 -0.432761
H49   H     H_    0.053627 0.803183 0.607838 0.268181
C56   C     C_3   0.131351 0.841914 0.594635 -0.689125
H50   H     H_    0.175099 0.851863 0.655787 0.226833
H51   H     H_    0.144843 0.890152 0.593896 0.240312
H52   H     H_    0.131004 0.792964 0.544246 0.211927

loop_
_geom_bond_atom_site_label_1
_geom_bond_atom_site_label_2
_ccdc_geom_bond_type
Cu3   Cu4   S    
C49   H5    S    
C25   C45   S    
Cu3   O18   S    
Cu1   O1    S    
C50   H6    S    
C14   C18   S    
C16   N4    S    
C42   H24   S    
C26   O20   A    
C32   H14   S    
Cu1   Cu2   S    
C27   C33   S    
Cu5   O8    S    
C5    C47   S    
C35   H17   S    
C14   N2    S    
C6    C48   S    
Cu2   O13   S    
C4    C52   S    
C32   C36   S    
Cu5   O23   S    
C35   C37   D    
C25   O21   A    
C56   H52   S    
C40   C50   S    
C15   N3    S    
Cu3   O22   S    
Cu1   O10   S    
C16   C30   S    
C41   H25   S    
C30   O6    A    
Cu6   O24   S    
C40   H4    S    
C18   C20   D    
C40   C48   S    
C11   C23   S    
C53   H40   S    
C36   H18   S    
C21   O17   A    
C49   C51   S    
C55   H48   S    
C50   C52   S    
C31   C33   D    
C24   O14   A    
C8    C52   S    
Cu4   O17   S    
Cu2   O2    S    
C3    C5    S    
C44   C52   S    
C31   H13   S    
C28   C34   S    
Cu3   O15   S    
C41   C43   S    
C20   H12   S    
C3    H7    S    
Cu6   O3    S    
C42   C44   S    
C44   H28   S    
Cu4   O16   S    
C13   N1    S    
C15   C29   S    
C8    C46   T    
N1    C53   S    
C39   H3    S    
C17   H9    S    
C1    C19   S    
C29   O5    A    
C2    C20   S    
C43   H27   S    
Cu2   O9    S    
Cu6   O6    S    
C4    C6    S    
C3    C51   S    
Cu3   O19   S    
C22   O16   A    
C6    H32   S    
C32   C34   D    
C54   H43   S    
C25   O19   A    
C37   H21   S    
C42   H26   S    
C2    O10   A    
C41   H23   S    
C1    O1    A    
C23   O13   A    
C30   O8    A    
C41   C47   S    
C29   O7    A    
C3    H35   S    
Cu6   O7    S    
C42   C48   S    
Cu2   O12   S    
N2    C54   S    
C9    C11   T    
C53   H38   S    
C5    H33   S    
C10   C12   T    
C34   H16   S    
C4    H36   S    
C33   H15   S    
C39   C49   S    
C9    C47   S    
C22   O18   A    
C13   C15   D    
C10   C48   S    
N2    H41   S    
C14   C16   D    
C19   H11   S    
C24   O12   A    
C54   H42   S    
C7    C45   T    
C39   C47   S    
C27   O23   A    
C28   O4    A    
C39   H19   S    
C1    O9    A    
C27   O3    A    
N4    C56   S    
N3    C55   S    
C21   O15   A    
C56   H50   S    
Cu5   O5    S    
N4    H49   S    
C12   C24   S    
C49   H1    S    
C13   C17   S    
C43   H29   S    
C2    O2    A    
C54   H44   S    
C50   H2    S    
C28   O24   A    
C4    H8    S    
C56   H51   S    
Cu1   O14   S    
C43   C51   S    
Cu5   Cu6   S    
C55   H46   S    
C38   H22   S    
C6    H34   S    
Cu5   O4    S    
C31   C35   S    
C36   C38   D    
C17   C19   D    
Cu4   O21   S    
C40   H20   S    
C26   O22   A    
C53   H39   S    
C23   O11   A    
C26   C46   S    
C7    C51   S    
Cu1   O11   S    
C21   C37   S    
N1    H37   S    
C55   H47   S    
Cu4   O20   S    
C44   H30   S    
C18   H10   S    
C5    H31   S    
N3    H45   S    
C22   C38   S    
