data_mof_unit_24977.cif
_audit_creation_date              2013-03-05T16:45:52-0500
_audit_creation_method            fapswitch 2.2
_symmetry_space_group_name_H-M    P1
_symmetry_Int_Tables_number       1
_space_group_crystal_system       triclinic
_cell_length_a                    18.358221
_cell_length_b                    18.374179
_cell_length_c                    18.368155
_cell_angle_alpha                 59.86213
_cell_angle_beta                  59.865199
_cell_angle_gamma                 59.771044
_cell_volume                      4364.52539299

loop_
_atom_site_label
_atom_site_type_symbol
_atom_site_description
_atom_site_fract_x
_atom_site_fract_y
_atom_site_fract_z
_atom_type_partial_charge
Zn1   Zn    Zn3+2 0.206620 0.206630 0.380140 1.024090
Zn2   Zn    Zn3+2 0.793380 0.793370 0.619860 1.024089
Zn3   Zn    Zn3+2 0.206630 0.380140 0.206620 1.009191
Zn4   Zn    Zn3+2 0.793370 0.619860 0.793380 1.009158
Zn5   Zn    Zn3+2 0.380140 0.206620 0.206630 1.060775
Zn6   Zn    Zn3+2 0.619860 0.793380 0.793370 1.060785
Zn7   Zn    Zn3+2 0.206620 0.206620 0.206620 1.138909
Zn8   Zn    Zn3+2 0.793380 0.793380 0.793380 1.138961
O1    O     O_3   0.250000 0.250000 0.250000 -0.519419
O2    O     O_3   0.750000 0.750000 0.750000 -0.519416
O3    O     O_R   0.305080 0.134200 0.134200 -0.554670
O4    O     O_R   0.694920 0.865800 0.865800 -0.554661
O5    O     O_R   0.134200 0.134200 0.305080 -0.605910
O6    O     O_R   0.865800 0.865800 0.694920 -0.605899
O7    O     O_R   0.134200 0.305080 0.134200 -0.596126
O8    O     O_R   0.865800 0.694920 0.865800 -0.596079
O9    O     O_R   0.134200 0.305090 0.426530 -0.656214
O10   O     O_R   0.865800 0.694910 0.573470 -0.656213
O11   O     O_R   0.305090 0.426530 0.134200 -0.633848
O12   O     O_R   0.694910 0.573470 0.865800 -0.633878
O13   O     O_R   0.426530 0.134200 0.305090 -0.632398
O14   O     O_R   0.573470 0.865800 0.694910 -0.632400
O15   O     O_R   0.134190 0.426530 0.134200 -0.621110
O16   O     O_R   0.865810 0.573470 0.865800 -0.621169
O17   O     O_R   0.426530 0.134200 0.134190 -0.607236
O18   O     O_R   0.573470 0.865800 0.865810 -0.607197
O19   O     O_R   0.134200 0.134190 0.426530 -0.618605
O20   O     O_R   0.865800 0.865810 0.573470 -0.618607
O21   O     O_R   0.426530 0.305080 0.134210 -0.652996
O22   O     O_R   0.573470 0.694920 0.865790 -0.652982
O23   O     O_R   0.305080 0.134210 0.426530 -0.622729
O24   O     O_R   0.694920 0.865790 0.573470 -0.622736
O25   O     O_R   0.134210 0.426530 0.305080 -0.653138
O26   O     O_R   0.865790 0.573470 0.694920 -0.653133
C1    C     C_R   0.391148 0.106998 0.113073 0.868774
C2    C     C_R   0.608854 0.893001 0.886928 0.868700
C3    C     C_R   0.110076 0.110158 0.389765 0.850611
C4    C     C_R   0.889924 0.889842 0.610236 0.850605
C5    C     C_R   0.112421 0.389835 0.107946 0.852098
C6    C     C_R   0.887573 0.610166 0.892060 0.852161
C7    C     C_R   0.109921 0.390553 0.389637 0.798067
C8    C     C_R   0.890077 0.609447 0.610363 0.798076
C9    C     C_R   0.390594 0.389651 0.109803 0.838522
C10   C     C_R   0.609405 0.610349 0.890199 0.838484
C11   C     C_R   0.389671 0.110538 0.390511 0.887738
C12   C     C_R   0.610329 0.889461 0.609489 0.887735
H1    H     H_    0.274607 0.810709 0.563626 0.205944
H2    H     H_    0.725390 0.189289 0.436379 0.205945
H3    H     H_    0.284290 0.386271 0.793727 0.215145
H4    H     H_    0.715720 0.613766 0.206273 0.215153
H5    H     H_    0.476033 0.782904 0.291928 0.221139
H6    H     H_    0.524039 0.217090 0.708074 0.221151
C13   C     C_R   0.936518 0.173485 0.382027 -0.195236
C14   C     C_R   0.063482 0.826514 0.617971 -0.195237
C15   C     C_R   0.930709 0.480972 0.183634 -0.182620
C16   C     C_R   0.069272 0.518979 0.816385 -0.182633
C17   C     C_R   0.472887 0.184555 0.923867 -0.111948
C18   C     C_R   0.527186 0.815423 0.076139 -0.111972
C19   C     C_R   0.851470 0.207563 0.377757 0.451765
C20   C     C_R   0.148530 0.792433 0.622241 0.451737
C21   C     C_R   0.842086 0.525500 0.223768 0.441071
C22   C     C_R   0.157897 0.474453 0.776252 0.441055
C23   C     C_R   0.494761 0.226644 0.831791 0.403465
C24   C     C_R   0.505325 0.773334 0.168214 0.403439
C25   C     C_R   0.793299 0.159825 0.436855 -0.188408
C26   C     C_R   0.206698 0.840173 0.563149 -0.188412
C27   C     C_R   0.784979 0.579340 0.174386 -0.123131
C28   C     C_R   0.215021 0.420673 0.825619 -0.123145
C29   C     C_R   0.517622 0.180696 0.777904 -0.185937
C30   C     C_R   0.482440 0.819294 0.222100 -0.185933
C31   C     C_R   0.819653 0.076892 0.500248 0.264174
C32   C     C_R   0.180344 0.923109 0.499760 0.264172
C33   C     C_R   0.815420 0.589401 0.084312 0.295535
C34   C     C_R   0.184593 0.410660 0.915680 0.295466
C35   C     C_R   0.524665 0.090402 0.815012 0.261746
C36   C     C_R   0.475366 0.909597 0.184992 0.261765
C37   C     C_R   0.910135 0.036215 0.499824 -0.018094
C38   C     C_R   0.089863 0.963786 0.500179 -0.018105
C39   C     C_R   0.907345 0.545621 0.040426 -0.027244
C40   C     C_R   0.092654 0.454402 0.959574 -0.027242
C41   C     C_R   0.519182 0.043165 0.906311 -0.033568
C42   C     C_R   0.480838 0.956828 0.093695 -0.033570
C43   C     C_R   0.968115 0.087112 0.441625 -0.011260
C44   C     C_R   0.031884 0.912888 0.558376 -0.011262
C45   C     C_R   0.965295 0.490821 0.091708 0.016436
C46   C     C_R   0.034694 0.509169 0.908300 0.016449
C47   C     C_R   0.481059 0.093330 0.962615 0.015596
C48   C     C_R   0.518973 0.906659 0.037390 0.015658
C49   C     C_R   0.944197 0.947828 0.555542 -0.062186
C50   C     C_R   0.055802 0.052172 0.444459 -0.062195
C51   C     C_R   0.943465 0.554029 0.948451 -0.055648
C52   C     C_R   0.056529 0.445978 0.051553 -0.055613
C53   C     C_R   0.547053 0.948671 0.943908 -0.041478
C54   C     C_R   0.452956 0.051323 0.056097 -0.041567
H7    H     H_    0.976881 0.216150 0.337403 0.162099
H8    H     H_    0.023119 0.783849 0.662594 0.162104
H9    H     H_    0.971702 0.438715 0.226037 0.146698
H10   H     H_    0.028272 0.561205 0.773986 0.146740
H11   H     H_    0.450421 0.223601 0.964456 0.187106
H12   H     H_    0.549668 0.776372 0.035550 0.187108
C55   C     C_R   0.165826 0.654660 0.175467 -0.211869
C56   C     C_R   0.834131 0.345347 0.824513 -0.211863
C57   C     C_R   0.661070 0.176941 0.162974 -0.218648
C58   C     C_R   0.338826 0.823043 0.837108 -0.218614
C59   C     C_R   0.177341 0.174387 0.650275 -0.213817
C60   C     C_R   0.822655 0.825615 0.349714 -0.213816
H13   H     H_    0.227344 0.669231 0.143435 0.181320
H14   H     H_    0.772610 0.330784 0.856532 0.181327
H15   H     H_    0.680023 0.146267 0.221696 0.183382
H16   H     H_    0.319803 0.853704 0.778432 0.183502
H17   H     H_    0.146160 0.238641 0.659405 0.180845
H18   H     H_    0.853833 0.761368 0.340573 0.180850
C61   C     C_R   0.137640 0.610707 0.267607 -0.133499
C62   C     C_R   0.862330 0.389304 0.732376 -0.133527
C63   C     C_R   0.616865 0.269068 0.134192 -0.140350
C64   C     C_R   0.383040 0.730918 0.865884 -0.140448
C65   C     C_R   0.268817 0.145633 0.603359 -0.134318
C66   C     C_R   0.731179 0.854372 0.396626 -0.134314
H19   H     H_    0.177862 0.591268 0.305953 0.172306
H20   H     H_    0.822115 0.408753 0.694018 0.172315
H21   H     H_    0.601701 0.308700 0.171207 0.181294
H22   H     H_    0.398141 0.691274 0.828913 0.181398
H23   H     H_    0.307499 0.188027 0.576417 0.171800
H24   H     H_    0.692492 0.811985 0.423555 0.171812
C67   C     C_R   0.058255 0.591217 0.309827 0.079945
C68   C     C_R   0.941719 0.408784 0.690171 0.079933
C69   C     C_R   0.591645 0.309645 0.058421 0.070041
C70   C     C_R   0.408349 0.690358 0.941596 0.069920
C71   C     C_R   0.310066 0.062436 0.591314 0.082898
C72   C     C_R   0.689934 0.937561 0.408687 0.082862
C73   C     C_R   0.006879 0.616745 0.259280 -0.264806
C74   C     C_R   0.993085 0.383243 0.740733 -0.264760
C75   C     C_R   0.611873 0.257414 0.011096 -0.264366
C76   C     C_R   0.388193 0.742603 0.988872 -0.264251
C77   C     C_R   0.259299 0.007896 0.627324 -0.234065
C78   C     C_R   0.740706 0.992092 0.372695 -0.234029
H25   H     H_    0.945578 0.601660 0.291583 0.200289
H26   H     H_    0.054389 0.398320 0.708443 0.200311
H27   H     H_    0.592312 0.288419 0.952618 0.193492
H28   H     H_    0.407818 0.711612 0.047306 0.193474
H29   H     H_    0.291058 0.943145 0.618996 0.193287
H30   H     H_    0.708950 0.056836 0.381035 0.193297
C79   C     C_R   0.035111 0.660541 0.166929 0.416671
C80   C     C_R   0.964840 0.339444 0.833083 0.416693
C81   C     C_R   0.655624 0.164984 0.040173 0.418113
C82   C     C_R   0.344432 0.835032 0.959799 0.418104
C83   C     C_R   0.167550 0.036808 0.673755 0.402561
C84   C     C_R   0.832455 0.963177 0.326267 0.402599
C85   C     C_R   0.115027 0.679543 0.124797 0.427944
C86   C     C_R   0.884920 0.320452 0.875198 0.427914
C87   C     C_R   0.680467 0.124559 0.116444 0.438474
C88   C     C_R   0.319506 0.875440 0.883584 0.438367
C89   C     C_R   0.126343 0.120482 0.685324 0.422442
C90   C     C_R   0.873657 0.879511 0.314683 0.422424
C91   C     C_R   0.976686 0.592882 0.462972 -0.220111
C92   C     C_R   0.023305 0.407118 0.537028 -0.220106
C93   C     C_R   0.592986 0.462894 0.976833 -0.203931
C94   C     C_R   0.407012 0.537107 0.023177 -0.203911
C95   C     C_R   0.462985 0.976992 0.592837 -0.193897
C96   C     C_R   0.537014 0.023005 0.407163 -0.193914
H31   H     H_    0.959340 0.664916 0.433624 0.192903
H32   H     H_    0.040649 0.335085 0.566376 0.192899
H33   H     H_    0.665128 0.433453 0.959393 0.194456
H34   H     H_    0.334870 0.566548 0.040616 0.194442
H35   H     H_    0.433619 0.959976 0.664862 0.202669
H36   H     H_    0.566380 0.040019 0.335138 0.202672
C97   C     C_R   0.946324 0.551977 0.555545 -0.052896
C98   C     C_R   0.053669 0.448023 0.444455 -0.052897
C99   C     C_R   0.551915 0.555570 0.946608 -0.065647
C100  C     C_R   0.448083 0.444431 0.053402 -0.065640
C101  C     C_R   0.555525 0.945235 0.552035 -0.062254
C102  C     C_R   0.444475 0.054763 0.447965 -0.062251
C103  C     C_R   0.970251 0.457634 0.593151 0.037367
C104  C     C_R   0.029737 0.542367 0.406848 0.037361
C105  C     C_R   0.457438 0.593259 0.970445 0.033533
C106  C     C_R   0.542559 0.406743 0.029568 0.033506
C107  C     C_R   0.593099 0.968457 0.457751 0.031303
C108  C     C_R   0.406901 0.031541 0.542249 0.031310
Cl1   Cl    Cl    0.816145 0.312877 0.300496 -0.513505
Cl2   Cl    Cl    0.183858 0.687111 0.699491 -0.513514
Cl3   Cl    Cl    0.802430 0.513396 0.336965 -0.548864
Cl4   Cl    Cl    0.197542 0.486510 0.663068 -0.548919
Cl5   Cl    Cl    0.484511 0.339944 0.784987 -0.512448
Cl6   Cl    Cl    0.515611 0.660024 0.215021 -0.512495
N1    N     N_R   0.750760 0.040390 0.568821 0.199688
O27   O     O_R   0.728020 0.034484 0.650567 -0.386805
O28   O     O_R   0.698034 0.033164 0.546935 -0.381709
N2    N     N_R   0.249237 0.959612 0.431191 0.199693
O29   O     O_R   0.301960 0.966837 0.453082 -0.381695
O30   O     O_R   0.271983 0.965516 0.349443 -0.386798
N3    N     N_R   0.751203 0.646939 0.039484 0.179091
O31   O     O_R   0.707770 0.613373 0.033048 -0.398203
O32   O     O_R   0.721507 0.732121 0.025234 -0.381374
N4    N     N_R   0.248852 0.353251 0.960475 0.179074
O33   O     O_R   0.278658 0.268045 0.974778 -0.381747
O34   O     O_R   0.292207 0.386968 0.966838 -0.397806
N5    N     N_R   0.515764 0.055229 0.766553 0.211920
O35   O     O_R   0.455163 0.017770 0.806602 -0.312141
O36   O     O_R   0.544483 0.085222 0.679763 -0.323851
N6    N     N_R   0.484249 0.944788 0.233445 0.211903
O37   O     O_R   0.455508 0.914818 0.320237 -0.323860
O38   O     O_R   0.544854 0.982243 0.193398 -0.312170
Cl7   Cl    Cl    0.152890 0.734364 0.008994 -0.458709
Cl8   Cl    Cl    0.847042 0.265624 0.990998 -0.458775
Cl9   Cl    Cl    0.735853 0.008804 0.155039 -0.436265
Cl10  Cl    Cl    0.264111 0.991193 0.844992 -0.436262
Cl11  Cl    Cl    0.011418 0.158954 0.743743 -0.482591
Cl12  Cl    Cl    0.988584 0.841037 0.256268 -0.482636
Cl13  Cl    Cl    0.969552 0.690236 0.105698 -0.456909
Cl14  Cl    Cl    0.030386 0.309736 0.894332 -0.456883
Cl15  Cl    Cl    0.677453 0.101466 0.980571 -0.447829
Cl16  Cl    Cl    0.322692 0.898568 0.019338 -0.447946
Cl17  Cl    Cl    0.106064 0.966938 0.716722 -0.449711
Cl18  Cl    Cl    0.893948 0.033035 0.283323 -0.449740

loop_
_geom_bond_atom_site_label_1
_geom_bond_atom_site_label_2
_geom_bond_distance
_ccdc_geom_bond_type
C74   C80   1.400057 A    
Zn7   O5    1.938956 S    
N4    O34   1.301366 A    
C34   N4    1.425284 S    
C40   C52   1.426138 A    
C42   C54   1.417585 A    
H3    C28   1.083650 S    
C13   H7    1.079499 S    
C55   C61   1.397592 A    
C59   C89   1.400073 A    
O26   C8    1.272226 A    
C86   Cl8   1.758190 S    
C100  C106  1.418470 A    
C59   C65   1.397373 A    
C78   C84   1.399361 A    
C80   Cl14  1.758651 S    
C13   C19   1.387516 A    
C79   Cl13  1.758647 S    
C14   C20   1.387508 A    
C38   C50   1.423717 A    
C98   C104  1.417950 A    
C4    C49   1.458153 S    
C37   C49   1.423708 A    
C95   C101  1.396735 A    
C3    C50   1.458157 S    
C63   H21   1.083055 S    
C88   Cl10  1.758474 S    
C66   C72   1.401804 A    
Zn4   O2    1.947674 S    
C62   H20   1.083032 S    
C46   C51   1.417212 A    
O10   C8    1.285966 A    
C76   H28   1.083534 S    
Zn4   O16   1.939291 S    
C42   C48   1.410674 A    
N1    O28   1.299966 A    
O6    C4    1.275205 A    
Zn3   O25   1.938445 S    
C28   C34   1.397294 A    
C17   H11   1.082167 S    
C47   C54   1.411002 A    
C71   C77   1.402224 A    
Zn1   O23   1.936495 S    
C63   C69   1.401692 A    
C12   C101  1.455358 S    
Zn2   O24   1.936497 S    
N5    O36   1.299821 A    
C21   C27   1.382012 A    
C10   C99   1.457724 S    
C32   N2    1.429061 S    
C78   H30   1.083308 S    
H6    C29   1.082842 S    
C93   C99   1.398069 A    
C58   C64   1.397290 A    
Zn3   O15   1.939293 S    
C2    C53   1.463947 S    
C9    C100  1.457722 S    
C26   C32   1.397688 A    
C23   C29   1.390636 A    
N2    O30   1.301257 A    
C91   C97   1.397776 A    
N6    O37   1.299829 A    
C60   C90   1.400075 A    
C32   C38   1.435505 A    
Zn3   O11   1.939546 S    
C27   C33   1.397275 A    
H5    C30   1.082841 S    
C96   H36   1.084840 S    
H2    C25   1.083514 S    
O4    C2    1.296467 A    
C65   C71   1.401805 A    
H4    C27   1.083638 S    
C85   Cl7   1.758188 S    
H1    C26   1.083512 S    
O5    C3    1.275206 A    
C57   C87   1.399630 A    
C97   C103  1.417951 A    
Zn7   O7    1.935795 S    
N4    O33   1.299334 A    
C59   H17   1.082392 S    
C92   H32   1.084122 S    
Zn8   O8    1.935797 S    
C34   C40   1.436393 A    
O21   C9    1.271248 A    
O22   C10   1.271243 A    
C84   C90   1.405955 A    
C31   N1    1.429062 S    
O13   C11   1.286051 A    
C83   C89   1.405954 A    
C67   C104  1.478424 S    
C14   C44   1.421120 A    
O12   C10   1.285146 A    
C45   C52   1.417203 A    
O11   C9    1.285140 A    
C17   C23   1.391791 A    
Zn5   O21   1.940368 S    
C35   N5    1.437579 S    
C18   C24   1.391793 A    
C76   C82   1.400385 A    
Zn4   O26   1.938443 S    
C92   C103  1.383942 A    
O9    C7    1.285966 A    
C23   Cl5   1.754764 S    
N3    O31   1.301213 A    
C61   H19   1.083031 S    
Zn1   O1    1.948884 S    
C56   C62   1.397591 A    
C13   C43   1.421123 A    
C36   N6    1.437572 S    
C80   C86   1.406307 A    
C94   C100  1.398066 A    
C60   H18   1.082392 S    
C94   H34   1.084396 S    
C83   Cl17  1.758532 S    
C25   C31   1.397688 A    
C94   C105  1.384753 A    
C38   C44   1.416418 A    
C91   H31   1.084121 S    
C95   H35   1.084843 S    
C18   C48   1.412336 A    
N2    O29   1.299962 A    
Zn5   O13   1.937927 S    
C24   Cl6   1.754760 S    
C15   C45   1.421031 A    
Zn7   O3    1.936162 S    
C24   C30   1.390634 A    
N3    O32   1.299293 A    
Zn5   O1    1.946035 S    
C57   C63   1.397295 A    
C73   H25   1.083438 S    
C72   C107  1.477731 S    
C70   C76   1.403320 A    
C22   Cl4   1.755431 S    
C41   C53   1.417582 A    
C67   C73   1.402889 A    
C16   C46   1.421048 A    
C79   C85   1.406304 A    
Zn8   O4    1.936164 S    
C15   H9    1.081095 S    
C96   C102  1.396735 A    
C18   H12   1.082155 S    
C56   C86   1.399939 A    
C66   H24   1.083067 S    
C16   H10   1.081117 S    
C87   Cl9   1.758475 S    
C56   H14   1.082773 S    
Zn3   O1    1.947671 S    
O7    C5    1.276762 A    
C81   C87   1.406372 A    
C68   C103  1.478424 S    
C64   H22   1.083041 S    
O17   C1    1.263622 A    
C82   C88   1.406353 A    
C91   C104  1.383942 A    
O18   C2    1.263638 A    
Zn6   O22   1.940367 S    
O8    C6    1.276747 A    
C75   H27   1.083556 S    
C77   C83   1.399363 A    
C30   C36   1.403843 A    
C16   C22   1.385971 A    
C75   C81   1.400386 A    
C44   C49   1.419924 A    
C64   C70   1.401672 A    
C95   C108  1.383624 A    
C36   C42   1.425711 A    
Zn2   O2    1.948881 S    
C11   C102  1.455358 S    
C5    C52   1.455447 S    
C31   C37   1.435506 A    
C73   C79   1.400056 A    
C8    C97   1.456355 S    
C99   C105  1.418478 A    
C1    C54   1.463965 S    
C102  C108  1.418440 A    
C69   C106  1.478904 S    
Zn7   O1    1.954103 S    
C43   C50   1.419926 A    
C89   Cl11  1.757641 S    
C48   C53   1.411010 A    
C70   C105  1.478916 S    
Zn8   O6    1.938958 S    
O14   C12   1.286048 A    
O24   C12   1.271126 A    
C72   C78   1.402226 A    
C93   H33   1.084396 S    
C69   C75   1.403317 A    
C37   C43   1.416421 A    
C7    C98   1.456356 S    
C33   C39   1.436375 A    
C84   Cl18  1.758539 S    
Zn6   O2    1.946037 S    
C82   Cl16  1.758640 S    
C35   C41   1.425708 A    
C20   Cl2   1.755543 S    
C71   C108  1.477731 S    
C21   Cl3   1.755405 S    
C22   C28   1.382065 A    
C57   H15   1.082159 S    
O25   C7    1.272224 A    
C58   C88   1.399623 A    
C19   Cl1   1.755547 S    
C65   H23   1.083063 S    
C19   C25   1.382483 A    
C58   H16   1.082136 S    
C41   C47   1.410657 A    
N1    O27   1.301253 A    
Zn6   O18   1.940481 S    
O19   C3    1.282118 A    
O15   C5    1.279924 A    
C15   C21   1.385962 A    
C55   C85   1.399938 A    
O16   C6    1.279934 A    
C39   C45   1.417087 A    
C29   C35   1.403852 A    
Zn2   O10   1.937833 S    
C6    C51   1.455429 S    
N5    O35   1.301331 A    
C39   C51   1.426158 A    
C90   Cl12  1.757640 S    
C96   C107  1.383625 A    
C68   C74   1.402891 A    
C93   C106  1.384750 A    
C20   C26   1.382476 A    
Zn4   O12   1.939544 S    
C17   C47   1.412337 A    
C40   C46   1.417111 A    
C77   H29   1.083307 S    
C61   C67   1.401923 A    
Zn1   O9    1.937834 S    
Zn8   O2    1.954102 S    
O23   C11   1.271125 A    
C55   H13   1.082773 S    
Zn1   O19   1.941839 S    
C62   C68   1.401924 A    
C92   C98   1.397775 A    
C101  C107  1.418439 A    
Zn2   O20   1.941840 S    
O3    C1    1.296492 A    
C81   Cl15  1.758648 S    
O20   C4    1.282120 A    
C74   H26   1.083440 S    
C14   H8    1.079487 S    
N6    O38   1.301339 A    
C60   C66   1.397373 A    
C33   N3    1.425154 S    
Zn5   O17   1.940484 S    
Zn6   O14   1.937930 S    
