data_mof_unit_63136.cif
_audit_creation_date              2013-03-05T17:00:37-0500
_audit_creation_method            fapswitch 2.2
_symmetry_space_group_name_H-M    P1
_symmetry_Int_Tables_number       1
_space_group_crystal_system       triclinic
_cell_length_a                    13.149781
_cell_length_b                    16.131346
_cell_length_c                    16.859471
_cell_angle_alpha                 91.185769
_cell_angle_beta                  88.67482
_cell_angle_gamma                 107.501334
_cell_volume                      3409.47976882

loop_
_atom_site_label
_atom_site_type_symbol
_atom_site_description
_atom_site_fract_x
_atom_site_fract_y
_atom_site_fract_z
_atom_type_partial_charge
O1    O     O_R   0.504530 0.423560 0.387290 -0.627002
O2    O     O_R   0.496400 0.561030 0.381140 -0.630380
C1    C     C_R   0.499358 0.489545 0.347135 0.863949
O3    O     O_R   0.352460 0.397130 0.504630 -0.619904
O4    O     O_R   0.344330 0.534610 0.498470 -0.596619
C2    C     C_R   0.298444 0.451819 0.504177 0.936040
Zn1   Zn    Zn3+2 0.505430 0.408200 0.504110 1.013124
Zn2   Zn    Zn3+2 0.494570 0.591800 0.495890 0.971153
O5    O     O_R   0.503600 0.438970 0.618860 -0.574574
O6    O     O_R   0.495470 0.576440 0.612710 -0.614411
O7    O     O_R   0.655670 0.465390 0.501530 -0.573633
O8    O     O_R   0.647540 0.602870 0.495370 -0.622584
C3    C     C_R   0.503206 0.511239 0.652790 0.967247
C4    C     C_R   0.701343 0.548165 0.497269 0.884240
C5    C     C_R   0.965895 0.661539 0.581191 -0.146451
H1    H     H_    0.820742 0.694937 0.573043 0.165593
H2    H     H_    0.138830 0.649884 0.650101 0.187201
H3    H     H_    0.000875 0.715378 0.621395 0.157950
C6    C     C_R   0.816067 0.578908 0.504756 -0.064932
C7    C     C_R   0.135266 0.344213 0.458411 -0.270280
C8    C     C_R   0.030530 0.325971 0.433029 0.361892
C9    C     C_R   0.976032 0.387094 0.448913 -0.181777
C10   C     C_R   0.021608 0.462738 0.496016 0.011478
C11   C     C_R   0.121285 0.472728 0.530939 0.015190
C12   C     C_R   0.970641 0.527725 0.511305 0.125426
C13   C     C_R   0.017008 0.598221 0.564053 0.096187
C14   C     C_R   0.108704 0.600744 0.604510 -0.240058
C15   C     C_R   0.157510 0.536430 0.591529 0.279622
C16   C     C_R   0.872458 0.523047 0.478560 -0.170168
C17   C     C_R   0.864389 0.651065 0.552639 -0.172124
C18   C     C_R   0.182328 0.419402 0.503322 -0.141440
H4    H     H_    0.832842 0.472359 0.437401 0.140290
H5    H     H_    0.182376 0.302504 0.439185 0.189964
H6    H     H_    0.897515 0.372562 0.424981 0.185691
C19   C     C_R   0.495431 0.484238 0.261203 -0.038400
C20   C     C_R   0.500197 0.559209 0.218820 -0.213352
C21   C     C_R   0.497496 0.555975 0.137085 -0.162707
C22   C     C_R   0.490780 0.477664 0.096593 0.334821
C23   C     C_R   0.481648 0.402032 0.138592 -0.135323
C24   C     C_R   0.484923 0.405250 0.220940 -0.210848
C25   C     C_R   0.562389 0.463139 0.859352 0.289277
C26   C     C_R   0.542714 0.454387 0.778988 -0.194233
C27   C     C_R   0.551298 0.536970 0.900483 0.249575
N1    N     N_2   0.493681 0.473577 0.013441 -0.139726
N2    N     N_2   0.551288 0.542019 0.983517 -0.172107
C28   C     C_R   0.518109 0.520387 0.738030 -0.097928
H7    H     H_    0.547419 0.395828 0.748877 0.233107
H8    H     H_    0.474919 0.341331 0.107321 0.178566
H9    H     H_    0.479530 0.346449 0.252858 0.175952
C29   C     C_R   0.514736 0.596464 0.778199 -0.160178
C30   C     C_R   0.531099 0.604437 0.859389 -0.200218
H10   H     H_    0.497718 0.648872 0.747313 0.195836
H11   H     H_    0.501467 0.614623 0.105374 0.159559
H12   H     H_    0.523965 0.661656 0.890952 0.174625
H13   H     H_    0.506868 0.620738 0.248582 0.170463
N3    N     N_R   0.487340 0.714070 0.490410 -0.107003
C31   C     C_R   0.528056 0.771426 0.550386 -0.078931
C32   C     C_R   0.515251 0.855292 0.552492 0.226665
C33   C     C_R   0.462901 0.881172 0.488725 0.222701
C34   C     C_R   0.421170 0.819916 0.428505 -0.326009
C35   C     C_R   0.434092 0.736781 0.430331 -0.002521
C36   C     C_R   0.431059 0.134432 0.474265 -0.253606
C37   C     C_R   0.430480 0.221824 0.476957 -0.069662
C38   C     C_R   0.518421 0.112406 0.504580 0.293989
N4    N     N_2   0.448493 0.965762 0.483859 -0.143396
N5    N     N_2   0.528023 0.026139 0.505315 -0.097387
N6    N     N_R   0.512670 0.285920 0.509580 -0.144156
H14   H     H_    0.364142 0.238468 0.452187 0.162583
H15   H     H_    0.364588 0.085354 0.448181 0.180324
H16   H     H_    0.378944 0.836699 0.379942 0.177771
H17   H     H_    0.400222 0.689852 0.384020 0.145932
C39   C     C_R   0.597899 0.265050 0.540193 0.415630
C40   C     C_R   0.601547 0.178945 0.536741 -0.263201
H18   H     H_    0.669005 0.163264 0.561036 0.214152
H19   H     H_    0.566644 0.750478 0.598754 0.169249
Br1   Br    Br    0.606467 0.373805 0.909332 -0.411695
N7    N     N_R   0.684689 0.329356 0.576648 0.221302
O9    O     O_R   0.781603 0.326177 0.565111 -0.399394
O10   O     O_R   0.666095 0.376529 0.635221 -0.369725
N8    N     N_R   0.548911 0.909762 0.621395 0.216059
O11   O     O_R   0.487355 0.951728 0.653094 -0.341948
O12   O     O_R   0.632077 0.906348 0.660008 -0.370362
N9    N     N_R   0.981767 0.248091 0.387421 0.222802
O13   O     O_R   0.033751 0.192582 0.371040 -0.370479
O14   O     O_R   0.883997 0.230705 0.363611 -0.367589
Br2   Br    Br    0.254446 0.527175 0.671740 -0.494751

loop_
_geom_bond_atom_site_label_1
_geom_bond_atom_site_label_2
_geom_bond_distance
_ccdc_geom_bond_type
C5    H3    1.084021 S    
C25   C26   1.381636 A    
C40   H18   1.083828 S    
C19   C20   1.401869 A    
Zn2   N3    2.007135 S    
N7    O9    1.300759 A    
Zn1   O7    1.912471 S    
C13   C14   1.388582 A    
C36   C37   1.411853 A    
C20   C21   1.378796 A    
C21   C22   1.403439 A    
C16   H4    1.076352 S    
C3    C28   1.453371 S    
O7    C4    1.291687 A    
H1    C17   1.083383 S    
C24   H9    1.083161 S    
N3    C31   1.361451 A    
N6    C39   1.377191 A    
C26   C28   1.401070 A    
O5    C3    1.289282 A    
C36   C38   1.409735 A    
C8    N9    1.441886 S    
C29   H10   1.083219 S    
C38   C40   1.392346 A    
C1    C19   1.450714 S    
C32   N8    1.437046 S    
C21   H11   1.083301 S    
C35   H17   1.081617 S    
C2    C18   1.457923 S    
C33   C34   1.402307 A    
C8    C9    1.400952 A    
C25   C27   1.409335 A    
O3    Zn1   1.965042 S    
N7    O10   1.297555 A    
C12   C16   1.396422 A    
C22   C23   1.395718 A    
C9    H6    1.074031 S    
C37   N6    1.368026 A    
H2    C14   1.084471 S    
O3    C2    1.288525 A    
C23   C24   1.389408 A    
N8    O11   1.301415 A    
C5    C13   1.403661 A    
C12   C13   1.421971 A    
C36   H15   1.082289 S    
C34   C35   1.402605 A    
O1    C1    1.292842 A    
C38   N5    1.434964 S    
C22   N1    1.402258 S    
C39   N7    1.431902 S    
N9    O13   1.301733 A    
C34   H16   1.082858 S    
Zn2   O8    1.965041 S    
C29   C30   1.387873 A    
N3    C35   1.361226 A    
C27   N2    1.400594 S    
C7    H5    1.083462 S    
N8    O12   1.301333 A    
N9    O14   1.301944 A    
O8    C4    1.287654 A    
C15   Br2   1.917912 S    
C6    C16   1.388236 A    
N1    N2    1.244849 D    
C5    C17   1.390175 A    
Zn1   O5    1.988721 S    
C37   H14   1.081570 S    
O1    Zn1   1.990878 S    
C4    C6    1.447054 S    
O2    Zn2   1.988722 S    
C11   C15   1.418097 A    
C39   C40   1.404128 A    
O6    C3    1.292341 A    
O4    Zn2   1.912471 S    
C28   C29   1.401295 A    
C30   H12   1.083218 S    
C31   H19   1.081809 S    
O2    C1    1.287838 A    
C32   C33   1.424649 A    
C11   C18   1.408031 A    
C20   H13   1.083344 S    
C33   N4    1.437172 S    
C25   Br1   1.922993 S    
C27   C30   1.395934 A    
C31   C32   1.412306 A    
O4    C2    1.294190 A    
C19   C24   1.402174 A    
C26   H7    1.080613 S    
C10   C12   1.420582 A    
C10   C11   1.412581 A    
Zn1   N6    2.007328 S    
C7    C8    1.394571 A    
Zn2   O6    1.990876 S    
N4    N5    1.250387 D    
C14   C15   1.385907 A    
C9    C10   1.421567 A    
C6    C17   1.396553 A    
C23   H8    1.083183 S    
C7    C18   1.399870 A    
