data_mof_unit_47641.cif
_audit_creation_date              2012-12-10T19:05:21-0500
_audit_creation_method            fapswitch 2.2
_symmetry_space_group_name_H-M    P1
_symmetry_Int_Tables_number       1
_space_group_crystal_system       triclinic
_cell_length_a                    9.570649
_cell_length_b                    10.832618
_cell_length_c                    17.27018
_cell_angle_alpha                 91.316198
_cell_angle_beta                  85.414489
_cell_angle_gamma                 90.519008
_cell_volume                      1784.24021874

loop_
_atom_site_label
_atom_site_type_symbol
_atom_type_description
_atom_site_fract_x
_atom_site_fract_y
_atom_site_fract_z
_atom_type_partial_charge
C1    C     C_R   0.500496 0.737583 0.503791 0.891243
C2    C     C_R   0.346402 0.494556 0.779890 -0.170303
C3    C     C_R   0.417337 0.522786 0.145423 -0.164351
C4    C     C_R   0.408576 0.519794 0.225768 -0.155898
C5    C     C_R   0.661628 0.505888 0.222784 -0.168328
C6    C     C_R   0.671930 0.509602 0.141507 0.172173
C7    C     C_R   0.547872 0.515049 0.102590 0.150531
C8    C     C_2   0.461291 0.443951 0.979621 -0.121637
C9    C     C_2   0.552710 0.512177 0.017409 -0.164428
C10   C     C_R   0.530152 0.508781 0.265039 -0.058648
C11   C     C_R   0.377790 0.934595 0.502248 0.065706
C12   C     C_R   0.481349 0.495622 0.649950 0.856228
C13   C     C_R   0.500358 0.871064 0.513465 -0.140938
C14   C     C_R   0.616818 0.940265 0.537346 0.265620
C15   C     C_R   0.613312 0.069244 0.536133 -0.228474
C16   C     C_R   0.495745 0.130046 0.512155 -0.125150
C17   C     C_R   0.374161 0.061106 0.503295 0.092331
C18   C     C_3   0.269398 0.062911 0.443745 -0.492914
C19   C     C_3   0.274544 0.922559 0.441893 0.116047
C20   C     C_R   0.936992 0.466129 0.434606 0.234088
C21   C     C_R   0.916268 0.553165 0.559285 -0.050502
C22   C     C_R   0.064618 0.557514 0.558312 0.330384
C23   C     C_R   0.498952 0.262497 0.502125 0.802744
C24   C     C_R   0.083217 0.469455 0.434211 0.183068
C25   C     C_3   0.103394 0.358629 0.383068 -0.474021
C26   C     C_3   0.943721 0.350265 0.384045 -0.111784
C27   C     C_R   0.518945 0.502253 0.349937 0.819753
C28   C     C_R   0.472714 0.478585 0.734105 -0.145965
C29   C     C_R   0.592290 0.440304 0.768619 -0.199226
C30   C     C_R   0.588101 0.422470 0.848070 0.273118
C31   C     C_R   0.463460 0.446632 0.894820 0.019714
C32   C     C_R   0.341299 0.479383 0.860040 0.272730
Cu1   Cu    Cu3+1 0.359330 0.500020 0.500000 1.007850
Cu2   Cu    Cu3+1 0.640670 0.499980 0.500000 0.985455
H1    H     H_    0.689383 0.422154 0.733714 0.196649
H2    H     H_    0.704334 0.121299 0.551682 0.190383
H3    H     H_    0.166468 0.097751 0.469007 0.187358
H4    H     H_    0.311244 0.106675 0.388964 0.221047
H5    H     H_    0.174584 0.878370 0.464417 0.179169
H6    H     H_    0.853228 0.596175 0.607020 0.202191
H7    H     H_    0.154204 0.381099 0.325025 0.175757
H8    H     H_    0.306205 0.526345 0.256989 0.165685
H9    H     H_    0.154455 0.283933 0.412533 0.216292
H10   H     H_    0.906073 0.364973 0.325730 0.166743
H11   H     H_    0.756140 0.499854 0.252990 0.143588
H12   H     H_    0.633953 0.564816 0.984991 0.196031
H13   H     H_    0.321530 0.531558 0.116620 0.167128
H14   H     H_    0.252224 0.520517 0.753925 0.224416
H15   H     H_    0.378674 0.391892 0.011341 0.181971
N1    N     N_R   0.852130 0.499070 0.499500 -0.213468
N2    N     N_R   0.148040 0.499110 0.499500 -0.214945
O1    O     O_R   0.381190 0.680360 0.500000 -0.545728
O2    O     O_R   0.618770 0.680320 0.499990 -0.543286
O3    O     O_R   0.367430 0.500040 0.613600 -0.550786
O4    O     O_R   0.605020 0.500000 0.613590 -0.596498
O5    O     O_R   0.381230 0.319680 0.500010 -0.580130
O6    O     O_R   0.618810 0.319640 0.500000 -0.592642
O7    O     O_R   0.394980 0.500000 0.386410 -0.578064
O8    O     O_R   0.632570 0.499960 0.386400 -0.589278
C33   C     C_3   0.814376 0.503646 0.097585 -0.764876
H16   H     H_    0.820275 0.420874 0.058430 0.278094
H17   H     H_    0.833092 0.587885 0.062726 0.252937
H18   H     H_    0.899637 0.497512 0.137350 0.221302
Br1   Br    Br    0.785213 0.869301 0.570018 -0.487719
Br2   Br    Br    0.353994 0.855541 0.342527 -0.508517
Br3   Br    Br    0.137648 0.666375 0.634264 -0.454709
C34   C     C_3   0.886736 0.231612 0.421562 -0.721221
H19   H     H_    0.893373 0.235384 0.485488 0.239295
H20   H     H_    0.777526 0.215729 0.406811 0.246105
H21   H     H_    0.947768 0.151129 0.397010 0.232701
Br4   Br    Br    0.166825 0.510062 0.920075 -0.454925
Br5   Br    Br    0.753789 0.358679 0.888423 -0.454263

loop_
_geom_bond_atom_site_label_1
_geom_bond_atom_site_label_2
_ccdc_geom_bond_type
C10   C27   S    
C8    C9    D    
Cu2   O6    S    
C30   Br5   S    
C19   Br2   S    
C29   C30   A    
Cu1   N2    S    
C2    C28   A    
C29   H1    S    
C3    C7    A    
C31   C32   A    
Cu1   O7    S    
C30   C31   A    
C34   H21   S    
C14   Br1   S    
C16   C23   S    
C25   H9    S    
Cu1   O5    S    
C4    H8    S    
C17   C18   S    
C18   H4    S    
C26   H10   S    
Cu2   O4    S    
C27   O8    A    
C21   C22   A    
Cu1   O1    S    
C11   C13   A    
C11   C19   S    
C6    C7    A    
C21   H6    S    
C20   C26   S    
C12   C28   S    
C33   H18   S    
C23   O6    A    
C26   C34   S    
C19   H5    S    
C3    H13   S    
C28   C29   A    
C18   H3    S    
Cu1   Cu2   S    
C32   Br4   S    
C21   N1    A    
C33   H17   S    
C5    C6    A    
C1    O1    A    
Cu2   N1    S    
C12   O4    A    
C1    C13   S    
C24   N2    A    
C4    C10   A    
C34   H19   S    
C6    C33   S    
C15   H2    S    
C5    C10   A    
Cu2   O8    S    
C24   C25   S    
C9    H12   S    
Cu2   O2    S    
C2    C32   A    
C18   C19   S    
C23   O5    A    
C25   H7    S    
Cu1   O3    S    
C7    C9    S    
C1    O2    A    
C14   C15   A    
C22   Br3   S    
C20   N1    A    
C2    H14   S    
C25   C26   S    
C13   C14   A    
C8    C31   S    
C5    H11   S    
C8    H15   S    
C20   C24   A    
C22   N2    A    
C12   O3    A    
C3    C4    A    
C15   C16   A    
C16   C17   A    
C33   H16   S    
C34   H20   S    
C27   O7    A    
C11   C17   A    
