data_mof_unit_7375.cif
_audit_creation_date              2012-12-10T17:26:15-0500
_audit_creation_method            fapswitch 2.2
_symmetry_space_group_name_H-M    P1
_symmetry_Int_Tables_number       1
_space_group_crystal_system       triclinic
_cell_length_a                    10.217027
_cell_length_b                    10.302623
_cell_length_c                    27.522554
_cell_angle_alpha                 89.740282
_cell_angle_beta                  82.750413
_cell_angle_gamma                 93.555293
_cell_volume                      2868.16971032

loop_
_atom_site_label
_atom_site_type_symbol
_atom_type_description
_atom_site_fract_x
_atom_site_fract_y
_atom_site_fract_z
_atom_type_partial_charge
C1    C     C_R   0.553509 0.735705 0.497511 0.863944
C2    C     C_R   0.471055 0.679687 0.128686 -0.021507
C3    C     C_R   0.500884 0.502313 0.647237 -0.109087
C4    C     C_R   0.495310 0.521129 0.354032 -0.073634
C5    C     C_R   0.451816 0.680498 0.027088 0.043531
C6    C     C_R   0.364166 0.446010 0.983998 0.045095
C7    C     C_R   0.346791 0.458025 0.035513 0.043855
C8    C     C_R   0.447094 0.676149 0.975924 0.044228
C9    C     C_R   0.399760 0.571649 0.056680 0.073815
C10   C     C_R   0.411872 0.556174 0.954422 0.074440
C11   C     C_R   0.512280 0.787656 0.049522 -0.218423
C12   C     C_R   0.446336 0.264534 0.504041 0.808632
C13   C     C_R   0.341307 0.325764 0.961032 -0.220805
C14   C     C_R   0.523059 0.786311 0.099343 -0.138154
C15   C     C_R   0.363385 0.314931 0.910460 -0.140879
C16   C     C_R   0.501530 0.500786 0.593985 0.867939
C17   C     C_R   0.498725 0.503661 0.406277 0.901664
C18   C     C_R   0.479699 0.786672 0.945182 -0.219257
C19   C     C_R   0.281290 0.358833 0.066794 -0.218739
C20   C     C_2   0.577914 0.875672 0.502224 0.095201
C21   C     C_2   0.421002 0.125779 0.512606 0.096724
C22   C     C_2   0.511372 0.929998 0.541503 -0.219873
C23   C     C_R   0.427170 0.545604 0.902831 -0.054294
C24   C     C_2   0.494000 0.068985 0.543037 -0.191037
C25   C     C_2   0.922373 0.487508 0.510657 0.572067
C26   C     C_2   0.068766 0.510760 0.492298 0.473824
C27   C     C_R   0.480072 0.643381 0.822050 0.550560
C28   C     C_R   0.359894 0.470964 0.187696 0.550559
C29   C     C_R   0.429225 0.414362 0.830040 0.491124
C30   C     C_R   0.488600 0.672954 0.178265 0.494289
C31   C     C_R   0.372665 0.467913 0.726712 -0.159237
C32   C     C_R   0.422049 0.648166 0.289906 -0.146428
C33   C     C_R   0.382844 0.461106 0.676294 -0.286863
C34   C     C_R   0.404737 0.574394 0.107768 -0.054401
C35   C     C_R   0.439606 0.632326 0.338546 -0.330192
C36   C     C_R   0.611360 0.549462 0.669503 0.098170
C37   C     C_R   0.542952 0.428422 0.319976 0.120370
C38   C     C_R   0.602896 0.549498 0.721169 0.208411
C39   C     C_R   0.531097 0.447870 0.269935 0.209979
C40   C     C_R   0.481441 0.511853 0.749420 0.264601
C41   C     C_R   0.465185 0.555648 0.255630 0.257895
C42   C     C_3   0.727628 0.732735 0.624590 -0.708306
C43   C     C_3   0.508144 0.212000 0.355288 -0.805241
C44   C     C_3   0.207158 0.014692 0.511797 -0.793675
C45   C     C_R   0.465437 0.656194 0.873009 -0.032242
C46   C     C_3   0.696570 0.893093 0.418096 -0.812919
C47   C     C_3   0.141674 0.612891 0.418778 0.070859
C48   C     C_3   0.021696 0.690007 0.411555 -0.450770
C49   C     C_3   0.065184 0.812834 0.380871 -0.925991
C50   C     C_3   0.909810 0.370058 0.582271 0.166837
C51   C     C_3   0.794698 0.266535 0.586948 -0.345245
C52   C     C_3   0.833996 0.139010 0.607766 -1.001673
C53   C     C_3   0.142373 0.699280 0.578252 0.167517
C54   C     C_3   0.123219 0.716714 0.633744 -0.366370
C55   C     C_3   0.146461 0.858834 0.647480 -0.959968
C56   C     C_R   0.346776 0.469976 0.137781 -0.026850
C57   C     C_3   0.846557 0.319086 0.414498 0.247763
C58   C     C_3   0.948335 0.232243 0.387927 -0.388295
C59   C     C_3   0.925560 0.207474 0.335026 -0.957690
C60   C     C_3   0.787344 0.486089 0.760514 -0.798149
C61   C     C_3   0.706613 0.396610 0.207176 -0.784914
C62   C     C_R   0.487542 0.776814 0.894594 -0.134424
C63   C     C_R   0.280431 0.365462 0.117186 -0.139737
C64   C     C_R   0.405847 0.424089 0.881030 -0.020729
H1    H     H_    0.513903 0.863930 0.872427 0.193260
H2    H     H_    0.312317 0.236715 0.981383 0.142902
H3    H     H_    0.497412 0.882752 0.959313 0.142448
H4    H     H_    0.228690 0.275353 0.053249 0.144624
H5    H     H_    0.553630 0.127257 0.565742 0.134767
H6    H     H_    0.458353 0.870195 0.571158 0.128317
H7    H     H_    0.814742 0.577654 0.653403 0.227850
H8    H     H_    0.723778 0.797857 0.656735 0.223694
H9    H     H_    0.641316 0.746887 0.604813 0.221071
H10   H     H_    0.818915 0.759611 0.599320 0.242273
H11   H     H_    0.677555 0.285525 0.311946 0.232658
H12   H     H_    0.231612 0.285831 0.139746 0.187858
H13   H     H_    0.452995 0.172099 0.325808 0.251861
H14   H     H_    0.437001 0.246442 0.385600 0.238121
H15   H     H_    0.562020 0.133109 0.369860 0.246348
H16   H     H_    0.325751 0.094254 0.451418 0.216410
H17   H     H_    0.151048 0.946924 0.489583 0.228653
H18   H     H_    0.149899 0.101940 0.520140 0.244127
H19   H     H_    0.219451 0.964816 0.546532 0.244377
H20   H     H_    0.712497 0.028377 0.474734 0.249696
H21   H     H_    0.742928 0.968179 0.391247 0.238739
H22   H     H_    0.612223 0.842466 0.402643 0.243040
H23   H     H_    0.406407 0.705703 0.364561 0.154549
H24   H     H_    0.770704 0.822643 0.424122 0.256605
H25   H     H_    0.191629 0.590961 0.381924 0.201271
H26   H     H_    0.212913 0.674470 0.437636 0.160979
H27   H     H_    0.950910 0.629144 0.392573 0.236993
H28   H     H_    0.971096 0.718695 0.447663 0.198905
H29   H     H_    0.133520 0.877063 0.399789 0.261841
H30   H     H_    0.978072 0.867340 0.375148 0.271456
H31   H     H_    0.115957 0.786978 0.344427 0.267574
H32   H     H_    0.933076 0.393949 0.619677 0.153843
H33   H     H_    0.000283 0.328223 0.563014 0.131468
H34   H     H_    0.296804 0.425217 0.659893 0.185335
H35   H     H_    0.710051 0.301697 0.611607 0.229578
H36   H     H_    0.763252 0.247753 0.550392 0.261583
H37   H     H_    0.915971 0.099286 0.583002 0.267354
H38   H     H_    0.748156 0.066511 0.611293 0.274859
H39   H     H_    0.865727 0.154684 0.644550 0.274916
H40   H     H_    0.074366 0.760940 0.561280 0.108212
H41   H     H_    0.246082 0.730922 0.564467 0.176223
H42   H     H_    0.021283 0.682214 0.648891 0.223996
H43   H     H_    0.193360 0.657482 0.650534 0.237572
H44   H     H_    0.249291 0.895004 0.633894 0.265055
H45   H     H_    0.372391 0.731329 0.278936 0.169946
H46   H     H_    0.131110 0.867788 0.687956 0.283527
H47   H     H_    0.075885 0.919670 0.631677 0.264382
H48   H     H_    0.854031 0.414532 0.394829 0.138056
H49   H     H_    0.745927 0.271935 0.414324 0.181043
H50   H     H_    0.049036 0.279511 0.388182 0.268941
H51   H     H_    0.944027 0.137336 0.407672 0.226231
H52   H     H_    0.831576 0.148262 0.333938 0.259597
H53   H     H_    0.007352 0.152427 0.316534 0.286538
H54   H     H_    0.923129 0.300882 0.314935 0.271359
H55   H     H_    0.772953 0.666919 0.728435 0.237712
H56   H     H_    0.279114 0.439837 0.748384 0.166043
H57   H     H_    0.867152 0.526289 0.781057 0.246728
H58   H     H_    0.832664 0.433638 0.728051 0.225195
H59   H     H_    0.721776 0.416804 0.784979 0.268337
H60   H     H_    0.570947 0.261537 0.245106 0.247249
H61   H     H_    0.732780 0.324686 0.178200 0.249133
H62   H     H_    0.783814 0.401192 0.232287 0.235129
H63   H     H_    0.703893 0.493138 0.189318 0.261449
H64   H     H_    0.574209 0.868668 0.114633 0.188401
H65   H     H_    0.347022 0.220240 0.894532 0.188860
H66   H     H_    0.558819 0.871203 0.029037 0.144392
N1    N     N_R   0.465362 0.523222 0.801664 -0.338763
N2    N     N_2   0.579137 0.357595 0.233915 -0.295289
N3    N     N_R   0.436199 0.567754 0.206284 -0.338176
N4    N     N_2   0.842700 0.448890 0.480020 0.000537
N5    N     N_2   0.157300 0.551110 0.519980 -0.004350
N6    N     N_2   0.728630 0.598479 0.640113 -0.254316
N7    N     N_2   0.601515 0.316915 0.336244 -0.327774
N8    N     N_2   0.334621 0.052163 0.484814 -0.276653
N9    N     N_2   0.650580 0.954361 0.463707 -0.302193
N10   N     N_2   0.713533 0.590946 0.745226 -0.288952
O1    O     O_R   0.431060 0.692470 0.504020 -0.640494
O2    O     O_2   0.299287 0.374656 0.217361 -0.571297
O3    O     O_2   0.560307 0.768793 0.197981 -0.571344
O4    O     O_2   0.416549 0.297022 0.808898 -0.562464
O5    O     O_3   0.106639 0.491557 0.442913 -0.656603
O6    O     O_3   0.875488 0.486330 0.560088 -0.623043
O7    O     O_3   0.112931 0.568223 0.567562 -0.593195
O8    O     O_3   0.873480 0.330367 0.463162 -0.617872
O9    O     O_R   0.568940 0.307530 0.495980 -0.613122
O10   O     O_R   0.651120 0.659650 0.491200 -0.615211
O11   O     O_R   0.348880 0.340350 0.508800 -0.581263
O12   O     O_R   0.389980 0.516390 0.577660 -0.601095
O13   O     O_R   0.610020 0.483610 0.422340 -0.625601
O14   O     O_R   0.610040 0.483570 0.564830 -0.554170
O15   O     O_R   0.389960 0.516430 0.435170 -0.605974
O16   O     O_2   0.508080 0.750089 0.793061 -0.559652
Zn1   Zn    Zn3+2 0.353060 0.521910 0.508560 0.971941
Zn2   Zn    Zn3+2 0.646940 0.478090 0.491440 0.966982

loop_
_geom_bond_atom_site_label_1
_geom_bond_atom_site_label_2
_ccdc_geom_bond_type
C47   O5    S    
C52   H39   S    
C34   C56   A    
N5    Zn1   S    
O15   Zn1   S    
C27   N1    A    
C44   H19   S    
C17   O13   A    
C41   N3    S    
C28   C56   A    
C39   C41   A    
C29   N1    A    
C53   C54   S    
C43   H14   S    
C52   H38   S    
C54   H43   S    
C23   C45   A    
H55   N10   S    
O11   Zn1   S    
C20   N9    S    
O14   Zn2   S    
C44   H18   S    
C11   C14   A    
C57   H48   S    
C39   N2    S    
C3    C33   A    
C53   H40   S    
C43   H15   S    
C45   C62   A    
C53   O7    S    
C14   H64   S    
C31   C40   A    
H60   N2    S    
C42   N6    S    
C33   H34   S    
O13   Zn2   S    
C26   N5    D    
C61   N2    S    
C54   C55   S    
C35   H23   S    
H20   N9    S    
C19   C63   A    
C59   H52   S    
C42   H9    S    
C48   H27   S    
C15   C64   A    
C31   C33   A    
C25   O6    S    
C49   H30   S    
O9    Zn2   S    
C46   H21   S    
C2    C34   A    
C29   C64   A    
C59   H53   S    
C37   N7    S    
C47   H25   S    
C12   O11   A    
C21   N8    S    
C36   N6    S    
C24   H5    S    
C46   H24   S    
C13   H2    S    
C51   H35   S    
C52   H37   S    
C42   H10   S    
C32   H45   S    
C54   H42   S    
C51   C52   S    
C32   C35   A    
C1    O10   A    
C16   O12   A    
C44   H17   S    
H11   N7    S    
H7    N6    S    
C18   C62   A    
C57   H49   S    
C18   H3    S    
C29   O4    S    
C12   C21   S    
C8    C18   A    
C30   O3    S    
C28   N3    A    
C26   O5    S    
C5    C9    A    
C47   C48   S    
C15   H65   S    
C32   C41   A    
C30   N3    A    
C42   H8    S    
C50   C51   S    
C56   C63   A    
C19   H4    S    
C61   H63   S    
C49   H31   S    
C60   H58   S    
C25   N4    D    
C61   H62   S    
C60   N10   S    
C4    C17   S    
O1    Zn1   S    
C48   C49   S    
N4    Zn2   S    
C40   N1    S    
C20   C22   D    
C59   H54   S    
C7    C19   A    
C13   C15   A    
C55   H46   S    
C16   O14   A    
C9    C34   A    
C47   H26   S    
C22   C24   S    
C58   C59   S    
C28   O2    S    
C21   C24   D    
C17   O15   A    
C11   H66   S    
C27   O16   S    
C7    C9    A    
O12   Zn1   S    
C23   C64   A    
C50   H33   S    
C44   N8    S    
O10   Zn2   S    
C62   H1    S    
C55   H47   S    
C12   O9    A    
C1    C20   S    
C6    C10   A    
C5    C8    A    
C5    C11   A    
C6    C7    A    
C10   C23   A    
C43   H13   S    
N4    O8    S    
C50   O6    S    
N5    O7    S    
C50   H32   S    
C2    C30   A    
C55   H44   S    
C51   H36   S    
C36   C38   A    
C25   C26   S    
C37   C39   A    
C6    C13   A    
C38   C40   A    
C27   C45   A    
C57   C58   S    
C58   H51   S    
C3    C36   A    
H16   N8    S    
C43   N7    S    
C60   H57   S    
C2    C14   A    
C31   H56   S    
C4    C35   A    
C1    O1    A    
C53   H41   S    
C60   H59   S    
C4    C37   A    
C8    C10   A    
C48   H28   S    
C57   O8    S    
C58   H50   S    
C38   N10   S    
C63   H12   S    
C61   H61   S    
C49   H29   S    
C22   H6    S    
C3    C16   S    
C46   N9    S    
C46   H22   S    
