data_mof_unit_34232.cif
_audit_creation_date              2013-03-05T15:59:10-0500
_audit_creation_method            fapswitch 2.2
_symmetry_space_group_name_H-M    P1
_symmetry_Int_Tables_number       1
_space_group_crystal_system       triclinic
_cell_length_a                    12.638453
_cell_length_b                    13.123288
_cell_length_c                    15.922604
_cell_angle_alpha                 90.448585
_cell_angle_beta                  101.077104
_cell_angle_gamma                 82.219648
_cell_volume                      2567.38391725

loop_
_atom_site_label
_atom_site_type_symbol
_atom_site_description
_atom_site_fract_x
_atom_site_fract_y
_atom_site_fract_z
_atom_type_partial_charge
O1    O     O_R   0.366740 0.627160 0.478850 -0.629891
O2    O     O_R   0.544830 0.662520 0.507140 -0.588884
C1    C     C_R   0.439747 0.691694 0.483465 0.881229
O3    O     O_R   0.410920 0.482310 0.608710 -0.628526
O4    O     O_R   0.589010 0.517670 0.637000 -0.586994
C2    C     C_R   0.501682 0.493391 0.660661 0.885626
Zn1   Zn    Zn3+2 0.381090 0.476390 0.481110 0.949272
Zn2   Zn    Zn3+2 0.618910 0.523610 0.518890 0.956984
O5    O     O_R   0.455170 0.337480 0.492860 -0.613347
O6    O     O_R   0.633260 0.372840 0.521150 -0.608012
O7    O     O_R   0.410990 0.482330 0.363000 -0.586643
O8    O     O_R   0.589080 0.517690 0.391290 -0.577799
C3    C     C_R   0.560815 0.309982 0.519020 0.868777
C4    C     C_R   0.499883 0.501385 0.338340 0.926346
C5    C     C_3   0.388386 0.489885 0.933146 -0.278222
C6    C     C_3   0.563566 0.573399 0.946182 0.071433
C7    C     C_3   0.546699 0.600491 0.042945 0.308705
H1    H     H_    0.350180 0.568003 0.912300 0.178580
C8    C     C_1   0.501138 0.503174 0.248754 -0.248460
C9    C     C_3   0.508102 0.473769 0.914740 0.038966
C10   C     C_3   0.391063 0.481605 0.031775 -0.064039
C11   C     C_3   0.511024 0.496570 0.081709 0.045936
C12   C     C_3   0.593524 0.394371 0.066325 0.073777
C13   C     C_3   0.573670 0.372333 0.965108 -0.107473
C14   C     C_1   0.506077 0.503376 0.173896 -0.060086
C15   C     C_1   0.506374 0.466867 0.822744 0.016914
C16   C     C_1   0.505382 0.475664 0.748230 -0.177916
C17   C     C_R   0.738924 0.057495 0.537013 -0.009700
C18   C     C_R   0.599956 0.201498 0.541368 -0.219522
C19   C     C_R   0.294666 0.845652 0.437082 0.224168
C20   C     C_R   0.267967 0.953004 0.440253 -0.151206
C21   C     C_R   0.348285 0.015546 0.466246 -0.213308
C22   C     C_R   0.459611 0.974353 0.485234 0.057845
C23   C     C_R   0.487088 0.870198 0.468982 0.014769
C24   C     C_R   0.544494 0.035404 0.511269 0.009251
C25   C     C_R   0.654110 0.997112 0.504741 -0.047975
C26   C     C_R   0.673651 0.901313 0.465432 -0.108673
C27   C     C_R   0.590319 0.839127 0.446952 0.204922
C28   C     C_R   0.523546 0.135041 0.541619 -0.073599
C29   C     C_R   0.711126 0.161504 0.557173 0.166446
C30   C     C_R   0.405662 0.803245 0.462572 -0.207704
H2    H     H_    0.321790 0.097346 0.463214 0.148680
H3    H     H_    0.185200 0.990428 0.421661 0.154137
C31   C     C_R   0.080995 0.405309 0.344282 -0.313530
H4    H     H_    0.874985 0.407504 0.300457 0.179597
H5    H     H_    0.054007 0.364686 0.286334 0.171238
N1    N     N_R   0.222200 0.444690 0.455710 -0.158610
C32   C     C_R   0.801776 0.619502 0.610336 0.293662
C33   C     C_R   0.898177 0.664480 0.621825 0.077289
C34   C     C_R   0.969348 0.640955 0.565044 -0.056439
C35   C     C_R   0.953588 0.560355 0.506070 -0.076145
C36   C     C_R   0.850256 0.524429 0.490447 0.028079
C37   C     C_R   0.036371 0.510566 0.463416 -0.001942
C38   C     C_R   0.004324 0.459315 0.386656 0.039868
C39   C     C_R   0.896192 0.448632 0.359039 -0.268220
C40   C     C_R   0.826606 0.459698 0.417971 0.239828
C41   C     C_R   0.149139 0.499025 0.498300 0.256088
C42   C     C_R   0.191266 0.396619 0.381005 0.327762
N2    N     N_R   0.776960 0.554780 0.543830 -0.159716
C43   C     C_1   0.303549 0.558265 0.053712 0.202042
N3    N     N_1   0.233837 0.616902 0.070300 -0.204657
C44   C     C_1   0.313538 0.425038 0.881168 0.183120
N4    N     N_1   0.255159 0.373845 0.841745 -0.184303
C45   C     C_1   0.358637 0.382634 0.055474 0.212888
N5    N     N_1   0.332230 0.305607 0.072754 -0.198593
C46   C     C_1   0.707808 0.412013 0.100029 0.221998
N6    N     N_1   0.797523 0.423041 0.125930 -0.212249
N7    N     N_2   0.787165 0.218037 0.610591 -0.298935
H6    H     H_    0.756775 0.275568 0.647503 0.242429
C47   C     C_3   0.896291 0.222218 0.595938 -0.765492
H7    H     H_    0.913899 0.302999 0.600271 0.221042
H8    H     H_    0.906381 0.193842 0.531699 0.235588
H9    H     H_    0.956106 0.176042 0.646242 0.263667
C48   C     C_1   0.772634 0.871123 0.432767 0.157367
N8    N     N_1   0.850861 0.846296 0.405944 -0.220690
C49   C     C_1   0.852474 0.013259 0.552909 0.182271
N9    N     N_1   0.943464 0.978621 0.565016 -0.201500
C50   C     C_1   0.435883 0.165453 0.587642 0.189838
N10   N     N_1   0.366396 0.189904 0.624607 -0.205652
N11   N     N_2   0.214454 0.781147 0.401962 -0.283904
H10   H     H_    0.243414 0.721668 0.366218 0.241394
C51   C     C_3   0.106025 0.827427 0.361776 -0.753975
H11   H     H_    0.055296 0.765884 0.339965 0.249140
H12   H     H_    0.109621 0.875135 0.305310 0.227271
H13   H     H_    0.066384 0.874796 0.408032 0.268013
N12   N     N_2   0.602804 0.753945 0.392366 -0.262765
H14   H     H_    0.680297 0.716180 0.394226 0.244355
C52   C     C_3   0.538817 0.770799 0.307827 -0.854007
H15   H     H_    0.543056 0.696713 0.275338 0.257103
H16   H     H_    0.571000 0.829870 0.273959 0.242214
H17   H     H_    0.451739 0.796552 0.308475 0.249268
N13   N     N_2   0.272130 0.334912 0.344765 -0.262825
H18   H     H_    0.312318 0.273302 0.383090 0.229583
C53   C     C_3   0.250974 0.313178 0.254449 -0.766848
H19   H     H_    0.191825 0.257065 0.240400 0.225475
H20   H     H_    0.328228 0.278622 0.236218 0.251471
H21   H     H_    0.220165 0.385312 0.216294 0.260686
N14   N     N_2   0.186344 0.536042 0.580723 -0.314205
H22   H     H_    0.246017 0.582847 0.585823 0.274543
C54   C     C_3   0.192156 0.465639 0.651088 -0.715592
H23   H     H_    0.215880 0.505788 0.711919 0.233146
H24   H     H_    0.253140 0.397162 0.647649 0.270927
H25   H     H_    0.111394 0.440522 0.649946 0.234595
N15   N     N_2   0.725251 0.647439 0.663704 -0.247046
H26   H     H_    0.692320 0.723827 0.659933 0.219068
C55   C     C_3   0.755237 0.605344 0.750010 -0.678891
H27   H     H_    0.684039 0.621405 0.781522 0.243672
H28   H     H_    0.823246 0.640956 0.788019 0.241188
H29   H     H_    0.778771 0.520652 0.749152 0.246077
C56   C     C_1   0.046266 0.711936 0.559904 0.240841
N16   N     N_1   0.107644 0.769182 0.557353 -0.185265
N17   N     N_2   0.927449 0.727248 0.694146 -0.307006
H30   H     H_    0.009647 0.725137 0.717925 0.237821
C57   C     C_3   0.864105 0.827354 0.696680 -0.760236
H31   H     H_    0.918822 0.887531 0.706841 0.252706
H32   H     H_    0.821127 0.829240 0.751329 0.240205
H33   H     H_    0.803371 0.845492 0.636646 0.236245
N18   N     N_2   0.758264 0.382591 0.418705 -0.223318
H34   H     H_    0.789975 0.332320 0.468663 0.255167
C58   C     C_3   0.722151 0.327036 0.341581 -0.797606
H35   H     H_    0.652725 0.287222 0.350113 0.237380
H36   H     H_    0.788849 0.267952 0.329201 0.219288
H37   H     H_    0.694897 0.380437 0.285760 0.244570
C59   C     C_1   0.682356 0.549980 0.944568 0.136052
N19   N     N_1   0.774576 0.534206 0.943764 -0.182256
N20   N     N_2   0.529892 0.663290 0.886019 -0.316375
H38   H     H_    0.576419 0.722538 0.899633 0.211218
C60   C     C_3   0.421506 0.699241 0.836919 -0.798641
H39   H     H_    0.427269 0.762610 0.792883 0.241271
H40   H     H_    0.364419 0.730581 0.878442 0.240121
H41   H     H_    0.386265 0.639432 0.795840 0.244665
N21   N     N_2   0.460517 0.689717 0.037724 -0.297095
H42   H     H_    0.472760 0.749126 0.000703 0.240315
C61   C     C_3   0.432823 0.739369 0.113202 -0.777559
H43   H     H_    0.356809 0.794024 0.094227 0.243974
H44   H     H_    0.497198 0.785606 0.141154 0.241396
H45   H     H_    0.416046 0.685064 0.159492 0.266061
N22   N     N_2   0.650196 0.633645 0.087927 -0.302905
H46   H     H_    0.671701 0.694384 0.057026 0.217472
C62   C     C_3   0.695840 0.634300 0.178515 -0.739562
H47   H     H_    0.674089 0.710574 0.204449 0.234552
H48   H     H_    0.785868 0.624134 0.186488 0.245896
H49   H     H_    0.677509 0.571290 0.215733 0.256088
C63   C     C_1   0.511977 0.284040 0.942806 0.251259
N23   N     N_1   0.465160 0.214413 0.925355 -0.178411
C64   C     C_1   0.676481 0.335583 0.935009 0.152551
N24   N     N_1   0.756092 0.306078 0.911410 -0.183526
N25   N     N_2   0.576435 0.303504 0.114076 -0.300465
H50   H     H_    0.550817 0.316306 0.171259 0.237651
C65   C     C_3   0.654139 0.210036 0.119908 -0.764207
H51   H     H_    0.616141 0.144446 0.138713 0.243201
H52   H     H_    0.727344 0.217959 0.169426 0.232643
H53   H     H_    0.679645 0.191920 0.058120 0.250922

loop_
_geom_bond_atom_site_label_1
_geom_bond_atom_site_label_2
_geom_bond_distance
_ccdc_geom_bond_type
C5    H1    1.097267 S    
C35   C37   1.436604 A    
C39   C40   1.398361 A    
N20   H38   1.034160 S    
C24   C25   1.431295 A    
C62   H49   1.095864 S    
C26   C48   1.450893 S    
C60   H39   1.110707 S    
C61   H45   1.097858 S    
N15   C55   1.446500 S    
C57   H31   1.109472 S    
C37   C38   1.407445 A    
Zn1   O7    1.992222 S    
C15   C16   1.190468 T    
C44   N4    1.157315 T    
C20   H3    1.080392 S    
C27   N12   1.421153 S    
C12   C46   1.489490 S    
C3    C18   1.465530 S    
C25   C26   1.412903 A    
C62   H48   1.110039 S    
C64   N24   1.158016 T    
Zn2   N2    2.056438 S    
C19   C20   1.406365 A    
O7    C4    1.313774 A    
N12   C52   1.432747 S    
C55   H27   1.107411 S    
C17   C29   1.412863 A    
C32   N15   1.416614 S    
C34   C56   1.447886 S    
O5    C3    1.320853 A    
N18   H34   1.021148 S    
N15   H26   1.029630 S    
C10   C45   1.486091 S    
C56   N16   1.156786 T    
C20   C21   1.390751 A    
C31   H5    1.082812 S    
C6    C7    1.625663 S    
C11   C14   1.482638 S    
C12   C13   1.612753 S    
C19   C30   1.419762 A    
C47   H7    1.111280 S    
C58   H37   1.107467 S    
Zn2   O8    1.996797 S    
C19   N11   1.436702 S    
C55   H28   1.108109 S    
C46   N6    1.157778 T    
O1    Zn1   1.962266 S    
C10   C11   1.607581 S    
C7    N21   1.478437 S    
C6    N20   1.488455 S    
C23   C30   1.429862 A    
O3    Zn1   1.996797 S    
N17   C57   1.447489 S    
N17   H30   1.031790 S    
C58   H36   1.111378 S    
C34   C35   1.417703 A    
C11   C12   1.631042 S    
C5    C9    1.581973 S    
C48   N8    1.157106 T    
C35   C36   1.424680 A    
C28   C50   1.453086 S    
C9    C13   1.601428 S    
C62   H47   1.100307 S    
C10   C43   1.482942 S    
N11   C51   1.449142 S    
C31   C42   1.393572 A    
C37   C41   1.414699 A    
N12   H14   1.031200 S    
N7    H6    1.031626 S    
C61   H44   1.103865 S    
C53   H21   1.111361 S    
C65   H53   1.107147 S    
C54   H25   1.111164 S    
C43   N3    1.157952 T    
O1    C1    1.326100 A    
Zn1   N1    2.068978 S    
C24   C28   1.399601 A    
C26   C27   1.404156 A    
C36   N2    1.391627 A    
N1    C41   1.369566 A    
C2    C16   1.406249 S    
C52   H17   1.108653 S    
C6    C9    1.598296 S    
C18   C28   1.386647 A    
C47   H9    1.109576 S    
N13   C53   1.444764 S    
C22   C23   1.398694 A    
C49   N9    1.157973 T    
C53   H20   1.109139 S    
N13   H18   1.030288 S    
C17   C25   1.432807 A    
C7    N22   1.484084 S    
N22   C62   1.447330 S    
C33   N17   1.430164 S    
N25   C65   1.455420 S    
O3    C2    1.303797 A    
C32   C33   1.404870 A    
O8    C4    1.313274 A    
N14   H22   1.026528 S    
C51   H12   1.111138 S    
C65   H52   1.110364 S    
C17   C49   1.448353 S    
C60   H41   1.103137 S    
C58   H35   1.110123 S    
C32   N2    1.368064 A    
C54   H24   1.110195 S    
Zn1   O5    1.926310 S    
C38   C39   1.378644 A    
C1    C30   1.490347 S    
N20   C60   1.459283 S    
C23   C27   1.421647 A    
C40   N18   1.418029 S    
C4    C8    1.429997 S    
Zn2   O6    1.962267 S    
O2    Zn2   1.926309 S    
C52   H16   1.110582 S    
N11   H10   1.030962 S    
O6    C3    1.308448 A    
C60   H40   1.107037 S    
O4    Zn2   1.992225 S    
C57   H32   1.109263 S    
C61   H43   1.110840 S    
C51   H13   1.109139 S    
C12   N25   1.481136 S    
N14   C54   1.442401 S    
C7    C11   1.652493 S    
C63   N23   1.158212 T    
C21   C22   1.412952 A    
O2    C1    1.313281 A    
C6    C59   1.496269 S    
C13   C64   1.488830 S    
C45   N5    1.157545 T    
N1    C42   1.357226 A    
C50   N10   1.157584 T    
O4    C2    1.310901 A    
C9    C15   1.463047 S    
C13   C63   1.486071 S    
N21   C61   1.441889 S    
C41   N14   1.412163 S    
C18   C29   1.406911 A    
C54   H23   1.108530 S    
C22   C24   1.421712 A    
C5    C44   1.486652 S    
N21   H42   1.026728 S    
N25   H50   1.028686 S    
C53   H19   1.110558 S    
C8    C14   1.205520 T    
N18   C58   1.452103 S    
C57   H33   1.109841 S    
N22   H46   1.033193 S    
C31   C38   1.397954 A    
C5    C10   1.568595 S    
C52   H15   1.097460 S    
H4    C39   1.080948 S    
N7    C47   1.450496 S    
C33   C34   1.398117 A    
C29   N7    1.437530 S    
C21   H2    1.078924 S    
C65   H51   1.110135 S    
C47   H8    1.110149 S    
C51   H11   1.110948 S    
C42   N13   1.424237 S    
C36   C40   1.436505 A    
C59   N19   1.158369 T    
C55   H29   1.111645 S    
