data_mof_unit_19762.cif
_audit_creation_date              2012-12-10T19:48:37-0500
_audit_creation_method            fapswitch 2.2
_symmetry_space_group_name_H-M    P1
_symmetry_Int_Tables_number       1
_space_group_crystal_system       triclinic
_cell_length_a                    13.104801
_cell_length_b                    14.22971
_cell_length_c                    14.992393
_cell_angle_alpha                 88.446863
_cell_angle_beta                  90.128641
_cell_angle_gamma                 70.794078
_cell_volume                      2638.98532446

loop_
_atom_site_label
_atom_site_type_symbol
_atom_type_description
_atom_site_fract_x
_atom_site_fract_y
_atom_site_fract_z
_atom_type_partial_charge
C1    C     C_R   0.499107 0.499171 0.672668 0.913647
C2    C     C_R   0.987562 0.443802 0.535999 -0.126942
C3    C     C_R   0.876654 0.467608 0.551951 0.036287
C4    C     C_R   0.033650 0.519876 0.545364 0.108688
C5    C     C_R   0.977568 0.607605 0.590911 0.178831
C6    C     C_R   0.875320 0.618990 0.624853 -0.253696
C7    C     C_R   0.824776 0.549937 0.604795 -0.152925
C8    C     C_R   0.130494 0.513791 0.504513 -0.204622
C9    C     C_R   0.127172 0.669884 0.566762 -0.186982
C10   C     C_R   0.821424 0.408270 0.514298 -0.174271
C11   C     C_R   0.541855 0.415052 0.914163 -0.098957
C12   C     C_R   0.704026 0.444914 0.504326 0.925636
C13   C     C_R   0.529182 0.410389 0.821690 0.467941
C14   C     C_R   0.497759 0.499280 0.769584 -0.245226
C15   C     C_R   0.466643 0.591766 0.810291 -0.252916
C16   C     C_R   0.466242 0.597851 0.902394 0.037877
C17   C     C_R   0.504479 0.508822 0.953863 -0.062016
C18   C     C_R   0.581108 0.534780 0.097184 0.515569
C19   C     C_R   0.578712 0.530082 0.189945 -0.306382
C20   C     C_R   0.495339 0.506520 0.233002 -0.158314
C21   C     C_R   0.411291 0.488770 0.184977 -0.014955
C22   C     C_R   0.415283 0.491933 0.092413 -0.245256
C23   C     C_R   0.498297 0.501789 0.328304 0.866664
C24   C     C_R   0.500302 0.512780 0.049799 -0.076710
C25   C     C_R   0.580253 0.867838 0.549347 -0.252595
C26   C     C_R   0.575415 0.770486 0.549529 0.021742
C27   C     C_R   0.425065 0.821437 0.450623 0.114197
C28   C     C_R   0.423997 0.920721 0.453537 -0.243722
C29   C     C_R   0.503404 0.946087 0.500917 0.120457
C30   C     C_R   0.444970 0.124464 0.434632 -0.240057
C31   C     C_R   0.441992 0.223732 0.437471 -0.027680
C32   C     C_R   0.565675 0.184644 0.558999 0.610554
C33   C     C_R   0.565241 0.085246 0.561800 -0.398350
C34   C     C_R   0.295760 0.554574 0.501527 0.839996
C35   C     C_R   0.504840 0.052672 0.499014 0.076186
C36   C     C_R   0.024727 0.682261 0.601212 -0.206645
C37   C     C_R   0.180597 0.584430 0.519374 -0.079220
C38   C     C_R   0.879722 0.315591 0.479961 -0.436511
C39   C     C_R   0.992554 0.280306 0.485506 0.487176
C40   C     C_R   0.047163 0.344689 0.512315 0.387557
H1    H     H_    0.165934 0.724685 0.579873 0.161868
H2    H     H_    0.439578 0.659949 0.769895 0.221465
H3    H     H_    0.643087 0.541852 0.228755 0.153331
H4    H     H_    0.353157 0.477260 0.052756 0.197780
H5    H     H_    0.645032 0.879925 0.586817 0.132098
H6    H     H_    0.633202 0.713004 0.588967 0.130670
H7    H     H_    0.832668 0.683151 0.663415 0.139116
H8    H     H_    0.360436 0.977452 0.417965 0.190298
H9    H     H_    0.400433 0.105791 0.381265 0.167055
H10   H     H_    0.394045 0.277883 0.388768 0.163062
H11   H     H_    0.610866 0.035534 0.614064 0.152597
H12   H     H_    0.983456 0.748842 0.637265 0.139791
H13   H     H_    0.169396 0.452792 0.461504 0.204382
H14   H     H_    0.837699 0.269821 0.450511 0.187159
H15   H     H_    0.745703 0.560246 0.632038 0.154838
N1    N     N_R   0.500000 0.747530 0.500020 -0.137610
N2    N     N_R   0.499940 0.252470 0.500020 -0.141509
O1    O     O_R   0.499990 0.420530 0.630930 -0.540734
O2    O     O_R   0.499990 0.579480 0.630940 -0.638959
O3    O     O_R   0.653620 0.381060 0.499970 -0.598241
O4    O     O_R   0.653620 0.540010 0.499980 -0.620231
O5    O     O_R   0.500010 0.420520 0.369060 -0.628132
O6    O     O_R   0.500010 0.579470 0.369070 -0.639897
O7    O     O_R   0.346380 0.459990 0.500020 -0.615665
O8    O     O_R   0.346380 0.618940 0.500030 -0.648697
Zn1   Zn    Zn3+2 0.500000 0.393860 0.499990 0.986028
Zn2   Zn    Zn3+2 0.500000 0.606140 0.500010 0.925334
O9    O     O_3   0.546538 0.319217 0.783069 -0.532542
C41   C     C_3   0.453894 0.289940 0.796104 0.169904
H16   H     H_    0.398314 0.316161 0.737820 0.143187
H17   H     H_    0.407608 0.320016 0.857405 0.089761
C42   C     C_3   0.487549 0.176933 0.804663 -0.761757
H18   H     H_    0.416457 0.154359 0.821828 0.193286
H19   H     H_    0.521117 0.142846 0.741142 0.259047
H20   H     H_    0.549285 0.148234 0.858275 0.285744
C43   C     C_2   0.425660 0.697202 0.943788 0.422491
H21   H     H_    0.419700 0.703463 0.015633 0.067880
O10   O     O_2   0.397970 0.773849 0.897927 -0.577070
O11   O     O_3   0.665683 0.551428 0.051188 -0.602879
C44   C     C_3   0.680063 0.640919 0.077545 0.085083
H22   H     H_    0.731125 0.627134 0.138981 0.158612
H23   H     H_    0.601678 0.700745 0.089548 0.130926
C45   C     C_3   0.737673 0.678190 0.003689 -0.762505
H24   H     H_    0.688104 0.693082 0.941419 0.256852
H25   H     H_    0.750380 0.748138 0.023672 0.210365
H26   H     H_    0.817400 0.621501 0.990930 0.262622
C46   C     C_2   0.318767 0.469372 0.229978 0.411082
H27   H     H_    0.309037 0.475575 0.301592 0.053673
O12   O     O_2   0.251276 0.446778 0.187252 -0.562396
C47   C     C_2   0.345964 0.799067 0.391117 0.373841
H28   H     H_    0.349523 0.724189 0.379224 0.139583
O13   O     O_2   0.275626 0.865623 0.351559 -0.599966
O14   O     O_3   0.624499 0.217345 0.620489 -0.551357
C48   C     C_3   0.736123 0.161762 0.617964 0.081329
H29   H     H_    0.780785 0.214412 0.603689 0.167685
H30   H     H_    0.759481 0.104660 0.565426 0.095784
C49   C     C_3   0.773982 0.112166 0.708901 -0.783834
H31   H     H_    0.732140 0.057873 0.725849 0.236910
H32   H     H_    0.862426 0.072310 0.707886 0.195207
H33   H     H_    0.756594 0.169223 0.760945 0.316469
O15   O     O_3   0.157351 0.304740 0.527447 -0.597102
C50   C     C_3   0.175448 0.278936 0.619388 0.117100
H34   H     H_    0.112107 0.251622 0.649577 0.115773
H35   H     H_    0.178425 0.344621 0.656524 0.142031
C51   C     C_3   0.282508 0.195658 0.631738 -0.787784
H36   H     H_    0.349522 0.223804 0.614706 0.250611
H37   H     H_    0.292067 0.168268 0.702207 0.199757
H38   H     H_    0.285242 0.132869 0.588368 0.272327
O16   O     O_3   0.051939 0.184785 0.460974 -0.561177
C52   C     C_3   0.024327 0.114309 0.515520 0.072478
H39   H     H_    0.944782 0.109497 0.494646 0.131484
H40   H     H_    0.021745 0.132918 0.587483 0.120840
C53   C     C_3   0.108724 0.012336 0.505257 -0.727950
H41   H     H_    0.189677 0.014196 0.525190 0.248710
H42   H     H_    0.088265 0.956411 0.548227 0.188918
H43   H     H_    0.110619 0.990154 0.434746 0.296209
C54   C     C_2   0.594139 0.322453 0.969071 0.456723
H44   H     H_    0.581225 0.320272 0.040383 0.074137
O17   O     O_2   0.656049 0.248243 0.935734 -0.547354

loop_
_geom_bond_atom_site_label_1
_geom_bond_atom_site_label_2
_ccdc_geom_bond_type
C46   H27   S    
C21   C46   S    
O14   C48   S    
C34   C37   S    
C19   C20   A    
C7    H15   S    
N2    Zn1   S    
C4    C8    A    
C49   H31   S    
C51   H37   S    
O15   C50   S    
C30   C35   A    
C27   C47   S    
C18   C24   A    
C28   C29   A    
C43   O10   D    
C3    C7    A    
C1    O2    A    
C30   C31   A    
C50   H35   S    
C16   C17   A    
C15   C16   A    
C5    C36   A    
C50   C51   S    
C18   C19   A    
C41   H17   S    
C52   H39   S    
O2    Zn2   S    
C40   O15   S    
O1    Zn1   S    
C23   O5    A    
C11   C17   A    
O9    C41   S    
O8    Zn2   S    
C9    C36   A    
C36   H12   S    
C42   H18   S    
C53   H43   S    
C23   O6    A    
C32   O14   S    
O3    Zn1   S    
C13   C14   A    
C41   H16   S    
C1    O1    A    
C32   N2    A    
C42   H20   S    
C34   O8    A    
C34   O7    A    
C49   H32   S    
C19   H3    S    
C25   C29   A    
C38   C39   A    
C51   H38   S    
O6    Zn2   S    
C17   C24   S    
C6    H7    S    
O5    Zn1   S    
C50   H34   S    
C43   H21   S    
C44   H23   S    
C39   C40   A    
C27   N1    A    
C18   O11   S    
C48   C49   S    
C25   C26   A    
O7    Zn1   S    
C41   C42   S    
C2    C4    A    
O4    Zn2   S    
C47   O13   D    
C45   H24   S    
C38   H14   S    
C20   C23   S    
C39   O16   S    
C9    C37   A    
C48   H30   S    
C52   C53   S    
C10   C12   S    
C42   H19   S    
C45   H25   S    
C30   H9    S    
C46   O12   D    
C22   C24   A    
C8    C37   A    
C31   H10   S    
C11   C54   S    
C25   H5    S    
C49   H33   S    
C44   C45   S    
C53   H41   S    
C28   H8    S    
C22   H4    S    
C16   C43   S    
C15   H2    S    
C44   H22   S    
C26   N1    A    
C8    H13   S    
C6    C7    A    
C33   H11   S    
N1    Zn2   S    
C51   H36   S    
C29   C35   S    
C9    H1    S    
C10   C38   A    
C32   C33   A    
C31   N2    A    
C54   O17   D    
C2    C3    A    
C3    C10   A    
C54   H44   S    
C12   O4    A    
C11   C13   A    
C47   H28   S    
C5    C6    A    
C33   C35   A    
C48   H29   S    
C52   H40   S    
C26   H6    S    
O11   C44   S    
C12   O3    A    
C2    C40   A    
C4    C5    A    
C45   H26   S    
C20   C21   A    
O16   C52   S    
C27   C28   A    
C14   C15   A    
C1    C14   S    
C21   C22   A    
C53   H42   S    
C13   O9    S    
