data_mof_unit_16255.cif
_audit_creation_date              2012-12-11T16:17:58-0500
_audit_creation_method            fapswitch 2.2
_symmetry_space_group_name_H-M    P1
_symmetry_Int_Tables_number       1
_space_group_crystal_system       triclinic
_cell_length_a                    14.064484
_cell_length_b                    14.054209
_cell_length_c                    30.096752
_cell_angle_alpha                 97.269161
_cell_angle_beta                  97.217257
_cell_angle_gamma                 61.249654
_cell_volume                      5159.41127777

loop_
_atom_site_label
_atom_site_type_symbol
_atom_type_description
_atom_site_fract_x
_atom_site_fract_y
_atom_site_fract_z
_atom_type_partial_charge
C1    C     C_R   0.386148 0.709752 0.441916 0.544486
C2    C     C_R   0.419569 0.279165 0.221622 0.156110
C3    C     C_R   0.428790 0.285518 0.268669 -0.087642
C4    C     C_R   0.335973 0.343776 0.292747 0.016721
C5    C     C_R   0.316124 0.334524 0.198926 0.064903
C6    C     C_1   0.302867 0.322921 0.150855 -0.005685
C7    C     C_1   0.348487 0.353425 0.340776 -0.050987
C8    C     C_1   0.291337 0.304402 0.111067 0.012655
C9    C     C_R   0.761821 0.367118 0.399512 -0.006358
C10   C     C_R   0.768967 0.270926 0.376061 -0.136891
C11   C     C_R   0.790569 0.248167 0.331005 -0.155141
C12   C     C_R   0.398871 0.381011 0.426480 0.549123
C13   C     C_R   0.807317 0.320011 0.309157 0.060105
C14   C     C_R   0.811134 0.411116 0.333192 0.160357
C15   C     C_R   0.787057 0.434710 0.378321 -0.111764
C16   C     C_R   0.869205 0.372540 0.167088 -0.136521
C17   C     C_R   0.899586 0.370894 0.124897 0.050313
C18   C     C_R   0.847440 0.229092 0.097882 0.118830
C19   C     C_R   0.816501 0.232741 0.141375 0.159042
C20   C     C_R   0.832495 0.301780 0.175915 0.017822
C21   C     C_1   0.817756 0.300036 0.221836 0.015903
C22   C     C_1   0.812026 0.305287 0.261496 0.002090
C23   C     C_R   0.709325 0.405505 0.442202 0.544584
C24   C     C_R   0.894776 0.294509 0.090043 0.024355
C25   C     C_R   0.366944 0.763909 0.400469 -0.002600
C26   C     C_R   0.451333 0.774853 0.385051 -0.102241
C27   C     C_R   0.445419 0.798737 0.340873 0.104184
C28   C     C_R   0.354008 0.812728 0.311987 0.049886
C29   C     C_R   0.266021 0.810940 0.328153 -0.140252
C30   C     C_R   0.272137 0.787028 0.372247 -0.131308
C31   C     C_R   0.268067 0.813624 0.148826 0.154108
C32   C     C_R   0.246909 0.845930 0.104950 -0.083009
C33   C     C_R   0.382005 0.908735 0.119126 -0.141656
C34   C     C_R   0.389712 0.711580 0.568254 0.545578
C35   C     C_R   0.402774 0.877850 0.162852 -0.132801
C36   C     C_R   0.343555 0.834099 0.178258 0.042587
C37   C     C_1   0.350450 0.824660 0.225410 -0.003611
C38   C     C_1   0.352690 0.819944 0.265014 0.013433
C39   C     C_R   0.300366 0.897643 0.090491 -0.011250
C40   C     C_R   0.367685 0.364357 0.593715 0.042001
C41   C     C_R   0.432585 0.269571 0.617322 0.128488
C42   C     C_R   0.407342 0.265668 0.660323 -0.105814
C43   C     C_R   0.321343 0.355131 0.680479 0.011397
C44   C     C_R   0.253100 0.445674 0.656575 -0.123824
C45   C     C_R   0.403141 0.383417 0.552923 0.554075
C46   C     C_R   0.275301 0.449780 0.613248 -0.163312
C47   C     C_R   0.211750 0.415375 0.835771 0.115033
C48   C     C_R   0.206210 0.394207 0.879105 -0.089050
C49   C     C_R   0.391074 0.246217 0.878724 -0.110246
C50   C     C_R   0.397163 0.267871 0.835558 -0.114502
C51   C     C_R   0.306333 0.349231 0.813441 0.052228
C52   C     C_1   0.307912 0.355903 0.766647 0.030299
C53   C     C_1   0.311195 0.357198 0.727171 0.005214
C54   C     C_R   0.293796 0.306131 0.900048 -0.000106
C55   C     C_1   0.762497 0.376242 0.612439 -0.017978
C56   C     C_R   0.713130 0.407752 0.568504 0.543587
C57   C     C_R   0.731538 0.362397 0.724601 -0.113615
C58   C     C_R   0.753219 0.346303 0.770382 -0.124574
C59   C     C_R   0.946850 0.267883 0.761848 0.119599
C60   C     C_R   0.924503 0.284611 0.715992 -0.071306
C61   C     C_R   0.816962 0.332541 0.697431 0.013699
C62   C     C_R   0.860552 0.299807 0.789262 0.048706
C63   C     C_1   0.881714 0.289818 0.836917 -0.012600
C64   C     C_1   0.792225 0.354051 0.650804 -0.058651
C65   C     C_1   0.907480 0.281202 0.876481 0.017081
C66   C     C_1   0.375389 0.758953 0.613522 -0.009267
C67   C     C_1   0.366611 0.363855 0.380647 -0.006810
C68   C     C_R   0.291938 0.774298 0.720362 -0.109534
C69   C     C_R   0.282385 0.792350 0.766663 -0.123227
C70   C     C_R   0.394292 0.882609 0.773300 0.127852
C71   C     C_R   0.403508 0.864360 0.726815 -0.071148
C72   C     C_R   0.351870 0.810835 0.700301 0.014627
C73   C     C_R   0.333280 0.846459 0.793339 0.052199
C74   C     C_1   0.314516 0.872521 0.840311 0.000870
C75   C     C_1   0.364478 0.787222 0.652856 -0.052087
C76   C     C_1   0.293630 0.902293 0.878849 0.027850
C77   C     C_R   0.951818 0.273246 0.048772 0.567453
C78   C     C_R   0.233496 0.398381 0.270095 -0.125139
C79   C     C_R   0.275371 0.270320 0.065375 0.544891
C80   C     C_R   0.260847 0.954227 0.048884 0.538777
C81   C     C_R   0.952320 0.269010 0.922053 0.546605
C82   C     C_R   0.276215 0.266658 0.939673 0.549393
C83   C     C_R   0.261380 0.950942 0.922853 0.554849
C84   C     C_R   0.223605 0.393589 0.223254 -0.139946
Cr1   Cr    Cr6+3 0.581000 0.584320 0.508140 1.031941
Cr2   Cr    Cr6+3 0.339110 0.576430 0.496080 1.022607
Cr3   Cr    Cr6+3 0.579910 0.339270 0.495810 1.031454
Cr4   Cr    Cr6+3 0.082090 0.079210 0.982490 1.051075
Cr5   Cr    Cr6+3 0.082460 0.324610 0.994920 1.068582
Cr6   Cr    Cr6+3 0.323630 0.087860 0.996130 1.038738
H1    H     H_    0.161615 0.444943 0.288601 0.111400
H2    H     H_    0.788916 0.177377 0.312671 0.110613
H3    H     H_    0.185591 0.834571 0.082826 0.144509
H4    H     H_    0.194889 0.822535 0.305996 0.111757
H5    H     H_    0.205686 0.779607 0.383198 0.140357
H6    H     H_    0.524935 0.758119 0.406280 0.150619
H7    H     H_    0.460825 0.893755 0.185414 0.135305
H8    H     H_    0.424695 0.948200 0.108886 0.137547
H9    H     H_    0.143673 0.435023 0.205998 0.145915
H10   H     H_    0.130493 0.442136 0.894982 0.160343
H11   H     H_    0.185807 0.515099 0.672135 0.138611
H12   H     H_    0.223789 0.523195 0.596238 0.139691
H13   H     H_    0.470670 0.216991 0.818450 0.137317
H14   H     H_    0.459927 0.178374 0.894136 0.157228
H15   H     H_    0.459368 0.195181 0.679095 0.118357
H16   H     H_    0.647986 0.399441 0.710468 0.118058
H17   H     H_    0.686257 0.371448 0.791145 0.116687
H18   H     H_    0.990724 0.261277 0.695047 0.139411
H19   H     H_    0.252611 0.731734 0.700179 0.122769
H20   H     H_    0.234287 0.765150 0.781596 0.132456
H21   H     H_    0.450919 0.891681 0.711479 0.135498
H22   H     H_    0.508300 0.244436 0.286420 0.112132
H23   H     H_    0.878347 0.427306 0.194029 0.155962
H24   H     H_    0.782714 0.508645 0.396007 0.133273
H25   H     H_    0.750472 0.216865 0.391564 0.143020
O1    O     O_R   0.688580 0.499770 0.460490 -0.515170
O2    O     O_R   0.348600 0.476260 0.536540 -0.513988
O3    O     O_R   0.494840 0.313840 0.539010 -0.474460
O4    O     O_R   0.672120 0.351750 0.545910 -0.506409
O5    O     O_3   0.500010 0.500010 0.500010 -0.249073
O6    O     O_R   0.167510 0.972920 0.030390 -0.512511
O7    O     O_R   0.990840 0.178580 0.027590 -0.469973
O8    O     O_R   0.972840 0.345510 0.038590 -0.478081
O9    O     O_R   0.181550 0.320660 0.045200 -0.472914
O10   O     O_R   0.346150 0.177650 0.050510 -0.521965
O11   O     O_R   0.314200 0.996600 0.036060 -0.502896
O12   O     O_R   0.480400 0.672610 0.462660 -0.501914
O13   O     O_R   0.168690 0.969990 0.933130 -0.502481
O14   O     O_R   0.991920 0.175870 0.937430 -0.493254
O15   O     O_R   0.974010 0.342590 0.941330 -0.498250
O16   O     O_R   0.182630 0.317940 0.955040 -0.501459
O17   O     O_R   0.347320 0.174720 0.953250 -0.504246
O18   O     O_R   0.315290 0.993890 0.945900 -0.480484
O19   O     O_3   0.162730 0.163890 0.991180 -0.257692
O20   O     O_R   0.315310 0.685650 0.451800 -0.512815
O21   O     O_R   0.346220 0.474990 0.446280 -0.494609
O22   O     O_R   0.492270 0.312460 0.441630 -0.504360
O23   O     O_R   0.669740 0.350480 0.455640 -0.501302
O24   O     O_R   0.691150 0.501150 0.557860 -0.497474
O25   O     O_R   0.482790 0.673890 0.552920 -0.491401
O26   O     O_R   0.317880 0.687030 0.549170 -0.509573
N1    N     N_2   0.766510 0.170358 0.150199 -0.514774
H26   H     H_    0.714330 0.161232 0.124836 0.259526
C85   C     C_3   0.834496 0.073873 0.174090 -0.319635
H27   H     H_    0.853965 0.999998 0.150849 0.126812
H28   H     H_    0.789914 0.072282 0.201658 0.150509
H29   H     H_    0.911816 0.072028 0.188926 0.147419
N2    N     N_2   0.835881 0.156583 0.062645 -0.500489
H30   H     H_    0.844616 0.085150 0.072672 0.254139
C86   C     C_3   0.743177 0.208040 0.030886 -0.293477
H31   H     H_    0.743906 0.147045 0.003417 0.146208
H32   H     H_    0.666384 0.241717 0.047799 0.140344
H33   H     H_    0.746485 0.274502 0.015825 0.155888
N3    N     N_2   0.211133 0.763404 0.163093 -0.510896
H34   H     H_    0.251207 0.712924 0.188788 0.260404
C87   C     C_3   0.098146 0.836511 0.170404 -0.311787
H35   H     H_    0.059230 0.789661 0.179300 0.155430
H36   H     H_    0.053947 0.877656 0.139455 0.154157
H37   H     H_    0.091723 0.898464 0.198429 0.133470
I1    I     I_    0.580058 0.803895 0.318619 -0.444037
I2    I     I_    0.071663 0.540807 0.804217 -0.365813
N4    N     N_2   0.526536 0.180383 0.599404 -0.489667
H38   H     H_    0.528241 0.106586 0.600732 0.247230
C88   C     C_3   0.627930 0.177658 0.617873 -0.271294
H39   H     H_    0.643161 0.160702 0.653888 0.124412
H40   H     H_    0.625983 0.256488 0.614700 0.176694
H41   H     H_    0.695926 0.112414 0.599198 0.149672
N5    N     N_2   0.514238 0.217786 0.197429 -0.510190
H42   H     H_    0.582596 0.219708 0.213546 0.259464
C89   C     C_3   0.534946 0.107864 0.182710 -0.304878
H43   H     H_    0.552666 0.060029 0.212195 0.147150
H44   H     H_    0.606244 0.067928 0.162087 0.148488
H45   H     H_    0.463951 0.108023 0.161799 0.160141
I3    I     I_    0.111972 0.195894 0.787895 -0.354877
I4    I     I_    0.472935 0.965870 0.811375 -0.386940
I5    I     I_    0.960409 0.482915 0.121804 -0.390707
N6    N     N_2   0.830776 0.483554 0.311331 -0.499798
H46   H     H_    0.796711 0.562230 0.325859 0.276163
C90   C     C_3   0.943303 0.443380 0.302847 -0.306865
H47   H     H_    0.993920 0.434035 0.335109 0.140063
H48   H     H_    0.949881 0.502156 0.283636 0.149740
H49   H     H_    0.974995 0.363887 0.282681 0.156625

loop_
_geom_bond_atom_site_label_1
_geom_bond_atom_site_label_2
_ccdc_geom_bond_type
C45   O3    A    
C58   C62   A    
C55   C56   S    
C63   C65   T    
C34   O26   A    
C40   C41   A    
Cr1   O5    S    
C41   C42   A    
C23   O23   A    
C35   C36   A    
C83   O13   A    
C59   I3    S    
C16   H23   S    
C34   C66   S    
C49   H14   S    
C57   C58   A    
C40   C46   A    
C46   H12   S    
C26   C27   A    
C29   C30   A    
C74   C76   T    
C18   C24   A    
C28   C29   A    
C58   H17   S    
N2    C86   S    
C18   C19   A    
C18   N2    S    
C4    C7    S    
C29   H4    S    
Cr6   O19   S    
C89   H43   S    
C45   O2    A    
C49   C54   A    
C30   H5    S    
C33   H8    S    
C73   C74   S    
C32   C39   A    
C34   O25   A    
C77   O7    A    
C23   O1    A    
C81   O14   A    
C11   H2    S    
C43   C53   S    
C47   C48   A    
C16   C17   A    
N6    C90   S    
C86   H33   S    
C71   H21   S    
C8    C79   S    
C69   C73   A    
C70   C71   A    
C13   C14   A    
C70   I4    S    
Cr1   O24   S    
N3    C87   S    
C60   H18   S    
C17   I5    S    
C68   C72   A    
C90   H49   S    
Cr6   O17   S    
N5    C89   S    
C57   H16   S    
C79   O10   A    
C50   H13   S    
C41   N4    S    
C1    C25   S    
Cr4   O14   S    
Cr3   O22   S    
C85   H29   S    
C76   C83   S    
C56   O24   A    
C44   C46   A    
N4    C88   S    
C80   O6    A    
Cr1   O1    S    
C26   H6    S    
C40   C45   S    
C48   H10   S    
C12   C67   S    
C17   C24   A    
C51   C52   S    
N2    H30   S    
Cr3   O3    S    
Cr4   O7    S    
C5    C84   A    
C68   C69   A    
C47   C51   A    
Cr5   O8    S    
C25   C26   A    
C70   C73   A    
Cr5   O15   S    
C60   C61   A    
C87   H35   S    
C61   C64   S    
C48   C54   A    
C43   C44   A    
Cr3   O4    S    
C37   C38   T    
C77   O8    A    
C69   H20   S    
C24   C77   S    
C65   C81   S    
C31   C32   A    
C28   C38   S    
C3    H22   S    
C16   C20   A    
C55   C64   T    
C62   C63   S    
C50   C51   A    
Cr6   O11   S    
C15   H24   S    
C33   C39   A    
Cr1   O25   S    
N3    H34   S    
C85   H28   S    
N5    H42   S    
C49   C50   A    
C19   N1    S    
C56   O4    A    
C86   H32   S    
Cr1   O12   S    
C2    C5    A    
C42   C43   A    
Cr3   O23   S    
C82   O17   A    
C3    C4    A    
C2    N5    S    
C54   C82   S    
C31   N3    S    
C52   C53   T    
N4    H38   S    
C9    C10   A    
Cr2   O21   S    
C25   C30   A    
Cr6   O18   S    
C88   H39   S    
C59   C62   A    
Cr5   O19   S    
C14   C15   A    
C84   H9    S    
C12   O22   A    
C87   H37   S    
C9    C23   S    
C1    O12   A    
Cr4   O6    S    
C6    C8    T    
C44   H11   S    
C57   C61   A    
Cr5   O9    S    
C78   H1    S    
C4    C78   A    
C79   O9    A    
Cr5   O16   S    
C85   H27   S    
C39   C80   S    
C19   C20   A    
C88   H40   S    
C2    C3    A    
C27   I1    S    
Cr4   O19   S    
Cr3   O5    S    
Cr4   O13   S    
C35   H7    S    
C11   C13   A    
C72   C75   S    
C81   O15   A    
C5    C6    S    
C80   O11   A    
C66   C75   T    
C87   H36   S    
C33   C35   A    
Cr6   O10   S    
C13   C22   S    
C32   H3    S    
Cr2   O2    S    
N1    C85   S    
C68   H19   S    
C88   H41   S    
C9    C15   A    
C42   H15   S    
C83   O18   A    
C14   N6    S    
C10   C11   A    
C7    C67   T    
C90   H47   S    
C47   I2    S    
C78   C84   A    
Cr2   O20   S    
C59   C60   A    
C71   C72   A    
C20   C21   S    
C36   C37   S    
N6    H46   S    
C12   O21   A    
C1    O20   A    
C27   C28   A    
N1    H26   S    
C31   C36   A    
Cr2   O5    S    
C89   H44   S    
C82   O16   A    
C21   C22   T    
C10   H25   S    
Cr2   O26   S    
C86   H31   S    
C90   H48   S    
C89   H45   S    
