data_mof_unit_39689.cif
_audit_creation_date              2012-12-10T19:42:12-0500
_audit_creation_method            fapswitch 2.2
_symmetry_space_group_name_H-M    P1
_symmetry_Int_Tables_number       1
_space_group_crystal_system       triclinic
_cell_length_a                    10.791139
_cell_length_b                    10.929919
_cell_length_c                    9.745118
_cell_angle_alpha                 90.138262
_cell_angle_beta                  90.467685
_cell_angle_gamma                 90.328645
_cell_volume                      1149.33969263

loop_
_atom_site_label
_atom_site_type_symbol
_atom_type_description
_atom_site_fract_x
_atom_site_fract_y
_atom_site_fract_z
_atom_type_partial_charge
C1    C     C_R   0.500730 0.265640 0.500135 0.853881
C2    C     C_R   0.243292 0.836225 0.145787 -0.150855
C3    C     C_R   0.933296 0.571800 0.407898 -0.204912
C4    C     C_R   0.871715 0.495650 0.500840 -0.082911
C5    C     C_R   0.939172 0.422725 0.594301 0.025242
C6    C     C_R   0.067781 0.427312 0.591787 -0.183342
C7    C     C_R   0.128949 0.503226 0.499013 -0.060322
C8    C     C_R   0.061941 0.577969 0.407794 0.036470
C9    C     C_R   0.893544 0.354188 0.835471 0.186263
C10   C     C_R   0.834886 0.272227 0.925600 -0.175798
C11   C     C_R   0.765119 0.173027 0.874504 0.218270
C12   C     C_R   0.262728 0.502116 0.499546 0.803447
C13   C     C_R   0.755171 0.155412 0.732637 -0.102497
C14   C     C_R   0.810174 0.237911 0.642160 -0.225827
C15   C     C_R   0.878966 0.337974 0.692354 0.103241
C16   C     C_2   0.539219 0.934023 0.390335 0.172869
C17   C     C_2   0.501541 0.866953 0.499019 -0.296360
C18   C     C_2   0.527388 0.068365 0.390134 -0.211583
C19   C     C_2   0.505602 0.133824 0.503418 -0.352771
C20   C     C_2   0.435511 0.425278 0.923274 -0.084237
C21   C     C_2   0.453752 0.411639 0.075791 0.250081
C22   C     C_R   0.502635 0.734507 0.499717 0.874490
C23   C     C_R   0.737516 0.497567 0.500463 0.784995
C24   C     C_R   0.227009 0.864065 0.284397 -0.167124
C25   C     C_R   0.167362 0.781115 0.371149 0.151382
C26   C     C_R   0.123761 0.668518 0.318354 0.026935
C27   C     C_R   0.139896 0.641345 0.178922 -0.147192
C28   C     C_R   0.199278 0.724680 0.091962 0.204521
Cu1   Cu    Cu3+1 0.500020 0.500020 0.638630 1.002361
Cu2   Cu    Cu3+1 0.499980 0.499980 0.361370 0.983800
H1    H     H_    0.289498 0.901936 0.080500 0.137252
H2    H     H_    0.704894 0.077104 0.692447 0.149298
H3    H     H_    0.800474 0.222941 0.532648 0.134096
H4    H     H_    0.463720 0.907619 0.590563 0.135778
H5    H     H_    0.541582 0.115210 0.293385 0.173981
H6    H     H_    0.497616 0.093116 0.603865 0.145826
H7    H     H_    0.369025 0.364674 0.873368 0.127942
H8    H     H_    0.260421 0.950758 0.324353 0.168829
H9    H     H_    0.490634 0.585288 0.113603 0.218411
H10   H     H_    0.107576 0.554590 0.138340 0.138250
H11   H     H_    0.880915 0.629938 0.338746 0.160108
H12   H     H_    0.120626 0.369578 0.660972 0.157925
H13   H     H_    0.844481 0.285016 0.035438 0.129873
N1    N     N_2   0.498640 0.498660 0.846910 -0.101552
N2    N     N_2   0.498610 0.498630 0.153040 -0.254823
O1    O     O_R   0.500020 0.321960 0.617040 -0.589522
O2    O     O_R   0.499980 0.321920 0.382900 -0.541608
O3    O     O_R   0.319660 0.500030 0.617070 -0.576155
O4    O     O_R   0.319620 0.499990 0.382930 -0.575358
O5    O     O_R   0.500020 0.678080 0.617100 -0.555163
O6    O     O_R   0.499980 0.678040 0.382960 -0.550805
O7    O     O_R   0.680380 0.500010 0.617070 -0.541704
O8    O     O_R   0.680340 0.499970 0.382930 -0.578871
N3    N     N_3   0.705988 0.087963 0.965164 -0.584615
H14   H     H_    0.722438 0.113018 0.067364 0.203901
H15   H     H_    0.610388 0.094682 0.948882 0.200768
N4    N     N_3   0.590747 0.875383 0.271199 -0.538688
H16   H     H_    0.603509 0.938567 0.192216 0.214768
H17   H     H_    0.678813 0.843733 0.298516 0.224059
I1    I     I_    0.656960 0.595235 0.913791 -0.311454
N5    N     N_3   0.412801 0.299842 0.136593 -0.523552
H18   H     H_    0.458582 0.228023 0.087852 0.179039
H19   H     H_    0.318060 0.289921 0.115907 0.193013
I2    I     I_    0.143309 0.831922 0.579453 -0.415907
N6    N     N_3   0.212143 0.695502 0.949198 -0.544549
H20   H     H_    0.268509 0.618455 0.942361 0.223022
H21   H     H_    0.258701 0.766125 0.898542 0.240087
N7    N     N_3   0.968995 0.452642 0.888375 -0.583807
H22   H     H_    0.965739 0.453917 0.995468 0.210865
H23   H     H_    0.930572 0.535079 0.855251 0.268527

loop_
_geom_bond_atom_site_label_1
_geom_bond_atom_site_label_2
_ccdc_geom_bond_type
C26   C27   A    
C24   H8    S    
Cu2   O6    S    
C10   H13   S    
Cu1   Cu2   S    
C8    C26   S    
C9    C10   A    
C27   H10   S    
C13   H2    S    
C21   N5    S    
C17   C22   S    
C12   O3    A    
Cu1   O1    S    
C22   O5    A    
C10   C11   A    
C14   H3    S    
C12   O4    A    
C23   O7    A    
C9    N7    S    
C7    C8    A    
C13   C14   A    
C24   C25   A    
C20   H7    S    
C11   C13   A    
C22   O6    A    
N4    H16   S    
C6    C7    A    
C11   N3    S    
Cu1   O5    S    
N1    I1    S    
C5    C6    A    
C16   C18   S    
C25   I2    S    
C20   N1    D    
Cu2   O4    S    
C23   O8    A    
C21   N2    D    
C16   N4    S    
Cu1   N1    S    
C2    C24   A    
N5    H18   S    
C7    C12   S    
Cu2   O8    S    
N3    H15   S    
C1    O1    A    
C5    C15   S    
N4    H17   S    
C1    C19   S    
C17   H4    S    
C28   N6    S    
Cu1   O3    S    
C3    C4    A    
Cu2   O2    S    
C4    C5    A    
C18   C19   D    
C20   C21   S    
C3    C8    A    
N7    H23   S    
N6    H20   S    
C18   H5    S    
C27   C28   A    
N5    H19   S    
C4    C23   S    
N3    H14   S    
C2    H1    S    
C2    C28   A    
Cu2   N2    S    
C25   C26   A    
C14   C15   A    
C6    H12   S    
H9    N2    S    
N7    H22   S    
C19   H6    S    
C3    H11   S    
C9    C15   A    
C1    O2    A    
C16   C17   D    
N6    H21   S    
Cu1   O7    S    
