data_mof_unit_60864.cif
_audit_creation_date              2012-12-10T17:58:21-0500
_audit_creation_method            fapswitch 2.2
_symmetry_space_group_name_H-M    P1
_symmetry_Int_Tables_number       1
_space_group_crystal_system       triclinic
_cell_length_a                    21.761736
_cell_length_b                    21.748122
_cell_length_c                    22.192681
_cell_angle_alpha                 119.166881
_cell_angle_beta                  119.457815
_cell_angle_gamma                 89.948002
_cell_volume                      7581.80755688

loop_
_atom_site_label
_atom_site_type_symbol
_atom_type_description
_atom_site_fract_x
_atom_site_fract_y
_atom_site_fract_z
_atom_type_partial_charge
C1    C     C_R   0.500126 0.118722 0.500224 0.795701
C2    C     C_3   0.706544 0.270556 0.048942 -0.001992
C3    C     C_3   0.790989 0.289519 0.083015 0.251711
C4    C     C_3   0.810351 0.215565 0.049966 -0.067540
C5    C     C_3   0.762968 0.167567 0.951966 -0.041377
C6    C     C_1   0.837688 0.337137 0.175311 -0.045164
C7    C     C_1   0.662686 0.161510 0.824781 -0.044550
C8    C     C_1   0.624940 0.124304 0.749451 -0.170981
C9    C     C_R   0.437031 0.195346 0.452360 0.128694
C10   C     C_R   0.501389 0.185861 0.501980 -0.087908
C11   C     C_R   0.568549 0.244053 0.553535 -0.211944
C12   C     C_R   0.579965 0.079839 0.659812 0.812364
C13   C     C_R   0.568488 0.309234 0.554179 -0.199200
C14   C     C_R   0.501696 0.315506 0.501095 -0.087851
C15   C     C_R   0.437452 0.256468 0.450607 0.121943
C16   C     C_3   0.355916 0.229523 0.387077 -0.484306
C17   C     C_3   0.355531 0.159287 0.388391 -0.473234
C18   C     C_3   0.229379 0.724913 0.048406 -0.378990
C19   C     C_3   0.341109 0.760216 0.048602 0.026414
C20   C     C_3   0.291907 0.710854 0.951056 -0.422033
C21   C     C_1   0.125413 0.624500 0.749666 -0.175187
C22   C     C_3   0.292230 0.790575 0.082628 0.316661
C23   C     C_R   0.501196 0.882210 0.502032 0.811912
C24   C     C_3   0.182312 0.675479 0.951525 -0.382768
C25   C     C_3   0.209690 0.708059 0.917289 0.302948
C26   C     C_3   0.206091 0.788479 0.951149 -0.374969
C27   C     C_3   0.254649 0.836983 0.048135 -0.448450
C28   C     C_1   0.163327 0.662080 0.825070 -0.098321
C29   C     C_1   0.337721 0.837120 0.174937 -0.066436
C30   C     C_1   0.375128 0.875035 0.250341 -0.166486
C31   C     C_R   0.435544 0.758215 0.450864 0.041239
C32   C     C_R   0.502162 0.815120 0.501527 -0.100959
C33   C     C_R   0.569553 0.803735 0.546078 0.152807
C34   C     C_R   0.420020 0.920068 0.340119 0.820311
C35   C     C_R   0.566973 0.738351 0.544523 -0.248993
C36   C     C_R   0.498619 0.684345 0.497970 -0.127790
C37   C     C_R   0.433210 0.692305 0.446163 0.102415
C38   C     C_3   0.361214 0.688096 0.440551 -0.134210
C39   C     C_3   0.365955 0.761599 0.448013 -0.475543
C40   C     C_R   0.881595 0.500142 0.500408 0.816729
C41   C     C_R   0.920256 0.420196 0.340192 0.818160
C42   C     C_R   0.118570 0.499950 0.500005 0.789013
C43   C     C_R   0.080276 0.579839 0.659897 0.817101
C44   C     C_R   0.618844 0.500198 0.500163 0.850002
C45   C     C_3   0.657993 0.217547 0.950519 -0.042991
C46   C     C_R   0.500264 0.381252 0.500220 0.825863
C47   C     C_R   0.380888 0.499068 0.499749 0.802499
C48   C     C_R   0.497612 0.618734 0.499596 0.807034
C49   C     C_R   0.769028 0.538318 0.477414 0.132430
C50   C     C_R   0.815718 0.499898 0.501772 -0.133146
C51   C     C_R   0.795889 0.459315 0.527077 -0.241666
C52   C     C_R   0.731008 0.458919 0.527618 0.140248
C53   C     C_R   0.685125 0.498488 0.500828 -0.089644
C54   C     C_R   0.706386 0.536780 0.475949 0.056605
C55   C     C_3   0.685452 0.585404 0.444625 -0.485646
C56   C     C_3   0.754596 0.284504 0.951872 -0.404260
C57   C     C_3   0.756787 0.586811 0.445637 -0.429795
C58   C     C_R   0.251826 0.545600 0.567389 0.021065
C59   C     C_R   0.182481 0.497836 0.496128 -0.100086
C60   C     C_R   0.177924 0.446965 0.421744 0.078339
C61   C     C_R   0.243982 0.446925 0.423808 -0.242384
C62   C     C_R   0.313635 0.497072 0.498247 -0.128649
C63   C     C_R   0.314413 0.545046 0.568698 0.073913
C64   C     C_3   0.363667 0.606515 0.658843 -0.415484
C65   C     C_3   0.292153 0.606616 0.657746 -0.062478
C66   C     C_3   0.806742 0.330253 0.048373 -0.447978
C67   C     C_1   0.875461 0.375456 0.250604 -0.181600
C68   C     C_3   0.708674 0.206963 0.917144 0.217168
Cu1   Cu    Cu3+1 0.438190 0.000000 0.500020 0.942287
Cu2   Cu    Cu3+1 0.561810 0.000000 0.499980 0.968038
Cu3   Cu    Cu3+1 0.000200 0.561800 0.500000 0.938273
Cu4   Cu    Cu3+1 0.000170 0.438200 0.500000 0.940859
Cu5   Cu    Cu3+1 0.541330 0.541310 0.582630 0.934100
Cu6   Cu    Cu3+1 0.458770 0.458690 0.417370 0.931715
H1    H     H_    0.633531 0.162169 0.933821 0.129414
H2    H     H_    0.696825 0.239290 0.072628 0.159081
H3    H     H_    0.870630 0.230121 0.074720 0.162130
H4    H     H_    0.620403 0.239604 0.593787 0.153824
H5    H     H_    0.620281 0.353785 0.594764 0.157418
H6    H     H_    0.326371 0.263668 0.412728 0.192651
H7    H     H_    0.342591 0.219357 0.327162 0.206151
H8    H     H_    0.325309 0.152610 0.414244 0.206159
H9    H     H_    0.342463 0.108688 0.329405 0.192490
H10   H     H_    0.186248 0.618391 0.929935 0.162175
H11   H     H_    0.252783 0.690985 0.073512 0.166306
H12   H     H_    0.382040 0.808686 0.069293 0.139962
H13   H     H_    0.295592 0.653519 0.926713 0.163510
H14   H     H_    0.312942 0.734115 0.927343 0.154526
H15   H     H_    0.219317 0.859976 0.071163 0.175071
H16   H     H_    0.297689 0.884950 0.071118 0.162903
H17   H     H_    0.147528 0.788013 0.927920 0.169633
H18   H     H_    0.192648 0.746727 0.069682 0.160967
H19   H     H_    0.122820 0.671307 0.926878 0.164472
H20   H     H_    0.787772 0.279168 0.925303 0.165809
H21   H     H_    0.225840 0.813349 0.927792 0.168223
H22   H     H_    0.618035 0.730236 0.580990 0.144179
H23   H     H_    0.366319 0.692408 0.495021 0.153404
H24   H     H_    0.321919 0.759045 0.391701 0.194329
H25   H     H_    0.376108 0.808149 0.507803 0.194438
H26   H     H_    0.830831 0.428683 0.547018 0.162487
H27   H     H_    0.633485 0.555824 0.380855 0.208968
H28   H     H_    0.717223 0.315337 0.932484 0.175540
H29   H     H_    0.687568 0.639870 0.491333 0.195430
H30   H     H_    0.745969 0.557809 0.382392 0.198437
H31   H     H_    0.799925 0.642229 0.492598 0.200386
H32   H     H_    0.240612 0.408035 0.367183 0.164528
H33   H     H_    0.402417 0.587579 0.697014 0.176738
H34   H     H_    0.390085 0.657033 0.668400 0.196915
H35   H     H_    0.289656 0.589331 0.696338 0.154844
H36   H     H_    0.800337 0.386348 0.075157 0.185603
H37   H     H_    0.865528 0.339021 0.067586 0.163511
H38   H     H_    0.728111 0.113392 0.928108 0.160497
O1    O     O_R   0.447800 0.090170 0.500010 -0.585259
O2    O     O_R   0.909990 0.447840 0.500030 -0.588943
O3    O     O_R   0.939920 0.491910 0.379430 -0.579334
O4    O     O_R   0.939890 0.387530 0.379440 -0.580634
O5    O     O_R   0.090380 0.552160 0.499970 -0.593004
O6    O     O_R   0.090350 0.447780 0.499980 -0.587102
O7    O     O_R   0.060480 0.612470 0.620560 -0.585485
O8    O     O_R   0.060450 0.508090 0.620570 -0.582669
O9    O     O_R   0.625130 0.534920 0.569820 -0.596291
O10   O     O_R   0.555400 0.465140 0.430260 -0.579337
O11   O     O_R   0.534920 0.444720 0.569790 -0.591091
O12   O     O_R   0.552190 0.090170 0.499980 -0.587413
O13   O     O_R   0.465190 0.374940 0.430230 -0.582645
O14   O     O_R   0.444700 0.534860 0.569740 -0.584463
O15   O     O_R   0.374970 0.465080 0.430180 -0.608415
O16   O     O_R   0.534910 0.625060 0.569770 -0.587345
O17   O     O_R   0.465180 0.555280 0.430210 -0.601421
O18   O     O_R   0.508090 0.060280 0.620580 -0.574711
O19   O     O_R   0.612480 0.060280 0.620550 -0.585848
O20   O     O_R   0.447810 0.909830 0.500020 -0.595820
O21   O     O_R   0.552200 0.909830 0.499990 -0.553302
O22   O     O_R   0.387520 0.939720 0.379450 -0.587452
O23   O     O_R   0.491910 0.939720 0.379420 -0.573566
O24   O     O_R   0.910020 0.552220 0.500020 -0.585304
N1    N     N_3   0.686783 0.338452 0.082623 -0.596035
H39   H     H_    0.633214 0.324511 0.068189 0.215264
H40   H     H_    0.688303 0.368178 0.057784 0.227439
N2    N     N_3   0.594520 0.239179 0.908223 -0.586191
H41   H     H_    0.558535 0.238610 0.926425 0.217381
H42   H     H_    0.611421 0.291975 0.922443 0.224951
N3    N     N_3   0.383343 0.719962 0.083057 -0.592101
H43   H     H_    0.347917 0.668427 0.055392 0.223579
H44   H     H_    0.421925 0.709405 0.067159 0.216242
N4    N     N_3   0.639565 0.860134 0.596499 -0.559126
H45   H     H_    0.641348 0.905111 0.646647 0.203486
H46   H     H_    0.683604 0.841474 0.622028 0.209874
C69   C     C_3   0.292886 0.625230 0.355190 -0.385645
C70   C     C_3   0.284023 0.551847 0.348151 -0.322194
C71   C     C_3   0.209916 0.494007 0.269170 -0.868759
H47   H     H_    0.162998 0.512296 0.271470 0.251726
H48   H     H_    0.205057 0.485056 0.213059 0.251773
H49   H     H_    0.206326 0.440539 0.263946 0.240925
H50   H     H_    0.329342 0.530202 0.345716 0.257314
H51   H     H_    0.286715 0.560836 0.403232 0.218291
H52   H     H_    0.242578 0.641881 0.347898 0.209072
H53   H     H_    0.296350 0.617426 0.303629 0.206568
N5    N     N_3   0.710816 0.417480 0.553069 -0.599705
H54   H     H_    0.717856 0.455626 0.609895 0.217170
H55   H     H_    0.747188 0.387116 0.564661 0.213149
C72   C     C_3   0.104597 0.394060 0.339741 -0.400814
C73   C     C_3   0.093710 0.315431 0.320281 -0.320283
C74   C     C_3   0.019115 0.262061 0.238516 -0.864626
H56   H     H_    0.972856 0.279779 0.242977 0.255942
H57   H     H_    0.015679 0.260255 0.186023 0.248673
H58   H     H_    0.013043 0.205444 0.225470 0.243602
H59   H     H_    0.138984 0.295167 0.315288 0.211540
H60   H     H_    0.095759 0.315939 0.371587 0.233791
H61   H     H_    0.057353 0.412571 0.340715 0.188370
H62   H     H_    0.103473 0.393890 0.289004 0.190598
N6    N     N_3   0.273267 0.674876 0.671780 -0.570713
H63   H     H_    0.269082 0.684313 0.628118 0.234531
H64   H     H_    0.220704 0.667039 0.661383 0.233266
N7    N     N_3   0.812184 0.150503 0.922559 -0.610529
H65   H     H_    0.780610 0.117050 0.857361 0.227752
H66   H     H_    0.846732 0.199059 0.942738 0.224409
N8    N     N_3   0.797529 0.172820 0.079712 -0.627629
H67   H     H_    0.812714 0.125016 0.057291 0.231886
H68   H     H_    0.834026 0.203047 0.144674 0.225954

loop_
_geom_bond_atom_site_label_1
_geom_bond_atom_site_label_2
_ccdc_geom_bond_type
C57   H31   S    
C13   H5    S    
Cu1   O22   S    
C22   C29   S    
C55   H29   S    
Cu5   Cu6   S    
C46   O13   A    
C35   C36   A    
C70   H50   S    
C3    C6    S    
C47   C62   S    
C45   C68   S    
N8    H67   S    
C7    C8    T    
C14   C46   S    
C53   C54   A    
C52   C53   A    
C25   C28   S    
C56   H20   S    
C40   O24   A    
Cu1   O1    S    
C26   C27   S    
C29   C30   T    
C12   O18   A    
C64   H33   S    
C18   C24   S    
C74   H56   S    
C12   O19   A    
N2    H42   S    
C72   C73   S    
C38   H23   S    
N5    H54   S    
C38   C39   S    
C56   C66   S    
Cu6   O13   S    
C20   C25   S    
C34   O22   A    
Cu5   O14   S    
N3    H43   S    
C20   H13   S    
Cu4   O2    S    
C44   O9    A    
C51   H26   S    
C49   C57   S    
C27   H16   S    
C17   H8    S    
C71   H49   S    
Cu2   O19   S    
C7    C68   S    
C21   C43   S    
C44   C53   S    
C40   O2    A    
C72   H62   S    
C73   C74   S    
C16   C17   S    
Cu5   O11   S    
Cu2   O21   S    
C60   C72   S    
C71   H47   S    
N5    H55   S    
C36   C48   S    
C66   H37   S    
C69   H53   S    
C38   C69   S    
C43   O8    A    
C24   H10   S    
C19   H12   S    
C52   N5    S    
C59   C60   A    
C49   C54   A    
C70   H51   S    
C13   C14   A    
C5    N7    S    
C61   C62   A    
C1    O1    A    
C41   O3    A    
C5    C68   S    
C73   H60   S    
N6    H64   S    
C64   H34   S    
N4    H46   S    
C74   H58   S    
C2    C45   S    
C18   H11   S    
Cu3   O5    S    
C65   N6    S    
C51   C52   A    
C19   C22   S    
C24   C25   S    
C41   C67   S    
N7    H66   S    
C10   C11   A    
Cu3   O24   S    
C23   O21   A    
Cu1   O18   S    
C39   H24   S    
C26   H17   S    
C35   H22   S    
C45   N2    S    
C66   H36   S    
C31   C37   A    
C32   C33   A    
C60   C61   A    
C16   H6    S    
C37   C38   S    
C11   H4    S    
C48   O16   A    
N1    H40   S    
C58   C65   S    
C39   H25   S    
Cu6   O15   S    
C72   H61   S    
C8    C12   S    
Cu4   O8    S    
C62   C63   A    
C14   C15   A    
C50   C51   A    
Cu3   O3    S    
N2    H41   S    
C61   H32   S    
C65   H35   S    
C9    C17   S    
C6    C67   T    
Cu6   O10   S    
C21   C28   T    
Cu5   O9    S    
C22   C27   S    
C55   C57   S    
Cu2   O23   S    
C48   O17   A    
C58   C59   A    
C3    C66   S    
C41   O4    A    
C3    C4    S    
C2    H2    S    
N6    H63   S    
C47   O14   A    
N4    H45   S    
C9    C10   A    
C26   H21   S    
N3    H44   S    
C57   H30   S    
C55   H27   S    
C54   C55   S    
C30   C34   S    
C19   N3    S    
C18   C22   S    
C2    N1    S    
C31   C32   A    
C42   O6    A    
C1    C10   S    
C58   C63   A    
C4    N8    S    
C4    C5    S    
C42   C59   S    
N8    H68   S    
C42   O5    A    
C47   O15   A    
C5    H38   S    
Cu5   O16   S    
N1    H39   S    
Cu4   O4    S    
Cu3   O7    S    
C45   H1    S    
C18   H18   S    
C23   C32   S    
C19   C20   S    
C74   H57   S    
C2    C3    S    
C25   C26   S    
C1    O12   A    
C73   H59   S    
C4    H3    S    
N7    H65   S    
C56   C68   S    
C69   C70   S    
C64   C65   S    
C11   C13   A    
C34   O23   A    
Cu1   O20   S    
C40   C50   S    
C20   H14   S    
C44   O10   A    
C16   H7    S    
C33   C35   A    
C31   C39   S    
C23   O20   A    
C27   H15   S    
C71   H48   S    
C9    C15   A    
Cu1   Cu2   S    
C46   O11   A    
C33   N4    S    
C56   H28   S    
C63   C64   S    
Cu2   O12   S    
Cu3   Cu4   S    
C36   C37   A    
C49   C50   A    
Cu6   O17   S    
Cu4   O6    S    
C70   C71   S    
C17   H9    S    
C24   H19   S    
C69   H52   S    
C15   C16   S    
C43   O7    A    
