data_mof_unit_48629.cif
_audit_creation_date              2013-03-05T16:23:10-0500
_audit_creation_method            fapswitch 2.2
_symmetry_space_group_name_H-M    P1
_symmetry_Int_Tables_number       1
_space_group_crystal_system       triclinic
_cell_length_a                    18.728401
_cell_length_b                    18.308538
_cell_length_c                    18.960127
_cell_angle_alpha                 108.912628
_cell_angle_beta                  110.045054
_cell_angle_gamma                 108.442304
_cell_volume                      5065.5006242

loop_
_atom_site_label
_atom_site_type_symbol
_atom_site_description
_atom_site_fract_x
_atom_site_fract_y
_atom_site_fract_z
_atom_type_partial_charge
O1    O     O_R   0.408690 0.356690 0.448570 -0.563462
O2    O     O_R   0.408080 0.460090 0.551420 -0.639179
C1    C     C_R   0.379468 0.379275 0.499337 0.917067
O3    O     O_R   0.592400 0.448300 0.540680 -0.619440
O4    O     O_R   0.591790 0.551700 0.643540 -0.584163
C2    C     C_R   0.618924 0.497666 0.619869 0.945981
Zn1   Zn    Zn3+2 0.500410 0.430960 0.431320 1.106118
Zn2   Zn    Zn3+2 0.499590 0.569040 0.568680 1.047016
O5    O     O_R   0.591920 0.539910 0.448580 -0.601301
O6    O     O_R   0.591310 0.643310 0.551430 -0.593487
O7    O     O_R   0.408210 0.448300 0.356460 -0.560193
O8    O     O_R   0.407600 0.551700 0.459320 -0.648118
C3    C     C_R   0.620196 0.620379 0.500659 0.902156
C4    C     C_R   0.377931 0.499620 0.379705 0.877703
C5    C     C_3   0.689089 0.409031 0.653343 0.109327
H1    H     H_    0.706708 0.401187 0.601876 0.127129
C6    C     C_3   0.759522 0.409428 0.725532 -0.574649
H2    H     H_    0.729462 0.358486 0.740974 0.228605
H3    H     H_    0.800264 0.388480 0.702483 0.241097
H4    H     H_    0.781865 0.545624 0.649125 0.136237
C7    C     C_3   0.777700 0.571022 0.708639 -0.048915
C8    C     C_3   0.678937 0.521065 0.768237 -0.368389
C9    C     C_3   0.688995 0.499673 0.686705 -0.207591
H5    H     H_    0.685911 0.587832 0.797026 0.267945
H6    H     H_    0.612523 0.475758 0.751027 0.174680
C10   C     C_3   0.812294 0.501939 0.806763 -0.178457
C11   C     C_3   0.853836 0.576207 0.782819 0.415522
C12   C     C_3   0.745720 0.513637 0.835507 0.292863
H7    H     H_    0.708971 0.451727 0.835002 0.116512
C13   C     C_R   0.308091 0.232277 0.484919 0.049011
C14   C     C_R   0.312388 0.313651 0.499115 -0.146517
C15   C     C_R   0.256784 0.336828 0.523995 -0.228165
H8    H     H_    0.262755 0.401467 0.538368 0.202414
C16   C     C_R   0.190985 0.276439 0.526514 0.310795
C17   C     C_R   0.183475 0.191468 0.504288 -0.161508
C18   C     C_R   0.243288 0.172150 0.486616 0.004555
C19   C     C_3   0.226316 0.094359 0.412192 -0.571047
C20   C     C_3   0.299245 0.159446 0.410210 0.495681
H9    H     H_    0.241452 0.047464 0.431435 0.223237
H10   H     H_    0.160851 0.063293 0.355725 0.222620
C21   C     C_R   0.303313 0.473899 0.232263 -0.033407
C22   C     C_R   0.312768 0.502640 0.314451 -0.061471
C23   C     C_R   0.262236 0.539785 0.333881 -0.184274
H11   H     H_    0.270317 0.565808 0.397808 0.165630
C24   C     C_R   0.196885 0.538366 0.268779 -0.188593
H12   H     H_    0.155627 0.563691 0.282894 0.185729
C25   C     C_R   0.184341 0.502584 0.185435 -0.035869
C26   C     C_R   0.243527 0.479482 0.170033 -0.107398
C27   C     C_3   0.226919 0.398053 0.098845 0.151765
C28   C     C_3   0.289099 0.387990 0.168846 0.575868
H13   H     H_    0.158408 0.345493 0.064441 0.160631
C29   C     C_R   0.764479 0.684943 0.517288 0.064229
C30   C     C_R   0.687496 0.687485 0.503887 -0.055892
C31   C     C_R   0.676638 0.756907 0.495720 -0.141453
H14   H     H_    0.617459 0.759990 0.486400 0.153180
C32   C     C_R   0.739452 0.818594 0.492262 -0.073422
H15   H     H_    0.727472 0.867818 0.478967 0.137360
C33   C     C_R   0.816084 0.815076 0.504094 -0.082691
C34   C     C_R   0.830808 0.751855 0.523460 -0.079781
C35   C     C_3   0.856257 0.688110 0.480476 0.119458
C36   C     C_3   0.776918 0.612255 0.466636 0.768756
H16   H     H_    0.848047 0.685159 0.418660 0.110780
O9    O     O_R   0.946090 0.356720 0.906270 -0.582036
O10   O     O_R   0.049530 0.460080 0.906210 -0.624475
C37   C     C_R   0.999809 0.379553 0.880221 0.949010
O11   O     O_R   0.853510 0.448360 0.905260 -0.670067
O12   O     O_R   0.956950 0.551730 0.905200 -0.536132
C38   C     C_R   0.877588 0.499862 0.875415 0.979028
Zn3   Zn    Zn3+2 0.928260 0.431020 0.997380 1.069169
Zn4   Zn    Zn3+2 0.066400 0.569060 0.997290 1.099663
O13   O     O_R   0.945130 0.540000 0.088470 -0.581431
O14   O     O_R   0.048570 0.643360 0.088400 -0.582255
O15   O     O_R   0.037700 0.448350 0.089480 -0.590105
O16   O     O_R   0.141150 0.551720 0.089410 -0.650563
C39   C     C_R   0.995373 0.621123 0.114997 0.936339
C40   C     C_R   0.117649 0.500047 0.118118 0.872570
O17   O     O_R   0.051500 0.091600 0.643170 -0.567383
O18   O     O_R   0.947510 0.091650 0.539220 -0.630885
C41   C     C_R   0.998885 0.120340 0.618445 1.007533
O19   O     O_R   0.143610 0.091630 0.552030 -0.592878
O20   O     O_R   0.039620 0.091690 0.448080 -0.590436
C42   C     C_R   0.118982 0.123279 0.502808 0.993521
Zn5   Zn    Zn3+2 0.069430 0.000010 0.569450 0.987278
Zn6   Zn    Zn3+2 0.930570 0.000090 0.430650 0.990762
O21   O     O_R   0.052490 0.908450 0.460880 -0.657530
O22   O     O_R   0.948500 0.908500 0.356930 -0.609223
O23   O     O_R   0.960380 0.908410 0.552020 -0.627594
O24   O     O_R   0.856390 0.908470 0.448070 -0.660284
C43   C     C_R   0.002242 0.880158 0.381783 0.885749
C44   C     C_R   0.880391 0.878680 0.499617 0.900777
C45   C     C_R   0.934525 0.229316 0.765499 -0.012083
C46   C     C_R   0.003269 0.313700 0.817954 -0.107625
C47   C     C_R   0.074538 0.335518 0.804433 -0.208818
H17   H     H_    0.130072 0.400790 0.845688 0.194162
C48   C     C_R   0.075365 0.273054 0.738566 0.322999
C49   C     C_R   0.999997 0.188827 0.682273 -0.170061
C50   C     C_R   0.928985 0.171819 0.695570 -0.149391
C51   C     C_3   0.836681 0.107729 0.665546 0.522784
C52   C     C_3   0.846832 0.173988 0.749534 0.596817
C53   C     C_R   0.015261 0.687302 0.257990 -0.023371
C54   C     C_R   0.998910 0.690293 0.182058 -0.234716
C55   C     C_R   0.005413 0.769478 0.181176 0.270072
C56   C     C_R   0.009449 0.833529 0.249629 -0.228413
H18   H     H_    0.005124 0.890032 0.246102 0.197408
C57   C     C_R   0.014055 0.822333 0.320242 -0.149111
C58   C     C_R   0.031265 0.755957 0.329398 -0.031611
C59   C     C_3   0.999566 0.696249 0.363058 0.160554
C60   C     C_3   0.970908 0.618791 0.277115 0.659391
H19   H     H_    0.945779 0.697406 0.374785 0.083869
O25   O     O_3   0.787404 0.588830 0.917550 -0.579682
C61   C     C_3   0.764040 0.569352 0.975457 0.164104
H20   H     H_    0.812955 0.625062 0.041121 0.199322
H21   H     H_    0.767050 0.509714 0.975912 0.147641
C62   C     C_3   0.674672 0.561044 0.957233 -0.430874
H22   H     H_    0.672554 0.619824 0.953747 0.258074
H23   H     H_    0.623633 0.501583 0.894674 0.217951
C63   C     C_3   0.655297 0.553571 0.027241 -0.817866
H24   H     H_    0.658356 0.495930 0.032813 0.282172
H25   H     H_    0.589247 0.544912 0.010956 0.252973
H26   H     H_    0.702732 0.614364 0.089915 0.292071
N1    N     N_R   0.784899 0.658226 0.723431 0.254022
O26   O     O_R   0.845217 0.711504 0.717969 -0.359144
O27   O     O_R   0.739898 0.688052 0.751054 -0.305769
N2    N     N_R   0.904537 0.665320 0.858977 0.277965
O28   O     O_R   0.988518 0.708468 0.893773 -0.264183
O29   O     O_R   0.866661 0.706365 0.887319 -0.222603
N3    N     N_R   0.133898 0.303127 0.550133 0.230227
O30   O     O_R   0.063191 0.246943 0.540134 -0.382568
O31   O     O_R   0.151236 0.385138 0.579816 -0.363926
N4    N     N_R   0.374450 0.144051 0.432820 0.231849
O32   O     O_R   0.383123 0.095517 0.372220 -0.306858
O33   O     O_R   0.415699 0.154653 0.509394 -0.330641
N5    N     N_R   0.271211 0.167008 0.331414 0.222694
O34   O     O_R   0.200940 0.173084 0.300236 -0.330060
O35   O     O_R   0.320138 0.176314 0.296605 -0.267969
N6    N     N_R   0.604234 0.333089 0.615610 0.237843
O36   O     O_R   0.569490 0.319996 0.662191 -0.405610
O37   O     O_R   0.566348 0.273999 0.535502 -0.314721
O38   O     O_3   0.251650 0.410780 0.038458 -0.642379
C64   C     C_3   0.329469 0.488902 0.072403 0.148801
H27   H     H_    0.368827 0.469913 0.045325 0.162193
H28   H     H_    0.371234 0.523618 0.143248 0.160773
C65   C     C_3   0.308628 0.552146 0.043801 -0.348000
H29   H     H_    0.268246 0.517726 0.972755 0.245516
H30   H     H_    0.271763 0.574412 0.072274 0.248479
C66   C     C_3   0.391113 0.632726 0.072026 -0.917515
H31   H     H_    0.431960 0.669078 0.143113 0.261920
H32   H     H_    0.373766 0.677404 0.050594 0.280047
H33   H     H_    0.428748 0.612545 0.043033 0.271048
N7    N     N_R   0.245914 0.315119 0.182261 0.173974
O39   O     O_R   0.288300 0.278562 0.213132 -0.285596
O40   O     O_R   0.169574 0.294807 0.174946 -0.369338
O41   O     O_3   0.366980 0.395318 0.168997 -0.657541
C67   C     C_3   0.351406 0.320996 0.098872 0.147659
H34   H     H_    0.338734 0.331753 0.042523 0.169597
H35   H     H_    0.295120 0.258628 0.078609 0.178560
C68   C     C_3   0.432388 0.309808 0.123976 -0.353428
H36   H     H_    0.487979 0.369983 0.139687 0.216442
H37   H     H_    0.447762 0.301196 0.181848 0.248813
C69   C     C_3   0.419763 0.230337 0.051373 -0.907108
H38   H     H_    0.365429 0.169018 0.035458 0.284264
H39   H     H_    0.479801 0.224377 0.071674 0.264958
H40   H     H_    0.405728 0.238299 0.993262 0.268101
O42   O     O_3   0.940791 0.701943 0.531676 -0.692910
C70   C     C_3   0.970648 0.734302 0.621051 0.105056
H41   H     H_    0.014623 0.708100 0.643697 0.182812
H42   H     H_    0.917926 0.709722 0.634812 0.232724
C71   C     C_3   0.023220 0.835129 0.673203 -0.371795
H43   H     H_    0.067655 0.860244 0.650262 0.217261
H44   H     H_    0.979093 0.863989 0.666359 0.275256
C72   C     C_3   0.076653 0.866208 0.768634 -0.783354
H45   H     H_    0.033689 0.841556 0.793293 0.321075
H46   H     H_    0.111856 0.939310 0.804928 0.262699
H47   H     H_    0.124928 0.842248 0.779441 0.253879
O43   O     O_3   0.704928 0.566126 0.381244 -0.680399
C73   C     C_3   0.682320 0.478271 0.329929 0.106306
H48   H     H_    0.611513 0.443128 0.284735 0.159312
H49   H     H_    0.690000 0.441638 0.365416 0.163770
C74   C     C_3   0.727301 0.473343 0.275917 -0.356052
H50   H     H_    0.699909 0.492111 0.226938 0.268139
H51   H     H_    0.797776 0.520321 0.316528 0.216040
C75   C     C_3   0.713875 0.380439 0.230725 -0.923744
H52   H     H_    0.743362 0.361538 0.278723 0.253197
H53   H     H_    0.745128 0.377688 0.190417 0.303820
H54   H     H_    0.643589 0.332608 0.188829 0.263614
O44   O     O_3   0.787485 0.562266 0.510195 -0.671636
C76   C     C_3   0.840266 0.523653 0.498206 0.081483
H55   H     H_    0.907566 0.566690 0.551650 0.200995
H56   H     H_    0.841937 0.511945 0.437872 0.132532
C77   C     C_3   0.809192 0.437132 0.501330 -0.356314
H57   H     H_    0.818446 0.451453 0.566244 0.250261
H58   H     H_    0.739146 0.392478 0.454474 0.217694
C78   C     C_3   0.859772 0.389736 0.482648 -0.862465
H59   H     H_    0.850671 0.372919 0.417320 0.245863
H60   H     H_    0.835931 0.327866 0.486035 0.275844
H61   H     H_    0.929869 0.431922 0.530858 0.290881
N8    N     N_R   0.150850 0.298624 0.728447 0.220230
O45   O     O_R   0.182246 0.245390 0.711430 -0.379216
O46   O     O_R   0.196677 0.380366 0.749964 -0.342055
O47   O     O_3   0.774145 0.102623 0.592869 -0.653492
C79   C     C_3   0.758038 0.041149 0.513739 0.103994
H62   H     H_    0.693060 0.983617 0.482881 0.160742
H63   H     H_    0.805907 0.016974 0.520008 0.163541
C80   C     C_3   0.757070 0.083399 0.456134 -0.312858
H64   H     H_    0.708000 0.106396 0.448673 0.240742
H65   H     H_    0.821641 0.141490 0.486701 0.250262
C81   C     C_3   0.735266 0.018521 0.367560 -0.902744
H66   H     H_    0.784540 0.996141 0.373088 0.280492
H67   H     H_    0.734604 0.051179 0.327346 0.264614
H68   H     H_    0.670343 0.960479 0.335452 0.256600
N9    N     N_R   0.823609 0.022092 0.660219 0.170437
O48   O     O_R   0.887902 0.004955 0.679807 -0.397458
O49   O     O_R   0.746997 0.962441 0.635849 -0.379358
O50   O     O_3   0.796812 0.218302 0.738193 -0.648049
C82   C     C_3   0.720006 0.183546 0.742256 0.128182
H69   H     H_    0.700136 0.235225 0.754692 0.161154
H70   H     H_    0.729750 0.171506 0.797625 0.170448
C83   C     C_3   0.645732 0.102376 0.657108 -0.308036
H71   H     H_    0.638602 0.117620 0.603688 0.275216
H72   H     H_    0.660147 0.046773 0.645615 0.269763
C84   C     C_3   0.560157 0.074347 0.657736 -0.861175
H73   H     H_    0.565385 0.058324 0.710408 0.263382
H74   H     H_    0.507933 0.014950 0.595639 0.276558
H75   H     H_    0.542432 0.127827 0.666453 0.295633
N10   N     N_R   0.853124 0.146145 0.815552 0.175639
O51   O     O_R   0.921575 0.192428 0.891637 -0.353654
O52   O     O_R   0.791341 0.073563 0.798099 -0.336318
N11   N     N_R   0.002032 0.783787 0.110315 0.231329
O53   O     O_R   0.959903 0.717814 0.033347 -0.308156
O54   O     O_R   0.034580 0.863352 0.121140 -0.303762
O55   O     O_3   0.069473 0.703435 0.430899 -0.625545
C85   C     C_3   0.100086 0.775264 0.510885 0.149389
H76   H     H_    0.106813 0.751057 0.558233 0.174873
H77   H     H_    0.055246 0.802958 0.511244 0.182723
C86   C     C_3   0.189642 0.846896 0.540013 -0.347284
H78   H     H_    0.234497 0.818685 0.543375 0.232272
H79   H     H_    0.185244 0.870954 0.492717 0.246528
C87   C     C_3   0.226717 0.924440 0.628027 -0.919167
H80   H     H_    0.184108 0.955201 0.625785 0.271062
H81   H     H_    0.291885 0.974709 0.647518 0.275141
H82   H     H_    0.232986 0.902163 0.676762 0.253957
O56   O     O_3   0.011044 0.565292 0.282769 -0.636410
C88   C     C_3   0.978773 0.510647 0.315101 0.168379
H83   H     H_    0.923916 0.446012 0.260562 0.174797
H84   H     H_    0.955291 0.539153 0.358082 0.134295
C89   C     C_3   0.050782 0.495276 0.365244 -0.360319
H85   H     H_    0.068548 0.458628 0.320891 0.237691
H86   H     H_    0.109037 0.559755 0.415638 0.253361
C90   C     C_3   0.022500 0.442867 0.407805 -0.876665
H87   H     H_    0.008157 0.480359 0.455219 0.263028
H88   H     H_    0.075486 0.431164 0.441930 0.299658
H89   H     H_    0.963917 0.378237 0.358806 0.264800
N12   N     N_R   0.876617 0.569023 0.217501 0.132381
O57   O     O_R   0.830203 0.609118 0.215615 -0.497876
O58   O     O_R   0.841187 0.488441 0.157154 -0.412875
N13   N     N_R   0.912588 0.561360 0.750032 0.185712
O59   O     O_R   0.935392 0.501226 0.750104 -0.404267
O60   O     O_R   0.947331 0.613958 0.724780 -0.390595

loop_
_geom_bond_atom_site_label_1
_geom_bond_atom_site_label_2
_geom_bond_distance
_ccdc_geom_bond_type
C65   C66   1.526055 S    
Zn5   O23   2.025794 S    
C72   H45   1.111138 S    
O9    C37   1.280337 A    
C77   H57   1.108779 S    
C59   O55   1.418731 S    
C60   N12   1.473862 S    
C37   C46   1.425056 S    
C86   H79   1.110531 S    
C21   C22   1.398865 A    
C27   O38   1.431037 S    
O11   C38   1.290126 A    
C48   C49   1.425723 A    
C36   O43   1.431469 S    
C64   C65   1.528078 S    
C82   H69   1.107985 S    
C39   C54   1.438810 S    
C27   C28   1.544775 S    
N11   O54   1.301661 A    
C62   H22   1.111511 S    
C80   H65   1.111613 S    
C61   H21   1.113643 S    
C70   H41   1.110796 S    
C30   C31   1.396546 A    
Zn1   O7    2.013920 S    
C72   H46   1.110486 S    
C87   H82   1.110930 S    
C10   C11   1.622734 S    
C68   H36   1.111486 S    
O16   C40   1.272644 A    
C83   C84   1.526030 S    
C6    C10   1.556923 S    
C20   N4    1.470563 S    
N2    O29   1.301337 A    
C12   H7    1.119577 S    
C64   H28   1.109867 S    
C25   C40   1.422419 S    
C84   H75   1.111122 S    
C29   C36   1.506194 S    
C63   H25   1.110425 S    
N12   O57   1.301997 A    
Zn2   O6    2.025409 S    
O7    C4    1.280093 A    
C65   H29   1.110598 S    
O11   Zn3   2.018842 S    
C58   C59   1.502040 S    
O17   Zn5   2.009225 S    
C28   O41   1.420753 S    
C88   H83   1.111039 S    
C66   H33   1.110964 S    
C87   H81   1.110329 S    
C50   C51   1.516032 S    
C32   H15   1.078218 S    
C13   C20   1.512247 S    
Zn1   O5    2.013114 S    
C16   C17   1.418976 A    
C79   H62   1.110912 S    
C20   N5    1.472807 S    
Zn3   O13   2.014179 S    
O5    C3    1.277050 A    
O25   C61   1.417207 S    
C85   H76   1.110796 S    
C76   C77   1.533834 S    
C77   C78   1.525346 S    
C35   O42   1.430514 S    
C87   H80   1.110129 S    
C73   C74   1.531704 S    
C65   H30   1.106904 S    
O9    Zn3   2.026232 S    
C16   N3    1.448878 S    
C27   H13   1.111751 S    
C8    H6    1.111384 S    
N13   O60   1.302276 A    
Zn4   O16   2.018842 S    
C81   H68   1.110841 S    
C86   H78   1.111626 S    
Zn3   O15   2.031454 S    
O10   Zn4   2.014090 S    
N8    O45   1.299438 A    
C11   N13   1.489845 S    
C67   H35   1.113155 S    
Zn5   O21   2.031511 S    
Zn2   O8    2.036324 S    
C4    C22   1.440531 S    
C74   C75   1.525626 S    
C59   H19   1.108434 S    
C78   H61   1.110723 S    
C71   H44   1.107359 S    
C7    C11   1.572710 S    
C34   C35   1.501693 S    
C47   C48   1.402260 A    
C8    C12   1.528407 S    
C49   C50   1.395696 A    
C79   C80   1.527931 S    
C79   H63   1.107193 S    
C19   H10   1.112276 S    
N3    O31   1.301972 A    
O19   Zn5   2.013005 S    
C55   N11   1.434604 S    
N11   O53   1.294672 A    
C17   C42   1.420665 S    
N10   O51   1.301944 A    
C53   C54   1.388857 A    
C66   H32   1.110372 S    
C24   C25   1.399472 A    
C19   H9    1.112112 S    
C72   H47   1.110873 S    
C89   H86   1.111841 S    
C90   H88   1.110651 S    
C53   C60   1.495646 S    
O12   C38   1.270352 A    
C54   C55   1.422073 A    
C71   H43   1.108528 S    
C64   H27   1.110698 S    
C67   C68   1.527636 S    
C88   H84   1.115820 S    
C82   C83   1.532040 S    
C45   C46   1.378844 A    
N12   O58   1.300750 A    
O21   C43   1.274180 A    
O50   C82   1.417243 S    
O47   C79   1.410313 S    
C5    N6    1.465716 S    
C78   H60   1.110596 S    
C33   C34   1.399533 A    
C24   H12   1.082428 S    
O6    C3    1.278394 A    
C85   C86   1.530330 S    
O20   C42   1.276797 A    
C81   H66   1.109638 S    
C35   C36   1.547996 S    
O1    C1    1.281901 A    
C17   C18   1.386848 A    
C69   H39   1.110199 S    
C68   H37   1.111776 S    
N4    O33   1.302277 A    
C23   H11   1.083177 S    
C69   H40   1.110899 S    
C3    C30   1.421430 S    
C19   C20   1.523613 S    
C29   C34   1.379191 A    
C86   C87   1.525993 S    
C84   H73   1.110875 S    
C33   C44   1.435459 S    
C28   N7    1.475517 S    
C83   H72   1.107759 S    
N9    O48   1.301637 A    
C80   C81   1.525716 S    
C13   C14   1.395662 A    
C59   C60   1.541197 S    
C88   C89   1.528547 S    
N13   O59   1.301002 A    
H4    C7    1.112979 S    
C85   H77   1.110604 S    
C6    H2    1.109203 S    
C90   H87   1.110709 S    
O17   C41   1.280198 A    
C56   C57   1.397092 A    
C47   H17   1.082420 S    
C45   C50   1.344861 A    
N8    O46   1.301648 A    
C1    C14   1.435264 S    
C75   H52   1.110605 S    
C23   C24   1.394892 A    
C67   H34   1.108449 S    
N1    O26   1.298788 A    
C52   N10   1.480209 S    
C36   O44   1.432290 S    
O19   C42   1.282195 A    
C73   H48   1.109320 S    
N9    O49   1.300727 A    
O8    C4    1.285815 A    
C51   C52   1.561372 S    
C70   C71   1.534349 S    
C7    C9    1.562196 S    
N5    O34   1.302212 A    
O15   C40   1.282766 A    
N7    O40   1.302255 A    
C63   H26   1.110613 S    
O3    C2    1.281759 A    
C22   C23   1.406298 A    
C5    C9    1.573600 S    
C6    H3    1.106944 S    
N3    O30   1.298959 A    
C21   C28   1.510041 S    
C56   H18   1.084144 S    
O20   Zn6   2.025794 S    
C29   C30   1.394434 A    
N6    O37   1.300436 A    
N5    O35   1.301146 A    
C66   H31   1.110995 S    
C51   N9    1.471713 S    
C31   H14   1.083786 S    
C5    C6    1.537295 S    
C89   H85   1.111468 S    
O42   C70   1.423103 S    
C90   H89   1.110971 S    
C77   H58   1.109160 S    
C61   H20   1.110572 S    
O56   C88   1.418096 S    
O18   C41   1.279076 A    
C53   C58   1.372266 A    
C14   C15   1.404853 A    
O2    Zn2   2.013112 S    
C8    C9    1.559606 S    
Zn6   O24   2.013007 S    
O24   C44   1.286160 A    
C48   N8    1.442218 S    
C25   C26   1.389720 A    
O22   C43   1.291565 A    
O4    Zn2   2.013922 S    
C62   H23   1.110425 S    
O38   C64   1.423177 S    
C31   C32   1.387092 A    
C11   N2    1.483657 S    
C52   O50   1.427570 S    
C13   C18   1.374868 A    
C68   C69   1.526011 S    
C60   O56   1.419377 S    
C57   C58   1.398941 A    
C10   C12   1.567343 S    
C51   O47   1.421312 S    
O12   Zn4   2.031492 S    
C12   O25   1.422583 S    
C15   H8    1.083347 S    
C82   H70   1.108206 S    
O2    C1    1.280618 A    
O44   C76   1.421472 S    
C10   C38   1.470199 S    
C41   C49   1.421179 S    
C84   H74   1.110426 S    
O43   C73   1.409032 S    
C63   H24   1.111098 S    
C69   H38   1.110866 S    
C35   H16   1.109220 S    
O13   C39   1.285078 A    
O14   C39   1.278094 A    
C83   H71   1.111615 S    
O4    C2    1.274738 A    
C18   C19   1.491293 S    
C26   C27   1.501838 S    
C2    C9    1.459002 S    
O10   C37   1.276498 A    
C73   H49   1.100205 S    
C46   C47   1.403747 A    
N10   O52   1.301480 A    
C21   C26   1.378853 A    
C32   C33   1.400494 A    
N4    O32   1.301365 A    
C61   C62   1.533706 S    
C8    H5    1.107642 S    
C7    N1    1.481041 S    
C55   C56   1.398358 A    
C75   H53   1.108864 S    
N1    O27   1.300450 A    
C62   C63   1.526030 S    
C74   H50   1.111498 S    
O18   Zn6   2.031511 S    
C76   H55   1.102188 S    
C80   H64   1.111824 S    
O3    Zn1   2.036325 S    
C70   H42   1.103240 S    
C78   H59   1.110365 S    
O23   C44   1.280944 A    
C43   C57   1.433750 S    
O55   C85   1.411431 S    
C81   H67   1.110290 S    
N7    O39   1.300890 A    
N6    O36   1.301292 A    
O1    Zn1   2.025408 S    
Zn4   O14   2.026231 S    
C71   C72   1.526494 S    
C45   C52   1.490949 S    
O41   C67   1.419387 S    
C76   H56   1.106963 S    
C75   H54   1.110652 S    
C5    H1    1.114289 S    
C15   C16   1.398506 A    
N2    O28   1.303003 A    
C74   H51   1.109269 S    
C89   C90   1.525071 S    
Zn6   O22   2.009225 S    
