data_mof_unit_9734.cif
_audit_creation_date              2012-12-10T18:02:13-0500
_audit_creation_method            fapswitch 2.2
_symmetry_space_group_name_H-M    P1
_symmetry_Int_Tables_number       1
_space_group_crystal_system       triclinic
_cell_length_a                    11.018723
_cell_length_b                    9.659126
_cell_length_c                    23.610541
_cell_angle_alpha                 89.883223
_cell_angle_beta                  92.454314
_cell_angle_gamma                 90.049221
_cell_volume                      2510.58792565

loop_
_atom_site_label
_atom_site_type_symbol
_atom_type_description
_atom_site_fract_x
_atom_site_fract_y
_atom_site_fract_z
_atom_type_partial_charge
C1    C     C_R   0.262446 0.499873 0.502089 0.831669
C2    C     C_R   0.737038 0.499691 0.496526 0.836415
C3    C     C_R   0.598330 0.410014 0.244190 0.252732
C4    C     C_R   0.407985 0.413519 0.757280 0.258701
C5    C     C_R   0.601007 0.428449 0.303613 0.009992
C6    C     C_R   0.402240 0.434460 0.697964 0.018385
C7    C     C_R   0.502737 0.498588 0.328550 -0.136877
C8    C     C_R   0.502083 0.498592 0.671906 -0.117803
C9    C     C_R   0.413797 0.567603 0.292549 0.029338
C10   C     C_R   0.595424 0.561987 0.707272 0.024907
C11   C     C_R   0.437483 0.581406 0.234337 0.208853
C12   C     C_R   0.573664 0.579320 0.765529 0.210580
C13   C     C_R   0.519234 0.490460 0.209562 0.217973
C14   C     C_R   0.490313 0.491399 0.791263 0.215864
C15   C     C_R   0.063013 0.373745 0.507281 0.153359
C16   C     C_R   0.935477 0.623503 0.487389 0.151491
C17   C     C_R   0.935973 0.372781 0.501387 0.157657
C18   C     C_R   0.062606 0.625944 0.495148 0.160344
C19   C     C_R   0.871211 0.498492 0.494425 -0.178134
C20   C     C_R   0.127757 0.500035 0.503011 -0.194429
C21   C     C_R   0.449267 0.074944 0.455405 0.265187
C22   C     C_R   0.536061 0.927367 0.547480 0.276495
C23   C     C_R   0.554638 0.074130 0.544399 0.257467
C24   C     C_R   0.464463 0.928358 0.452489 0.249623
C25   C     C_R   0.498046 0.500131 0.391144 0.847986
C26   C     C_R   0.504017 0.500009 0.608983 0.826872
C27   C     C_R   0.600431 0.450221 0.881098 0.609666
C28   C     C_R   0.409787 0.449605 0.119783 0.607857
C29   C     C_R   0.389197 0.499326 0.881228 0.599673
C30   C     C_R   0.621459 0.496888 0.119800 0.603805
C31   C     C_R   0.389596 0.478698 0.940470 -0.076008
C32   C     C_R   0.620986 0.477237 0.060498 -0.076683
C33   C     C_R   0.502628 0.469218 0.970565 -0.127470
C34   C     C_R   0.507882 0.468802 0.030376 -0.126601
C35   C     C_R   0.610399 0.461602 0.940703 -0.074427
C36   C     C_R   0.400002 0.461413 0.060197 -0.072756
C37   C     C_R   0.281135 0.471938 0.970195 0.205136
C38   C     C_R   0.729390 0.470573 0.030714 0.204155
C39   C     C_R   0.286269 0.465279 0.030064 0.201319
C40   C     C_R   0.724161 0.464687 0.970818 0.201734
Cu1   Cu    Cu3+1 0.500000 0.640660 0.500000 0.964595
Cu2   Cu    Cu3+1 0.500000 0.359340 0.500000 0.948432
N1    N     N_R   0.492736 0.478782 0.852449 -0.442514
N2    N     N_R   0.517604 0.477182 0.148460 -0.439839
N3    N     N_R   0.500000 0.852070 0.500000 -0.217857
N4    N     N_R   0.500000 0.147930 0.500000 -0.241451
O1    O     O_R   0.319640 0.618740 0.500000 -0.554404
O2    O     O_R   0.680360 0.381260 0.500000 -0.588160
O3    O     O_R   0.680360 0.618740 0.500000 -0.561118
O4    O     O_R   0.319640 0.381260 0.500000 -0.530092
O5    O     O_R   0.499960 0.618810 0.417880 -0.532568
O6    O     O_R   0.500040 0.381190 0.582120 -0.599447
O7    O     O_R   0.500040 0.618810 0.582120 -0.545984
O8    O     O_R   0.499960 0.381190 0.417880 -0.582278
O9    O     O_2   0.696966 0.410746 0.851766 -0.513862
O10   O     O_2   0.312856 0.411015 0.149133 -0.517477
O11   O     O_2   0.287547 0.543083 0.852744 -0.517503
O12   O     O_2   0.723465 0.538805 0.148456 -0.519094
N5    N     N_2   0.167109 0.466896 0.939608 -0.387070
H1    H     H_    0.098145 0.520148 0.957779 0.246314
C41   C     C_3   0.132480 0.330312 0.919584 -0.643065
H2    H     H_    0.110945 0.262532 0.955884 0.192007
H3    H     H_    0.206675 0.282650 0.895867 0.251252
H4    H     H_    0.051205 0.338346 0.890345 0.247010
N6    N     N_2   0.843453 0.465166 0.061249 -0.387224
H5    H     H_    0.912390 0.518816 0.043093 0.246233
C42   C     C_3   0.878027 0.328301 0.081115 -0.642181
H6    H     H_    0.899272 0.261065 0.044729 0.191857
H7    H     H_    0.803912 0.280265 0.104894 0.250747
H8    H     H_    0.959477 0.335941 0.110258 0.246994
N7    N     N_2   0.177305 0.470078 0.060228 -0.386640
H9    H     H_    0.106418 0.412994 0.042715 0.244627
C43   C     C_3   0.143333 0.607568 0.078062 -0.643084
H10   H     H_    0.110637 0.670059 0.040935 0.190090
H11   H     H_    0.221663 0.661249 0.099530 0.252030
H12   H     H_    0.069968 0.599870 0.108680 0.247331
N8    N     N_2   0.833076 0.469622 0.940603 -0.387179
H13   H     H_    0.903984 0.412600 0.958154 0.244664
C44   C     C_3   0.867090 0.607167 0.922547 -0.641151
H14   H     H_    0.899763 0.669688 0.959583 0.189437
H15   H     H_    0.788805 0.660741 0.900967 0.253754
H16   H     H_    0.940470 0.599591 0.891950 0.247692
N9    N     N_2   0.674122 0.310831 0.218408 -0.399154
H17   H     H_    0.763387 0.308044 0.233120 0.274103
C45   C     C_3   0.619857 0.175198 0.211755 -0.730787
H18   H     H_    0.681255 0.107105 0.188247 0.231008
H19   H     H_    0.531762 0.182419 0.187192 0.250792
H20   H     H_    0.604986 0.128292 0.253928 0.217016
N10   N     N_2   0.332566 0.314172 0.783508 -0.400506
H21   H     H_    0.243506 0.309362 0.768678 0.271604
C46   C     C_3   0.387817 0.179330 0.791051 -0.725240
H22   H     H_    0.326858 0.111211 0.814954 0.229298
H23   H     H_    0.475826 0.188019 0.815586 0.250459
H24   H     H_    0.402998 0.131540 0.749165 0.221898
C47   C     C_3   0.713258 0.382380 0.338561 -0.411280
C48   C     C_3   0.816297 0.486878 0.332509 -0.846988
H25   H     H_    0.839780 0.498613 0.287508 0.270562
H26   H     H_    0.788774 0.589357 0.348980 0.253682
H27   H     H_    0.898602 0.452144 0.357278 0.232510
H28   H     H_    0.697769 0.373363 0.384174 0.229149
H29   H     H_    0.742413 0.277471 0.325817 0.199695
C49   C     C_3   0.285977 0.397892 0.664432 -0.400046
C50   C     C_3   0.186459 0.503320 0.675966 -0.851502
H30   H     H_    0.160660 0.499148 0.720835 0.272394
H31   H     H_    0.218695 0.609549 0.666612 0.249908
H32   H     H_    0.104383 0.482162 0.648473 0.233993
H33   H     H_    0.297032 0.398103 0.618220 0.227568
H34   H     H_    0.256177 0.291720 0.675159 0.201754
C51   C     C_3   0.290413 0.621532 0.310270 -0.380851
C52   C     C_3   0.240489 0.569980 0.365453 -0.828336
H35   H     H_    0.259650 0.458358 0.372263 0.248132
H36   H     H_    0.277915 0.634583 0.400281 0.287430
H37   H     H_    0.140354 0.584386 0.364537 0.222651
H38   H     H_    0.290462 0.736390 0.309729 0.195522
H39   H     H_    0.221470 0.586578 0.277579 0.216590
C53   C     C_3   0.721936 0.602917 0.688877 -0.391901
C54   C     C_3   0.767653 0.535736 0.635865 -0.858444
H40   H     H_    0.744480 0.424010 0.634138 0.253663
H41   H     H_    0.729045 0.592192 0.599105 0.260912
H42   H     H_    0.867965 0.546503 0.634985 0.231403
H43   H     H_    0.729379 0.717164 0.685847 0.188133
H44   H     H_    0.788564 0.568727 0.722774 0.226147
N11   N     N_2   0.376681 0.682452 0.198970 -0.417887
H45   H     H_    0.290006 0.710603 0.208592 0.252067
C55   C     C_3   0.450795 0.800647 0.185401 -0.718052
H46   H     H_    0.400133 0.868000 0.154438 0.229649
H47   H     H_    0.536007 0.767063 0.166061 0.253653
H48   H     H_    0.473278 0.861609 0.224313 0.222214
N12   N     N_2   0.639347 0.678662 0.799852 -0.414693
H49   H     H_    0.723015 0.709922 0.786965 0.252206
C56   C     C_3   0.567596 0.794725 0.817860 -0.715503
H50   H     H_    0.623113 0.859795 0.847801 0.228212
H51   H     H_    0.486413 0.758962 0.839981 0.251774
H52   H     H_    0.538350 0.859042 0.780703 0.221730
N13   N     N_2   0.125173 0.245386 0.515627 -0.376839
H53   H     H_    0.101449 0.171066 0.486079 0.259849
C57   C     C_3   0.130256 0.190920 0.572856 -0.722754
H54   H     H_    0.076730 0.093845 0.574940 0.198250
H55   H     H_    0.092297 0.264674 0.603379 0.231152
H56   H     H_    0.225998 0.166650 0.585521 0.243158
N14   N     N_2   0.872462 0.744585 0.467993 -0.406320
H57   H     H_    0.902695 0.786973 0.431039 0.227617
C58   C     C_3   0.845749 0.845501 0.510773 -0.650510
H58   H     H_    0.921833 0.919419 0.516954 0.202113
H59   H     H_    0.828120 0.794506 0.551842 0.227177
H60   H     H_    0.763953 0.904743 0.496433 0.228210
N15   N     N_2   0.873692 0.243232 0.500560 -0.391232
H61   H     H_    0.893712 0.177210 0.533894 0.262766
C59   C     C_3   0.859434 0.176332 0.445759 -0.707497
H62   H     H_    0.916976 0.082437 0.444527 0.201330
H63   H     H_    0.886862 0.245239 0.410947 0.227126
H64   H     H_    0.763033 0.145665 0.438094 0.240614
N16   N     N_2   0.124806 0.755719 0.495594 -0.391232
H65   H     H_    0.091609 0.829982 0.467697 0.240668
C60   C     C_3   0.156130 0.809325 0.551619 -0.644443
H66   H     H_    0.073395 0.833426 0.574803 0.202946
H67   H     H_    0.211651 0.904447 0.547596 0.216652
H68   H     H_    0.210118 0.732849 0.577075 0.239867
N17   N     N_2   0.390806 0.147368 0.409406 -0.360526
H69   H     H_    0.438360 0.148649 0.372759 0.246072
C61   C     C_3   0.261737 0.123591 0.399769 -0.703480
H70   H     H_    0.212723 0.222943 0.403946 0.245672
H71   H     H_    0.226407 0.046736 0.430084 0.208188
H72   H     H_    0.242711 0.084232 0.356094 0.199543
N18   N     N_2   0.548816 0.860324 0.600521 -0.361151
H73   H     H_    0.634984 0.831557 0.613920 0.246792
C62   C     C_3   0.463501 0.898161 0.642839 -0.667292
H74   H     H_    0.476459 0.829566 0.680310 0.221691
H75   H     H_    0.369071 0.884846 0.625579 0.219534
H76   H     H_    0.476572 0.007202 0.656427 0.229026
N19   N     N_2   0.626213 0.146387 0.587458 -0.384561
H77   H     H_    0.658549 0.238122 0.573338 0.320069
C63   C     C_3   0.723662 0.079526 0.620507 -0.789591
H78   H     H_    0.790876 0.158107 0.636154 0.223715
H79   H     H_    0.773018 0.005280 0.594554 0.217601
H80   H     H_    0.688776 0.030303 0.658953 0.256921
N20   N     N_2   0.452397 0.864575 0.398598 -0.369773
H81   H     H_    0.375086 0.890896 0.375159 0.241841
C64   C     C_3   0.561023 0.874237 0.366152 -0.673889
H82   H     H_    0.547933 0.814732 0.326231 0.228421
H83   H     H_    0.640360 0.830146 0.390642 0.252419
H84   H     H_    0.581177 0.983429 0.355253 0.177902

loop_
_geom_bond_atom_site_label_1
_geom_bond_atom_site_label_2
_ccdc_geom_bond_type
C58   H60   S    
C38   C40   A    
N19   H77   S    
C60   H66   S    
N18   H73   S    
C60   H67   S    
C8    C26   S    
Cu1   Cu2   S    
C47   C48   S    
C56   H52   S    
C61   H70   S    
C28   O10   S    
C59   H62   S    
N11   H45   S    
C62   H75   S    
C63   H78   S    
C57   H55   S    
C53   H44   S    
C24   N3    A    
N15   C59   S    
C21   N4    A    
C59   H63   S    
N17   H69   S    
Cu2   N4    S    
C27   O9    S    
N11   C55   S    
C15   N13   S    
C58   H58   S    
C48   H27   S    
C53   C54   S    
C58   H59   S    
C43   H10   S    
C41   H3    S    
C52   H35   S    
C5    C47   S    
C22   N18   S    
N16   H65   S    
N15   H61   S    
N6    C42   S    
C48   H26   S    
C55   H48   S    
N17   C61   S    
C49   H34   S    
C32   C38   A    
N16   C60   S    
C1    O4    A    
C18   C20   A    
C3    C13   A    
C64   H84   S    
C63   H79   S    
N5    H1    S    
N18   C62   S    
C23   N4    A    
N13   C57   S    
C29   N1    A    
C60   H68   S    
C21   N17   S    
C30   N2    A    
C49   C50   S    
Cu1   O3    S    
C61   H71   S    
C62   H74   S    
C62   H76   S    
C45   H19   S    
C9    C51   S    
C15   C20   A    
C57   H56   S    
N5    C41   S    
C53   H43   S    
C42   H6    S    
N13   H53   S    
C25   O8    A    
C4    C6    A    
C12   N12   S    
C54   H42   S    
C46   H22   S    
C5    C7    A    
C47   H28   S    
C1    O1    A    
C6    C8    A    
C27   C35   A    
N8    H13   S    
C28   N2    A    
C31   C37   A    
C42   H7    S    
N14   C58   S    
C32   C34   A    
C41   H4    S    
C25   O5    A    
C2    O3    A    
C26   O6    A    
C46   H23   S    
N19   C63   S    
N9    H17   S    
C38   N6    S    
C29   C31   A    
C48   H25   S    
C31   C33   A    
C33   C34   A    
Cu1   O1    S    
N8    C44   S    
C49   H33   S    
C50   H31   S    
Cu2   O2    S    
C9    C11   A    
C52   H37   S    
Cu1   O7    S    
C45   H18   S    
C37   N5    S    
C18   N16   S    
C10   C12   A    
C51   H38   S    
Cu2   O4    S    
C16   C18   A    
N9    C45   S    
C12   C14   A    
N20   H81   S    
C3    N9    S    
C55   H46   S    
C43   H12   S    
C59   H64   S    
N10   C46   S    
C43   H11   S    
C17   C19   A    
C56   H50   S    
C26   O7    A    
C3    C5    A    
C24   N20   S    
C61   H72   S    
C10   C53   S    
N7    C43   S    
C4    N10   S    
C45   H20   S    
C7    C9    A    
C1    C20   S    
Cu1   N3    S    
C17   N15   S    
C2    C19   S    
C40   N8    S    
C36   C39   A    
C11   N11   S    
C29   O11   S    
C56   H51   S    
C44   H16   S    
C63   H80   S    
C15   C17   A    
C64   H82   S    
C57   H54   S    
C44   H15   S    
C7    C25   S    
C42   H8    S    
C2    O2    A    
C54   H41   S    
C16   N14   S    
N12   H49   S    
N7    H9    S    
C37   C39   A    
C54   H40   S    
Cu2   O8    S    
C46   H24   S    
C30   C32   A    
C11   C13   A    
C16   C19   A    
C30   O12   S    
C33   C35   A    
N20   C64   S    
C35   C40   A    
C50   H32   S    
C34   C36   A    
C6    C49   S    
C4    C14   A    
C41   H2    S    
C52   H36   S    
C51   H39   S    
C44   H14   S    
C27   N1    A    
C22   N3    A    
C23   N19   S    
C28   C36   A    
C8    C10   A    
N6    H5    S    
C21   C24   A    
C51   C52   S    
C50   H30   S    
C55   H47   S    
C39   N7    S    
C22   C23   A    
N12   C56   S    
N10   H21   S    
N14   H57   S    
Cu1   O5    S    
C13   N2    S    
C47   H29   S    
Cu2   O6    S    
C14   N1    S    
C64   H83   S    
