data_mof_unit_18808.cif
_audit_creation_date              2012-12-11T15:42:41-0500
_audit_creation_method            fapswitch 2.2
_symmetry_space_group_name_H-M    P1
_symmetry_Int_Tables_number       1
_space_group_crystal_system       triclinic
_cell_length_a                    6.928241
_cell_length_b                    14.611893
_cell_length_c                    16.164669
_cell_angle_alpha                 90.559361
_cell_angle_beta                  90.0639
_cell_angle_gamma                 89.940581
_cell_volume                      1636.34581554

loop_
_atom_site_label
_atom_site_type_symbol
_atom_type_description
_atom_site_fract_x
_atom_site_fract_y
_atom_site_fract_z
_atom_type_partial_charge
O1    O     O_R   0.505810 0.583360 0.413880 -0.536765
O2    O     O_R   0.175870 0.595480 0.585520 -0.534110
O3    O     O_R   0.005540 0.416640 0.586120 -0.540582
C1    C     C_R   0.345394 0.619785 0.612900 0.740978
O4    O     O_R   0.176100 0.594390 0.414490 -0.547925
O5    O     O_R   0.005770 0.415540 0.413870 -0.545566
C2    C     C_R   0.345160 0.616630 0.385810 0.705122
O6    O     O_R   0.505580 0.584460 0.586130 -0.531026
O7    O     O_3   0.339190 0.441320 0.500000 -0.375021
V1    V     V_3+5 0.064350 0.510890 0.500000 1.446006
O8    O     O_R   0.676050 0.404520 0.414480 -0.547579
C3    C     C_R   0.845129 0.382102 0.385702 0.675253
O9    O     O_R   0.675830 0.405610 0.585510 -0.542948
C4    C     C_R   0.845548 0.383122 0.612798 0.755490
V2    V     V_3+5 0.564340 0.489110 0.500000 1.443498
O10   O     O_3   0.839370 0.558680 0.500000 -0.365591
C5    C     C_2   0.732607 0.199484 0.774205 -0.061698
C6    C     C_2   0.876840 0.192776 0.832322 -0.220980
C7    C     C_2   0.712994 0.279285 0.718200 -0.129591
C8    C     C_2   0.863294 0.310661 0.674751 -0.283409
H1    H     H_    0.569253 0.305909 0.706191 0.165158
H2    H     H_    0.005471 0.280879 0.683851 0.156315
C9    C     C_R   0.047460 0.223133 0.219223 -0.149354
H3    H     H_    0.188324 0.204601 0.195400 0.117216
C10   C     C_R   0.036204 0.287117 0.284060 -0.147396
H4    H     H_    0.168969 0.316087 0.308041 0.118193
C11   C     C_R   0.856416 0.313371 0.317296 -0.042087
C12   C     C_R   0.688190 0.273936 0.283830 -0.151906
H5    H     H_    0.547324 0.292476 0.307644 0.116944
C13   C     C_R   0.699447 0.209950 0.218995 -0.145148
H6    H     H_    0.566682 0.180984 0.195008 0.118752
C14   C     C_R   0.879241 0.183661 0.185790 -0.039818
C15   C     C_R   0.205614 0.696936 0.738307 -0.084452
H7    H     H_    0.078608 0.654320 0.731671 0.141427
C16   C     C_R   0.215360 0.758154 0.805475 -0.111586
H8    H     H_    0.093955 0.762790 0.847473 0.121845
C17   C     C_R   0.381487 0.811018 0.819511 -0.085802
C18   C     C_R   0.535968 0.802544 0.763752 -0.207199
C19   C     C_R   0.522079 0.746933 0.692204 -0.018765
C20   C     C_R   0.357456 0.689963 0.680734 -0.115653
C21   C     C_R   0.188351 0.723038 0.283439 -0.151245
H9    H     H_    0.047363 0.704322 0.306584 0.114663
C22   C     C_R   0.199699 0.786036 0.218716 -0.145707
H10   H     H_    0.066828 0.813992 0.194252 0.117169
C23   C     C_R   0.379537 0.812577 0.186121 -0.042705
C24   C     C_R   0.547713 0.774349 0.220384 -0.152277
H11   H     H_    0.688696 0.793096 0.197261 0.115141
C25   C     C_R   0.536369 0.711371 0.285132 -0.138855
H12   H     H_    0.669232 0.683478 0.309667 0.116407
C26   C     C_R   0.356500 0.684682 0.317590 -0.040262
O11   O     O_R   0.230120 0.912300 0.917180 -0.536803
O12   O     O_R   0.559740 0.902430 0.088770 -0.548334
O13   O     O_R   0.729930 0.081310 0.089370 -0.546249
C27   C     C_R   0.390753 0.880347 0.117641 0.666590
O14   O     O_R   0.559840 0.901330 0.917750 -0.536720
O15   O     O_R   0.730030 0.080210 0.917120 -0.530976
C28   C     C_R   0.390889 0.878407 0.889272 0.710722
O16   O     O_R   0.230020 0.913400 0.089430 -0.547509
O17   O     O_3   0.396460 0.055470 0.003290 -0.360012
V3    V     V_3+5 0.671360 0.985960 0.003250 1.453015
O18   O     O_R   0.059740 0.091300 0.917690 -0.510396
C29   C     C_R   0.890181 0.114144 0.890037 0.755746
O19   O     O_R   0.059640 0.092400 0.088720 -0.547151
C30   C     C_R   0.890550 0.114850 0.117458 0.670617
V4    V     V_3+5 0.171350 0.007820 0.003190 1.484068
O20   O     O_3   0.896380 0.938200 0.003220 -0.378591
C31   C     C_2   0.592118 0.124706 0.757895 0.807557
O21   O     O_2   0.423968 0.143265 0.742038 -0.549046
O22   O     O_R   0.653558 0.033700 0.755498 -0.666048
H13   H     H_    0.545076 0.990715 0.739278 0.284563
H14   H     H_    0.663918 0.843876 0.773325 0.169579
C32   C     C_2   0.673603 0.756666 0.627867 0.768386
O23   O     O_2   0.840254 0.772976 0.648052 -0.565844
O24   O     O_R   0.624218 0.752427 0.543979 -0.657887
H15   H     H_    0.739536 0.761200 0.506320 0.293658
C33   C     C_2   0.010832 0.270558 0.850079 0.766094
O25   O     O_2   0.950689 0.349311 0.850762 -0.560425
O26   O     O_R   0.204490 0.253348 0.868824 -0.635290
H16   H     H_    0.280470 0.311426 0.880048 0.294118

loop_
_geom_bond_atom_site_label_1
_geom_bond_atom_site_label_2
_ccdc_geom_bond_type
O19   V4    S    
C21   H9    S    
C7    C8    D    
C1    O6    A    
C23   C24   A    
C12   H5    S    
C7    H1    S    
C33   O26   S    
O5    C3    A    
C13   H6    S    
O13   C30   A    
V2    O10   S    
O11   V4    S    
O12   V3    S    
C5    C7    S    
C18   H14   S    
O8    V2    S    
C1    C20   S    
C19   C32   S    
O11   C28   A    
O7    V1    S    
C25   C26   A    
V3    O20   S    
O17   V3    S    
O14   V3    S    
C21   C22   A    
O22   H13   S    
O13   V3    S    
O12   C27   A    
C15   H7    S    
C24   C25   A    
C5    C31   S    
C15   C20   A    
O24   H15   S    
C3    C11   S    
C31   O21   D    
C4    C8    S    
C33   O25   D    
C14   C30   S    
C32   O24   S    
C19   C20   A    
O4    C2    A    
O26   H16   S    
C6    C29   S    
C10   H4    S    
O15   V3    S    
C31   O22   S    
C16   H8    S    
O2    C1    A    
C22   H10   S    
C17   C18   A    
O16   V4    S    
O9    V2    S    
C9    H3    S    
C5    C6    D    
C22   C23   A    
O3    C4    A    
O1    V2    S    
C25   H12   S    
C8    H2    S    
C23   C27   S    
O6    V2    S    
O14   C28   A    
O15   C29   A    
O2    V1    S    
C21   C26   A    
C27   O16   A    
C24   H11   S    
C6    C33   S    
C16   C17   A    
O1    C2    A    
C2    C26   S    
C32   O23   D    
O5    V1    S    
O8    C3    A    
C10   C11   A    
C9    C14   A    
C12   C13   A    
O7    V2    S    
O4    V1    S    
O3    V1    S    
V1    O10   S    
O17   V4    S    
C13   C14   A    
C18   C19   A    
C15   C16   A    
C9    C10   A    
O18   C29   A    
O19   C30   A    
O18   V4    S    
V4    O20   S    
C11   C12   A    
O9    C4    A    
C17   C28   S    
