data_mof_unit_30410.cif
_audit_creation_date              2012-12-10T17:22:09-0500
_audit_creation_method            fapswitch 2.2
_symmetry_space_group_name_H-M    P1
_symmetry_Int_Tables_number       1
_space_group_crystal_system       triclinic
_cell_length_a                    10.178465
_cell_length_b                    10.521814
_cell_length_c                    15.73807
_cell_angle_alpha                 90.201508
_cell_angle_beta                  81.296581
_cell_angle_gamma                 94.546275
_cell_volume                      1660.77090937

loop_
_atom_site_label
_atom_site_type_symbol
_atom_type_description
_atom_site_fract_x
_atom_site_fract_y
_atom_site_fract_z
_atom_type_partial_charge
C1    C     C_R   0.554754 0.734546 0.498931 0.931351
C2    C     C_2   0.483967 0.929242 0.563117 -0.183530
C3    C     C_2   0.416944 0.131218 0.528778 -0.394326
C4    C     C_R   0.500215 0.500108 0.661657 0.889160
C5    C     C_2   0.495028 0.066360 0.572238 0.125025
C6    C     C_2   0.928876 0.504435 0.509359 -0.069592
C7    C     C_2   0.074680 0.483650 0.495283 -0.150584
C8    C     C_R   0.445318 0.266134 0.510710 0.912662
C9    C     C_R   0.499418 0.498471 0.338504 0.916718
C10   C     C_3   0.410509 0.599399 0.959984 -0.463121
C11   C     C_3   0.641636 0.518440 0.938195 -0.442326
C12   C     C_3   0.388071 0.583076 0.059549 -0.082582
C13   C     C_3   0.634931 0.541987 0.035644 -0.071507
C14   C     C_1   0.497176 0.493637 0.250119 -0.217428
C15   C     C_3   0.497811 0.494769 0.917416 0.290739
C16   C     C_3   0.387697 0.714105 0.106584 -0.427550
C17   C     C_3   0.282531 0.712045 0.188294 -0.345782
C18   C     C_3   0.317973 0.814812 0.251609 -0.856078
C19   C     C_3   0.593523 0.126239 0.627623 -0.340934
C20   C     C_3   0.562650 0.074021 0.720034 -0.365739
C21   C     C_3   0.658018 0.137546 0.776465 -0.922165
C22   C     C_3   0.884250 0.364058 0.394859 -0.197382
C23   C     C_3   0.492524 0.491458 0.083774 0.271029
C24   C     C_3   0.893382 0.228404 0.427659 -0.374799
C25   C     C_3   0.950426 0.143202 0.354856 -0.937342
C26   C     C_3   0.761541 0.505985 0.071810 -0.417183
C27   C     C_3   0.774365 0.363468 0.085613 -0.318405
C28   C     C_3   0.907441 0.341742 0.114494 -0.923573
C29   C     C_3   0.326643 0.282772 0.103291 -0.426522
C30   C     C_3   0.313368 0.140704 0.079899 -0.357584
C31   C     C_3   0.186244 0.073045 0.128614 -0.898115
C32   C     C_3   0.452858 0.353743 0.050693 -0.091019
C33   C     C_3   0.438776 0.362848 0.954007 -0.434317
C34   C     C_1   0.494208 0.490878 0.175222 -0.107717
C35   C     C_1   0.499781 0.497099 0.825844 -0.087277
C36   C     C_1   0.500393 0.498716 0.750498 -0.197244
C37   C     C_2   0.581639 0.869070 0.516689 -0.384645
H1    H     H_    0.491250 0.285401 0.918358 0.161346
H2    H     H_    0.286222 0.535346 0.076857 0.155825
H3    H     H_    0.535362 0.293168 0.055078 0.153864
H4    H     H_    0.762448 0.118690 0.750991 0.266734
H5    H     H_    0.649521 0.242163 0.778652 0.266226
H6    H     H_    0.632863 0.098489 0.842907 0.242146
H7    H     H_    0.458775 0.092002 0.747913 0.218557
H8    H     H_    0.571959 0.969463 0.720354 0.230311
H9    H     H_    0.696137 0.105363 0.599152 0.188201
H10   H     H_    0.590345 0.230958 0.631652 0.221260
H11   H     H_    0.387296 0.880202 0.586702 0.170793
H12   H     H_    0.409235 0.792782 0.277649 0.259801
H13   H     H_    0.339199 0.081114 0.498167 0.136669
H14   H     H_    0.678143 0.918281 0.493103 0.154077
H15   H     H_    0.114412 0.411037 0.452082 0.179543
H16   H     H_    0.892905 0.570189 0.559217 0.138423
H17   H     H_    0.119130 0.620174 0.575564 0.156612
H18   H     H_    0.461391 0.694656 0.940318 0.172441
H19   H     H_    0.887124 0.139143 0.303106 0.267985
H20   H     H_    0.053343 0.180482 0.327781 0.262616
H21   H     H_    0.953678 0.045136 0.379876 0.257299
H22   H     H_    0.957478 0.229486 0.478859 0.215890
H23   H     H_    0.335894 0.909637 0.219564 0.261423
H24   H     H_    0.792312 0.187197 0.455452 0.237823
H25   H     H_    0.808558 0.359508 0.350990 0.208362
H26   H     H_    0.978503 0.402479 0.354933 0.141909
H27   H     H_    0.698938 0.434875 0.918044 0.181175
H28   H     H_    0.694592 0.602837 0.901800 0.157091
H29   H     H_    0.642226 0.647497 0.041516 0.134878
H30   H     H_    0.991521 0.372866 0.063456 0.255840
H31   H     H_    0.918493 0.395091 0.174394 0.260784
H32   H     H_    0.911065 0.238708 0.127692 0.247271
H33   H     H_    0.694363 0.324883 0.136951 0.221350
H34   H     H_    0.234880 0.818063 0.305936 0.250531
H35   H     H_    0.767619 0.310318 0.025156 0.210742
H36   H     H_    0.850683 0.545914 0.027371 0.202083
H37   H     H_    0.764957 0.555180 0.134230 0.204117
H38   H     H_    0.332338 0.349282 0.944529 0.180634
H39   H     H_    0.185174 0.081752 0.199027 0.265055
H40   H     H_    0.097461 0.114665 0.110688 0.262681
H41   H     H_    0.181073 0.970419 0.111734 0.252136
H42   H     H_    0.310915 0.129806 0.009910 0.224818
H43   H     H_    0.400589 0.093576 0.095939 0.211002
H44   H     H_    0.332240 0.288655 0.173121 0.210306
H45   H     H_    0.183781 0.727643 0.169865 0.206273
H46   H     H_    0.235183 0.326954 0.092128 0.207219
H47   H     H_    0.272494 0.618277 0.221720 0.234601
H48   H     H_    0.487697 0.743019 0.123405 0.210647
H49   H     H_    0.364400 0.790322 0.063704 0.195614
H50   H     H_    0.312104 0.593445 0.936808 0.164483
N1    N     N_2   0.842720 0.448890 0.465540 -0.088387
N2    N     N_2   0.157250 0.551040 0.534500 -0.198429
O1    O     O_R   0.431050 0.692470 0.506940 -0.603287
O2    O     O_R   0.651130 0.659650 0.484820 -0.607968
O3    O     O_R   0.389910 0.516410 0.633920 -0.605730
O4    O     O_R   0.609990 0.483590 0.611800 -0.625142
O5    O     O_R   0.348870 0.340350 0.515180 -0.603791
O6    O     O_R   0.568950 0.307530 0.493060 -0.615300
O7    O     O_R   0.390010 0.516410 0.388200 -0.605801
O8    O     O_R   0.610090 0.483590 0.366080 -0.622493
Zn1   Zn    Zn3+2 0.353060 0.521920 0.514770 0.928236
Zn2   Zn    Zn3+2 0.646940 0.478080 0.485230 0.920306

loop_
_geom_bond_atom_site_label_1
_geom_bond_atom_site_label_2
_ccdc_geom_bond_type
C4    C36   S    
C24   H24   S    
C28   H32   S    
C25   H19   S    
C19   H9    S    
O3    Zn1   S    
C12   C23   S    
C26   C27   S    
C1    O1    A    
C28   H31   S    
C7    H15   S    
C29   H46   S    
C29   C32   S    
C10   C15   S    
C30   C31   S    
C37   H14   S    
C19   H10   S    
O5    Zn1   S    
C7    N2    D    
C26   H36   S    
C6    N1    D    
C13   C23   S    
C17   H45   S    
O8    Zn2   S    
C22   H26   S    
C21   H6    S    
C11   C15   S    
C33   H38   S    
C12   C16   S    
C16   C17   S    
O7    Zn1   S    
C22   N1    S    
O4    Zn2   S    
C20   H8    S    
C1    C37   S    
C30   H43   S    
C1    O2    A    
C16   H49   S    
C8    O6    A    
C25   H20   S    
C15   C35   S    
C20   H7    S    
C3    H13   S    
C31   H40   S    
C13   H29   S    
C10   H50   S    
C28   H30   S    
C8    O5    A    
C24   C25   S    
H17   N2    S    
C3    C8    S    
C2    H11   S    
C4    O4    A    
C35   C36   T    
C9    C14   S    
C29   H44   S    
C29   C30   S    
C22   H25   S    
C23   C34   S    
C17   C18   S    
C10   H18   S    
C9    O7    A    
C27   H33   S    
C10   C12   S    
C21   H4    S    
C30   H42   S    
C18   H23   S    
C11   H27   S    
C16   H48   S    
C22   C24   S    
C13   C26   S    
C2    C5    S    
C25   H21   S    
C6    H16   S    
C31   H41   S    
C18   H34   S    
C9    O8    A    
C3    C5    D    
C14   C34   T    
C6    C7    S    
C5    C19   S    
C33   H1    S    
N2    Zn1   S    
C17   H47   S    
C23   C32   S    
C19   C20   S    
C32   C33   S    
C11   C13   S    
C2    C37   D    
C31   H39   S    
C12   H2    S    
C24   H22   S    
C26   H37   S    
O1    Zn1   S    
O6    Zn2   S    
C32   H3    S    
N1    Zn2   S    
C21   H5    S    
C20   C21   S    
C27   C28   S    
O2    Zn2   S    
C15   C33   S    
C27   H35   S    
C11   H28   S    
C18   H12   S    
C4    O3    A    
