data_mof_unit_56655.cif
_audit_creation_date              2012-12-11T17:07:47-0500
_audit_creation_method            fapswitch 2.2
_symmetry_space_group_name_H-M    P1
_symmetry_Int_Tables_number       1
_space_group_crystal_system       monoclinic
_cell_length_a                    17.184701
_cell_length_b                    17.184701
_cell_length_c                    17.305026
_cell_angle_alpha                 90.0
_cell_angle_beta                  90.0
_cell_angle_gamma                 89.999986
_cell_volume                      5110.41555625

loop_
_atom_site_label
_atom_site_type_symbol
_atom_type_description
_atom_site_fract_x
_atom_site_fract_y
_atom_site_fract_z
_atom_type_partial_charge
C1    C     C_R   0.425460 0.332411 0.855033 -0.155251
C2    C     C_R   0.167589 0.925460 0.355033 -0.155249
C3    C     C_R   0.683282 0.772106 0.346953 -0.197296
C4    C     C_R   0.227894 0.316717 0.653047 -0.197297
C5    C     C_R   0.223515 0.863525 0.801536 -0.177960
C6    C     C_R   0.772106 0.683282 0.653047 -0.197297
C7    C     C_R   0.776485 0.136475 0.801536 -0.177959
C8    C     C_R   0.727894 0.183282 0.846953 -0.197297
C9    C     C_R   0.723514 0.636475 0.698464 -0.177958
C10   C     C_R   0.272106 0.816718 0.846952 -0.197296
C11   C     C_R   0.276485 0.363525 0.698464 -0.177958
C12   C     C_R   0.636475 0.723515 0.301536 -0.177959
C13   C     C_R   0.105337 0.197439 0.397192 -0.143450
C14   C     C_R   0.816718 0.272106 0.153047 -0.197297
C15   C     C_R   0.363525 0.276485 0.301536 -0.177958
C16   C     C_R   0.183282 0.727894 0.153047 -0.197297
C17   C     C_3   0.982765 0.332360 0.771265 -1.033005
C18   C     C_3   0.720967 0.895730 0.773125 -1.009032
C19   C     C_3   0.017235 0.667640 0.771267 -1.033011
C20   C     C_3   0.279033 0.104270 0.773124 -1.009033
C21   C     C_3   0.895730 0.720967 0.226875 -1.009033
C22   C     C_3   0.667640 0.017235 0.228736 -1.033024
C23   C     C_3   0.104270 0.279033 0.226876 -1.009033
C24   C     C_R   0.832411 0.074540 0.355033 -0.155251
C25   C     C_3   0.332360 0.982765 0.228735 -1.033013
C26   C     C_3   0.395730 0.779034 0.273124 -1.009032
C27   C     C_3   0.167640 0.482764 0.271264 -1.033028
C28   C     C_3   0.604270 0.220966 0.273124 -1.009032
C29   C     C_3   0.832360 0.517236 0.271263 -1.033028
C30   C     C_3   0.482764 0.167640 0.728737 -1.033028
C31   C     C_3   0.220964 0.604269 0.726877 -1.009033
C32   C     C_3   0.517236 0.832360 0.728737 -1.033023
C33   C     C_3   0.779034 0.395730 0.726876 -1.009031
C34   C     C_R   0.925460 0.167589 0.644967 -0.155249
C35   C     C_R   0.197439 0.105337 0.602808 -0.143449
C36   C     C_R   0.074540 0.832411 0.644967 -0.155246
C37   C     C_R   0.802561 0.894663 0.602808 -0.143449
C38   C     C_3   0.899429 0.313462 0.745217 0.026763
C39   C     C_3   0.661112 0.863993 0.714935 0.037688
C40   C     C_3   0.100570 0.686538 0.745218 0.026764
C41   C     C_R   0.697439 0.394663 0.897192 -0.143450
C42   C     C_3   0.338888 0.136007 0.714935 0.037689
C43   C     C_3   0.863993 0.661112 0.285065 0.037689
C44   C     C_3   0.686538 0.100571 0.254783 0.026767
C45   C     C_3   0.136007 0.338888 0.285065 0.037689
C46   C     C_3   0.313462 0.899429 0.254783 0.026764
C47   C     C_3   0.363993 0.838889 0.214934 0.037689
C48   C     C_3   0.186537 0.399429 0.245216 0.026767
C49   C     C_3   0.636007 0.161111 0.214934 0.037688
C50   C     C_3   0.813462 0.600571 0.245216 0.026767
C51   C     C_3   0.399429 0.186537 0.754784 0.026767
C52   C     C_R   0.574540 0.667589 0.855033 -0.155251
C53   C     C_3   0.161110 0.636007 0.785068 0.037686
C54   C     C_3   0.600571 0.813462 0.754784 0.026766
C55   C     C_3   0.838889 0.363993 0.785066 0.037687
C56   C     C_R   0.393284 0.697089 0.895376 -0.160664
C57   C     C_R   0.330082 0.420442 0.855157 -0.122924
C58   C     C_R   0.606716 0.302911 0.895376 -0.160664
C59   C     C_R   0.669918 0.579558 0.855157 -0.122924
C60   C     C_R   0.420442 0.330082 0.144843 -0.122925
C61   C     C_R   0.302911 0.606716 0.104624 -0.160664
C62   C     C_R   0.579558 0.669918 0.144843 -0.122924
C63   C     C_R   0.302561 0.605338 0.897192 -0.143449
C64   C     C_R   0.697089 0.393284 0.104624 -0.160664
C65   C     C_R   0.920442 0.169918 0.355157 -0.122924
C66   C     C_R   0.802911 0.893284 0.395376 -0.160664
C67   C     C_R   0.079558 0.830082 0.355157 -0.122925
C68   C     C_R   0.197089 0.106716 0.395376 -0.160664
C69   C     C_R   0.893283 0.802911 0.604624 -0.160664
C70   C     C_R   0.830082 0.079558 0.644843 -0.122925
C71   C     C_R   0.106716 0.197089 0.604624 -0.160664
C72   C     C_R   0.169918 0.920442 0.644843 -0.122926
C73   C     C_R   0.365621 0.362120 0.811285 0.067878
C74   C     C_R   0.394663 0.697439 0.102808 -0.143450
C75   C     C_R   0.683538 0.318355 0.877670 0.100831
C76   C     C_R   0.634378 0.637880 0.811285 0.067878
C77   C     C_R   0.316462 0.681645 0.877670 0.100831
C78   C     C_R   0.318356 0.683538 0.122330 0.100831
C79   C     C_R   0.637880 0.634378 0.188715 0.067878
C80   C     C_R   0.681644 0.316462 0.122330 0.100831
C81   C     C_R   0.362120 0.365621 0.188715 0.067878
C82   C     C_R   0.818356 0.816461 0.377670 0.100831
C83   C     C_R   0.137880 0.865622 0.311285 0.067878
C84   C     C_R   0.181644 0.183538 0.377670 0.100831
C85   C     C_R   0.667589 0.574540 0.144967 -0.155251
C86   C     C_R   0.862120 0.134378 0.311285 0.067878
C87   C     C_R   0.865622 0.137880 0.688715 0.067879
C88   C     C_R   0.183538 0.181644 0.622330 0.100831
C89   C     C_R   0.134379 0.862120 0.688715 0.067879
C90   C     C_R   0.816462 0.818356 0.622330 0.100831
C91   C     C_R   0.814435 0.291116 0.826452 0.037884
C92   C     C_R   0.634304 0.743958 0.712794 0.093922
C93   C     C_R   0.185565 0.708884 0.826453 0.037885
C94   C     C_R   0.365696 0.256042 0.712794 0.093922
C95   C     C_R   0.743958 0.634304 0.287206 0.093922
C96   C     C_R   0.605337 0.302561 0.102808 -0.143449
C97   C     C_R   0.708884 0.185565 0.173548 0.037883
C98   C     C_R   0.256042 0.365696 0.287206 0.093922
C99   C     C_R   0.291116 0.814435 0.173547 0.037883
C100  C     C_R   0.243957 0.865696 0.212794 0.093920
C101  C     C_R   0.208883 0.314435 0.326452 0.037883
C102  C     C_R   0.756042 0.134304 0.212794 0.093921
C103  C     C_R   0.791116 0.685565 0.326452 0.037883
C104  C     C_R   0.314435 0.208884 0.673548 0.037883
C105  C     C_R   0.134303 0.756043 0.787207 0.093917
C106  C     C_R   0.685565 0.791116 0.673548 0.037884
C107  C     C_R   0.332411 0.425460 0.144967 -0.155251
C108  C     C_R   0.865697 0.243957 0.787206 0.093918
C109  C     C_R   0.742689 0.263630 0.852452 0.056434
C110  C     C_R   0.659735 0.670002 0.737278 0.028559
C111  C     C_R   0.257311 0.736370 0.852452 0.056433
C112  C     C_R   0.340265 0.329998 0.737278 0.028560
C113  C     C_R   0.670002 0.659735 0.262722 0.028560
C114  C     C_R   0.736370 0.257311 0.147548 0.056433
C115  C     C_R   0.329998 0.340265 0.262722 0.028560
C116  C     C_R   0.263630 0.742689 0.147548 0.056434
C117  C     C_R   0.170002 0.840265 0.237278 0.028561
C118  C     C_R   0.894662 0.802561 0.397192 -0.143449
C119  C     C_R   0.236370 0.242689 0.352452 0.056433
C120  C     C_R   0.829998 0.159735 0.237278 0.028560
C121  C     C_R   0.763630 0.757311 0.352452 0.056433
C122  C     C_R   0.242689 0.236370 0.647548 0.056433
C123  C     C_R   0.159735 0.829998 0.762722 0.028563
C124  C     C_R   0.757311 0.763630 0.647548 0.056433
C125  C     C_R   0.840265 0.170002 0.762722 0.028561
C126  C     C_R   0.136475 0.776485 0.198464 -0.177959
C127  C     C_R   0.316717 0.227894 0.346953 -0.197297
C128  C     C_R   0.863525 0.223515 0.198464 -0.177959
H1    H     H_    0.468097 0.290588 0.837980 0.119369
H2    H     H_    0.209412 0.968097 0.337980 0.119368
H3    H     H_    0.889228 0.499255 0.246591 0.258252
H4    H     H_    0.486844 0.164381 0.664697 0.259778
H5    H     H_    0.524066 0.212789 0.749000 0.257815
H6    H     H_    0.500745 0.110772 0.753409 0.258252
H7    H     H_    0.249665 0.652293 0.694596 0.264292
H8    H     H_    0.266263 0.569344 0.756038 0.255338
H9    H     H_    0.191115 0.565568 0.684898 0.249897
H10   H     H_    0.513157 0.835622 0.664697 0.259777
H11   H     H_    0.475934 0.787209 0.748997 0.257815
H12   H     H_    0.499253 0.889226 0.753412 0.258251
H13   H     H_    0.077778 0.253465 0.404215 0.091863
H14   H     H_    0.750333 0.347706 0.694596 0.264292
H15   H     H_    0.733736 0.430655 0.756037 0.255339
H16   H     H_    0.808883 0.434431 0.684895 0.249897
H17   H     H_    0.790588 0.031903 0.337980 0.119369
H18   H     H_    0.968097 0.209412 0.662020 0.119367
H19   H     H_    0.253465 0.077778 0.595784 0.091863
H20   H     H_    0.031903 0.790588 0.662020 0.119366
H21   H     H_    0.746535 0.922222 0.595785 0.091863
H22   H     H_    0.892580 0.312249 0.681346 0.153405
H23   H     H_    0.636507 0.909141 0.675881 0.141807
H24   H     H_    0.107418 0.687750 0.681347 0.153406
H25   H     H_    0.753465 0.422221 0.904215 0.091864
H26   H     H_    0.363493 0.090859 0.675880 0.141807
H27   H     H_    0.909141 0.636507 0.324119 0.141807
H28   H     H_    0.687752 0.107420 0.318655 0.153405
H29   H     H_    0.090859 0.363493 0.324119 0.141807
H30   H     H_    0.312249 0.892580 0.318654 0.153405
H31   H     H_    0.409140 0.863494 0.175879 0.141807
H32   H     H_    0.187751 0.392579 0.181345 0.153405
H33   H     H_    0.590860 0.136506 0.175880 0.141806
H34   H     H_    0.812248 0.607421 0.181345 0.153405
H35   H     H_    0.392579 0.187751 0.818655 0.153405
H36   H     H_    0.531903 0.709412 0.837980 0.119369
H37   H     H_    0.136505 0.590861 0.824123 0.141808
H38   H     H_    0.607421 0.812248 0.818655 0.153405
H39   H     H_    0.863494 0.409140 0.824121 0.141806
H40   H     H_    0.420336 0.753751 0.898966 0.091242
H41   H     H_    0.281119 0.456226 0.839046 0.096004
H42   H     H_    0.579664 0.246249 0.898966 0.091241
H43   H     H_    0.718881 0.543774 0.839045 0.096004
H44   H     H_    0.456226 0.281119 0.160954 0.096004
H45   H     H_    0.246249 0.579664 0.101034 0.091241
H46   H     H_    0.543774 0.718881 0.160954 0.096004
H47   H     H_    0.246535 0.577779 0.904216 0.091864
H48   H     H_    0.753751 0.420336 0.101034 0.091241
H49   H     H_    0.956226 0.218881 0.339045 0.096004
H50   H     H_    0.746249 0.920336 0.398966 0.091241
H51   H     H_    0.043774 0.781119 0.339045 0.096004
H52   H     H_    0.253751 0.079664 0.398966 0.091240
H53   H     H_    0.920336 0.746249 0.601034 0.091238
H54   H     H_    0.781119 0.043774 0.660954 0.096004
H55   H     H_    0.079664 0.253751 0.601034 0.091240
H56   H     H_    0.218881 0.956226 0.660954 0.096004
H57   H     H_    0.077432 0.758386 0.210545 0.131488
H58   H     H_    0.422221 0.753465 0.095784 0.091864
H59   H     H_    0.341904 0.175138 0.370078 0.124384
H60   H     H_    0.922567 0.241614 0.210545 0.131488
H61   H     H_    0.658096 0.824862 0.370077 0.124384
H62   H     H_    0.175138 0.341904 0.629923 0.124384
H63   H     H_    0.241614 0.922567 0.789455 0.131488
H64   H     H_    0.824862 0.658096 0.629922 0.124384
H65   H     H_    0.758386 0.077433 0.789455 0.131488
H66   H     H_    0.675138 0.158096 0.870077 0.124384
H67   H     H_    0.741614 0.577433 0.710545 0.131488
H68   H     H_    0.324862 0.841904 0.870077 0.124384
H69   H     H_    0.709412 0.531903 0.162020 0.119369
H70   H     H_    0.258386 0.422567 0.710545 0.131487
H71   H     H_    0.577433 0.741614 0.289455 0.131488
H72   H     H_    0.841904 0.324862 0.129923 0.124384
H73   H     H_    0.422567 0.258386 0.289455 0.131488
H74   H     H_    0.158096 0.675138 0.129923 0.124384
H75   H     H_    0.986844 0.335612 0.835306 0.259775
H76   H     H_    0.024068 0.287214 0.750996 0.257810
H77   H     H_    0.000743 0.389232 0.746598 0.258247
H78   H     H_    0.749668 0.847705 0.805404 0.264292
H79   H     H_    0.766265 0.930655 0.743963 0.255338
H80   H     H_    0.577778 0.246535 0.095785 0.091863
H81   H     H_    0.691118 0.934429 0.815106 0.249898
H82   H     H_    0.013153 0.664401 0.835309 0.259779
H83   H     H_    0.975929 0.712778 0.750987 0.257810
H84   H     H_    0.999261 0.610762 0.746612 0.258250
H85   H     H_    0.250332 0.152295 0.805404 0.264292
H86   H     H_    0.233735 0.069345 0.743963 0.255339
H87   H     H_    0.308881 0.065570 0.815106 0.249898
H88   H     H_    0.847705 0.749668 0.194596 0.264292
H89   H     H_    0.930655 0.766265 0.256037 0.255339
H90   H     H_    0.934430 0.691118 0.184894 0.249898
H91   H     H_    0.290588 0.468097 0.162020 0.119369
H92   H     H_    0.664381 0.013156 0.164696 0.259777
H93   H     H_    0.712790 0.975933 0.248999 0.257815
H94   H     H_    0.610773 0.999254 0.253408 0.258251
H95   H     H_    0.152295 0.250332 0.194596 0.264292
H96   H     H_    0.069345 0.233735 0.256037 0.255339
H97   H     H_    0.065570 0.308881 0.184894 0.249898
H98   H     H_    0.335614 0.986844 0.164694 0.259777
H99   H     H_    0.287214 0.024068 0.249003 0.257812
H100  H     H_    0.389231 0.000744 0.253403 0.258250
H101  H     H_    0.347706 0.750333 0.305404 0.264292
H102  H     H_    0.922221 0.746535 0.404215 0.091863
H103  H     H_    0.430655 0.733736 0.243963 0.255338
H104  H     H_    0.434431 0.808883 0.315104 0.249897
H105  H     H_    0.164381 0.486844 0.335303 0.259778
H106  H     H_    0.212789 0.524066 0.251000 0.257815
H107  H     H_    0.110772 0.500745 0.246591 0.258252
H108  H     H_    0.652294 0.249667 0.305404 0.264292
H109  H     H_    0.569345 0.266264 0.243963 0.255338
H110  H     H_    0.565569 0.191117 0.315105 0.249897
H111  H     H_    0.835619 0.513156 0.335303 0.259779
H112  H     H_    0.787211 0.475934 0.251000 0.257815
N1    N     N_R   0.425360 0.368540 0.922560 -0.041340
N2    N     N_R   0.131460 0.925360 0.422560 -0.041340
N3    N     N_R   0.074640 0.131460 0.422560 -0.037296
N4    N     N_R   0.868540 0.074640 0.422560 -0.041340
N5    N     N_R   0.925360 0.131460 0.577440 -0.041340
N6    N     N_R   0.131460 0.074640 0.577440 -0.037296
N7    N     N_R   0.074640 0.868540 0.577440 -0.041340
N8    N     N_R   0.868540 0.925360 0.577440 -0.037296
N9    N     N_R   0.425340 0.631500 0.922560 -0.035497
N10   N     N_R   0.368500 0.425340 0.922560 -0.041327
N11   N     N_R   0.574660 0.368500 0.922560 -0.035496
N12   N     N_R   0.631460 0.425360 0.922560 -0.037296
N13   N     N_R   0.631500 0.574660 0.922560 -0.041327
N14   N     N_R   0.425340 0.368500 0.077440 -0.041327
N15   N     N_R   0.368500 0.574660 0.077440 -0.035496
N16   N     N_R   0.574660 0.631500 0.077440 -0.041327
N17   N     N_R   0.631500 0.425340 0.077440 -0.035496
N18   N     N_R   0.925340 0.131500 0.422560 -0.041327
N19   N     N_R   0.868500 0.925340 0.422560 -0.035496
N20   N     N_R   0.074660 0.868500 0.422560 -0.041327
N21   N     N_R   0.131500 0.074660 0.422560 -0.035496
N22   N     N_R   0.925340 0.868500 0.577440 -0.035496
N23   N     N_R   0.574640 0.631460 0.922560 -0.041340
N24   N     N_R   0.868500 0.074660 0.577440 -0.041327
N25   N     N_R   0.074660 0.131500 0.577440 -0.035496
N26   N     N_R   0.131500 0.925340 0.577440 -0.041327
N27   N     N_R   0.368540 0.574640 0.922560 -0.037296
N28   N     N_R   0.425360 0.631460 0.077440 -0.037296
N29   N     N_R   0.631460 0.574640 0.077440 -0.041340
N30   N     N_R   0.574640 0.368540 0.077440 -0.037296
N31   N     N_R   0.368540 0.425360 0.077440 -0.041340
N32   N     N_R   0.925360 0.868540 0.422560 -0.037296
Ni1   Ni    Ni4+2 0.500000 0.369720 0.000000 0.210165
Ni2   Ni    Ni4+2 0.630280 0.500000 0.000000 0.210165
Ni3   Ni    Ni4+2 0.500000 0.630280 0.000000 0.210165
Ni4   Ni    Ni4+2 0.369720 0.500000 0.000000 0.210165
Ni5   Ni    Ni4+2 0.000000 0.869720 0.500000 0.210165
Ni6   Ni    Ni4+2 0.130280 0.000000 0.500000 0.210165
Ni7   Ni    Ni4+2 1.000000 0.130280 0.500000 0.210165
Ni8   Ni    Ni4+2 0.869720 0.000000 0.500000 0.210165

loop_
_geom_bond_atom_site_label_1
_geom_bond_atom_site_label_2
_ccdc_geom_bond_type
C44   C49   S    
C33   C55   S    
C39   C106  S    
C22   H92   S    
C30   C51   S    
C81   C107  A    
C67   C83   A    
N32   Ni5   S    
C23   C45   S    
C59   N13   A    
C19   H82   S    
C25   H98   S    
C16   C126  A    
C66   C82   A    
C55   H39   S    
C63   N27   A    
C69   H53   S    
C6    C9    A    
C58   N11   A    
C68   C84   A    
C14   C128  A    
C7    C8    A    
C47   H31   S    
N26   Ni6   S    
C70   N24   A    
C48   H32   S    
C13   C84   A    
C40   H24   S    
N17   Ni2   S    
C37   N8    A    
C65   H49   S    
N29   Ni2   S    
C4    C122  A    
C19   H83   S    
C13   H13   S    
C42   H26   S    
C95   C113  A    
C32   H12   S    
N1    Ni1   S    
N13   Ni2   S    
C3    H61   S    
C119  C127  A    
C70   H54   S    
N11   Ni1   S    
C59   H43   S    
C50   C95   S    
C96   H80   S    
C39   C54   S    
C104  C122  A    
N15   N28   A    
C57   C73   A    
C62   H46   S    
C39   H23   S    
N14   N31   A    
N4    Ni8   S    
C47   C99   S    
C105  C123  A    
N6    Ni6   S    
C28   C49   S    
C85   N29   A    
C77   C111  S    
C55   C91   S    
C3    C12   A    
C27   H106  S    
C28   H110  S    
C61   H45   S    
C21   C43   S    
N7    N26   A    
C74   N28   A    
C36   H20   S    
C22   C44   S    
N21   Ni6   S    
C30   H6    S    
C127  H59   S    
N9    Ni3   S    
N16   Ni3   S    
C51   H35   S    
C6    C124  A    
C108  C125  A    
C80   C96   A    
N6    N25   A    
C117  C126  A    
C82   C121  S    
C49   H33   S    
C67   N20   A    
C29   H111  S    
C27   H107  S    
C42   C51   S    
C17   C38   S    
C41   N12   A    
C93   C105  A    
C43   H27   S    
N13   N23   A    
C94   C104  A    
C71   N25   A    
C21   H89   S    
C38   C108  S    
C64   C80   A    
N30   Ni1   S    
C81   C115  S    
C2    C83   A    
N2    N20   A    
C54   H38   S    
C41   H25   S    
C16   H74   S    
C70   C87   A    
C16   C116  A    
C72   N26   A    
C68   N21   A    
C23   H97   S    
N14   Ni1   S    
C95   C103  A    
C58   C75   A    
N7    Ni5   S    
C57   H41   S    
C29   C50   S    
C33   H16   S    
N31   Ni4   S    
C22   H93   S    
N27   Ni4   S    
C75   C109  S    
C32   H10   S    
C38   C55   S    
C53   C93   S    
C19   H84   S    
C60   H44   S    
C20   H87   S    
C4    H62   S    
C62   C79   A    
C65   C86   A    
C18   H81   S    
N4    N18   A    
C72   H56   S    
C32   H11   S    
C88   C122  S    
C26   H101  S    
N3    Ni7   S    
C99   C116  A    
C44   C102  S    
C91   C109  A    
N25   Ni7   S    
C89   C123  S    
C26   H104  S    
C14   C114  A    
N22   Ni5   S    
C107  N31   A    
C68   H52   S    
C118  N32   A    
C33   H15   S    
C56   C77   A    
C24   C86   A    
N20   Ni5   S    
C18   H79   S    
C58   H42   S    
C101  C119  A    
C15   H73   S    
C17   H76   S    
C62   N16   A    
C18   C39   S    
C97   C114  A    
C54   C92   S    
C45   C101  S    
C10   H68   S    
C28   H109  S    
C41   C75   A    
C22   H94   S    
C35   C88   A    
C44   H28   S    
C99   C100  A    
C66   H50   S    
C61   C78   A    
C80   C114  S    
C30   H5    S    
N19   Ni8   S    
C56   N9    A    
C56   H40   S    
C34   N5    A    
C60   N14   A    
N11   N12   A    
C21   H88   S    
C45   H29   S    
C10   C111  A    
N5    Ni7   S    
C35   H19   S    
C31   C53   S    
C4    C11   A    
C8    H66   S    
C24   H17   S    
C2    N2    A    
C64   H48   S    
C5    H63   S    
C1    N1    A    
C26   C47   S    
C52   H36   S    
C107  H91   S    
C83   C117  S    
C37   C90   A    
C85   H69   S    
C7    C125  A    
C28   H108  S    
C66   N19   A    
N24   Ni8   S    
N23   Ni3   S    
C21   H90   S    
C79   C113  S    
C36   C89   A    
C33   H14   S    
C15   C115  A    
C31   H9    S    
N2    Ni6   S    
C106  C124  A    
C69   C90   A    
C103  C121  A    
C15   C127  A    
C79   C85   A    
C102  C120  A    
C64   N17   A    
C73   C112  S    
C12   C113  A    
C63   C77   A    
C45   C48   S    
C92   C106  A    
C9    C110  A    
N8    N22   A    
C46   C100  S    
C46   C47   S    
C35   N6    A    
C29   H112  S    
C87   C125  S    
C17   H75   S    
C11   C112  A    
C128  H60   S    
C90   C124  S    
C91   C108  A    
C126  H57   S    
C78   C116  S    
N1    N10   A    
C97   C102  A    
C52   N23   A    
C23   H95   S    
C31   H8    S    
C52   C76   A    
C42   C104  S    
C53   H37   S    
C20   C42   S    
C120  C128  A    
C43   C50   S    
C63   H47   S    
C69   N22   A    
N17   N30   A    
C26   H103  S    
C37   H21   S    
C98   C101  A    
C48   C98   S    
N16   N29   A    
C5    C123  A    
C25   H100  S    
C1    H1    S    
C32   C54   S    
C76   C110  S    
N15   Ni4   S    
C18   H78   S    
C1    C73   A    
C50   H34   S    
N9    N27   A    
C17   H77   S    
C65   N18   A    
C14   H72   S    
C11   H70   S    
C5    C10   A    
C93   C111  A    
C67   H51   S    
C9    H67   S    
C20   H85   S    
C72   C89   A    
C34   H18   S    
C92   C110  A    
C98   C115  A    
C13   N3    A    
N12   Ni2   S    
C118  H102  S    
C84   C119  S    
C30   H4    S    
C25   C46   S    
N28   Ni3   S    
C94   C112  A    
C7    H65   S    
C2    H2    S    
C60   C81   A    
C25   H99   S    
C24   N4    A    
C34   C87   A    
C27   C48   S    
C12   H71   S    
C43   C103  S    
N8    Ni8   S    
C31   H7    S    
C19   C40   S    
C27   H105  S    
C51   C94   S    
C49   C97   S    
C71   C88   A    
C29   H3    S    
C23   H96   S    
C61   N15   A    
C40   C53   S    
C74   C78   A    
C6    H64   S    
N18   Ni7   S    
C36   N7    A    
C82   C118  A    
N10   Ni4   S    
C86   C120  S    
C100  C117  A    
N3    N21   A    
C57   N10   A    
C8    C109  A    
N5    N24   A    
C96   N30   A    
C59   C76   A    
C38   H22   S    
N19   N32   A    
C3    C121  A    
C20   H86   S    
C40   C105  S    
C74   H58   S    
C71   H55   S    
C46   H30   S    
