data_mof_unit_39830.cif
_audit_creation_date              2013-03-05T16:02:43-0500
_audit_creation_method            fapswitch 2.2
_symmetry_space_group_name_H-M    P1
_symmetry_Int_Tables_number       1
_space_group_crystal_system       triclinic
_cell_length_a                    14.866478
_cell_length_b                    14.271533
_cell_length_c                    15.706032
_cell_angle_alpha                 91.877104
_cell_angle_beta                  87.011152
_cell_angle_gamma                 91.621463
_cell_volume                      3324.80950096

loop_
_atom_site_label
_atom_site_type_symbol
_atom_site_description
_atom_site_fract_x
_atom_site_fract_y
_atom_site_fract_z
_atom_type_partial_charge
O1    O     O_R   0.367860 0.580280 0.500020 -0.616567
O2    O     O_R   0.367860 0.419720 0.500020 -0.630459
C1    C     C_R   0.327523 0.498681 0.498326 0.890464
O3    O     O_R   0.500020 0.580310 0.377140 -0.618846
O4    O     O_R   0.500020 0.419690 0.377140 -0.621869
C2    C     C_R   0.499559 0.498643 0.338693 0.905130
Zn1   Zn    Zn3+2 0.500020 0.607200 0.499990 0.939165
Zn2   Zn    Zn3+2 0.500020 0.392800 0.499990 0.943741
O5    O     O_R   0.632160 0.580270 0.499980 -0.623456
O6    O     O_R   0.632160 0.419730 0.499980 -0.619558
O7    O     O_R   0.500010 0.580240 0.622850 -0.625445
O8    O     O_R   0.500010 0.419760 0.622850 -0.609660
C3    C     C_R   0.672673 0.500988 0.498758 0.881554
C4    C     C_R   0.499018 0.501305 0.661431 0.898078
C5    C     C_3   0.443518 0.596595 0.057784 0.219350
C6    C     C_3   0.421350 0.409693 0.049738 0.199955
C7    C     C_3   0.431420 0.407954 0.948918 0.019743
C8    C     C_3   0.435063 0.592830 0.957581 0.009067
H1    H     H_    0.479858 0.352027 0.928584 0.153874
H2    H     H_    0.476491 0.652032 0.929894 0.146288
C9    C     C_1   0.492551 0.503824 0.750467 -0.196853
C10   C     C_3   0.479520 0.497602 0.084252 0.177602
C11   C     C_3   0.479282 0.501344 0.917816 0.224393
C12   C     C_3   0.577685 0.500592 0.946967 -0.548075
C13   C     C_3   0.577615 0.487813 0.043774 -0.513058
C14   C     C_1   0.485910 0.503723 0.825914 -0.051346
C15   C     C_1   0.486359 0.495486 0.175679 -0.055305
C16   C     C_1   0.493111 0.495745 0.250396 -0.156323
H3    H     H_    0.625693 0.539593 0.072218 0.219704
H4    H     H_    0.605305 0.418343 0.056360 0.206150
H5    H     H_    0.614130 0.567364 0.930509 0.207490
H6    H     H_    0.615985 0.442933 0.913679 0.211681
C17   C     C_R   0.816244 0.508748 0.413806 -0.032602
C18   C     C_R   0.768834 0.501449 0.492821 -0.096186
C19   C     C_R   0.809889 0.480312 0.566015 -0.240605
C20   C     C_R   0.902014 0.468562 0.564943 0.045451
C21   C     C_R   0.953212 0.478733 0.486726 -0.010631
C22   C     C_R   0.910973 0.495555 0.408692 0.029363
C23   C     C_R   0.943175 0.446914 0.640899 -0.009634
C24   C     C_R   0.037342 0.441534 0.641102 0.156258
C25   C     C_R   0.088943 0.460414 0.565072 0.115709
C26   C     C_R   0.047037 0.475661 0.487610 -0.065657
C27   C     C_R   0.099746 0.489240 0.411170 0.065442
C28   C     C_R   0.058424 0.479889 0.332492 0.187874
C29   C     C_R   0.965041 0.493849 0.330071 0.153413
C30   C     C_R   0.182475 0.464903 0.564608 -0.301553
C31   C     C_R   0.232212 0.493965 0.493066 -0.066176
C32   C     C_R   0.192455 0.510603 0.416409 0.145531
H7    H     H_    0.767974 0.472807 0.624142 0.148400
H8    H     H_    0.218345 0.451116 0.620954 0.153938
C33   C     C_R   0.553890 0.799116 0.441269 0.225810
C34   C     C_R   0.558868 0.200206 0.445642 0.238732
N1    N     N_R   0.500070 0.750030 0.500040 -0.107935
N2    N     N_R   0.500070 0.249970 0.500040 -0.106518
C35   C     C_R   0.449886 0.799808 0.562063 0.221542
C36   C     C_R   0.436793 0.201095 0.550310 0.225341
C37   C     C_R   0.440173 0.899512 0.557422 -0.049862
C38   C     C_R   0.442067 0.101438 0.559034 -0.051101
C39   C     C_R   0.497760 0.949630 0.500026 0.015229
C40   C     C_R   0.498788 0.050455 0.500901 0.013531
C41   C     C_R   0.554298 0.899237 0.441235 0.034326
C42   C     C_R   0.557159 0.100021 0.443690 0.033161
C43   C     C_R   0.378691 0.951898 0.611085 -0.041094
C44   C     C_R   0.389084 0.049996 0.620254 -0.038396
C45   C     C_R   0.612782 0.047901 0.385399 -0.188974
C46   C     C_R   0.610538 0.950508 0.383475 -0.189301
H9    H     H_    0.659105 0.081109 0.339656 0.156930
H10   H     H_    0.654349 0.916606 0.335567 0.158601
C47   C     C_3   0.340435 0.611939 0.926591 -0.898881
H11   H     H_    0.286832 0.567997 0.957254 0.248485
H12   H     H_    0.323747 0.686288 0.941261 0.245944
H13   H     H_    0.338335 0.601128 0.856430 0.247546
C48   C     C_3   0.347028 0.374803 0.901192 -0.886794
H14   H     H_    0.292708 0.425907 0.905044 0.252936
H15   H     H_    0.365161 0.360652 0.832570 0.246670
H16   H     H_    0.320000 0.307662 0.927165 0.255309
C49   C     C_3   0.083393 0.417957 0.721857 -0.904499
H17   H     H_    0.036436 0.400483 0.776405 0.253106
H18   H     H_    0.125927 0.355810 0.709059 0.242053
H19   H     H_    0.126046 0.478639 0.742895 0.237847
C50   C     C_3   0.247646 0.558706 0.345421 -0.906901
H20   H     H_    0.205080 0.588404 0.297796 0.252893
H21   H     H_    0.285835 0.620050 0.371535 0.261852
H22   H     H_    0.295813 0.509113 0.313611 0.227439
C51   C     C_3   0.110026 0.438045 0.254783 -0.912743
H23   H     H_    0.126932 0.492045 0.206818 0.238873
H24   H     H_    0.172808 0.404735 0.272073 0.253803
H25   H     H_    0.068959 0.380819 0.225079 0.250760
C52   C     C_3   0.926365 0.506334 0.243589 -0.860412
H26   H     H_    0.976925 0.506129 0.189412 0.240836
H27   H     H_    0.876941 0.448757 0.229925 0.247395
H28   H     H_    0.895975 0.576284 0.241962 0.247739
C53   C     C_3   0.618602 0.749186 0.379074 -0.801034
H29   H     H_    0.623011 0.674634 0.388073 0.296041
H30   H     H_    0.599127 0.759089 0.312715 0.227051
H31   H     H_    0.688282 0.776980 0.387034 0.204528
C54   C     C_3   0.623095 0.249525 0.382946 -0.819039
H32   H     H_    0.619200 0.325212 0.383808 0.291648
H33   H     H_    0.693621 0.233158 0.395778 0.213780
H34   H     H_    0.608336 0.226385 0.316813 0.214249
C55   C     C_3   0.423995 0.752073 0.644286 -0.768774
H35   H     H_    0.396886 0.797807 0.696720 0.200807
H36   H     H_    0.375263 0.693175 0.633623 0.257728
H37   H     H_    0.486746 0.730201 0.671798 0.243901
C56   C     C_3   0.350916 0.249605 0.578411 -0.775633
H38   H     H_    0.297174 0.204555 0.607459 0.201989
H39   H     H_    0.364134 0.309612 0.622919 0.253985
H40   H     H_    0.318421 0.270234 0.520424 0.247978
C57   C     C_1   0.295690 0.909461 0.646551 0.174981
N3    N     N_1   0.229305 0.875904 0.674664 -0.196112
C58   C     C_1   0.356457 0.093564 0.700411 0.174446
N4    N     N_1   0.330670 0.128080 0.764479 -0.207177
C59   C     C_3   0.357310 0.629445 0.110030 -0.889895
H41   H     H_    0.295794 0.587603 0.099206 0.242523
H42   H     H_    0.367294 0.630244 0.179666 0.243302
H43   H     H_    0.341663 0.702372 0.094005 0.241738
C60   C     C_3   0.321810 0.407777 0.085252 -0.882167
H44   H     H_    0.316523 0.430522 0.153575 0.238888
H45   H     H_    0.278151 0.450782 0.048830 0.239614
H46   H     H_    0.291178 0.335832 0.080789 0.241203
C61   C     C_1   0.458765 0.321424 0.079726 0.143475
N5    N     N_1   0.487771 0.252922 0.103067 -0.203102
C62   C     C_1   0.511421 0.671776 0.078577 0.144101
N6    N     N_1   0.563987 0.730170 0.094800 -0.209577
C63   C     C_1   0.763609 0.527186 0.341112 0.121452
N7    N     N_1   0.720549 0.541741 0.283862 -0.230139
C64   C     C_1   0.888717 0.431853 0.719124 0.161382
N8    N     N_1   0.845255 0.419907 0.781334 -0.214362

loop_
_geom_bond_atom_site_label_1
_geom_bond_atom_site_label_2
_geom_bond_distance
_ccdc_geom_bond_type
C5    C8    1.584365 S    
C46   H10   1.080449 S    
C9    C14   1.183984 T    
C53   H29   1.082159 S    
C48   H14   1.101397 S    
C58   N4    1.157647 T    
C33   C41   1.428735 A    
C6    C61   1.491310 S    
C50   H22   1.109735 S    
C54   H32   1.082966 S    
C62   N6    1.157636 T    
C49   H17   1.106915 S    
Zn1   O7    1.979942 S    
C56   H39   1.107370 S    
C55   H35   1.100778 S    
C5    C62   1.492331 S    
C4    C9    1.396045 S    
C20   C21   1.420385 A    
C60   H45   1.099761 S    
O4    C2    1.296054 A    
O7    C4    1.295871 A    
C37   C39   1.408644 A    
C38   C40   1.408906 A    
C34   C54   1.511985 S    
C32   C50   1.520018 S    
C13   H3    1.112790 S    
C40   C42   1.409395 A    
C18   C19   1.375269 A    
C25   C26   1.421162 A    
C11   C14   1.443087 S    
C21   C26   1.397573 A    
C47   H12   1.110605 S    
O5    C3    1.295872 A    
C22   C29   1.437751 A    
C50   H21   1.108884 S    
C41   C46   1.409686 A    
C5    C10   1.599907 S    
C2    C16   1.394263 S    
C19   C20   1.383663 A    
C6    C7    1.582201 S    
C45   H9    1.080405 S    
C10   C13   1.568251 S    
C19   H7    1.084684 S    
C25   C30   1.389800 A    
C5    C59   1.560384 S    
C52   H27   1.109893 S    
C29   C52   1.519993 S    
C27   C32   1.409150 A    
C59   H43   1.112486 S    
C8    C47   1.546655 S    
C51   H24   1.109452 S    
C39   C40   1.438196 A    
C55   H36   1.108351 S    
C7    C48   1.549520 S    
C48   H15   1.110678 S    
O3    Zn1   1.954912 S    
C54   H33   1.110599 S    
C34   N2    1.384168 A    
C37   C43   1.421896 A    
N1    C35   1.385310 A    
C38   C44   1.420725 A    
C56   H40   1.104982 S    
N2    C36   1.384315 A    
C39   C41   1.409276 A    
C23   C64   1.454250 S    
C8    C11   1.574562 S    
C12   C13   1.537219 S    
O3    C2    1.294979 A    
C60   H46   1.112969 S    
Zn2   N2    2.038452 S    
C23   C24   1.404379 A    
C44   C58   1.452220 S    
C51   H23   1.109921 S    
C50   H20   1.106760 S    
O1    C1    1.294831 A    
C43   C57   1.451835 S    
C47   H13   1.109614 S    
C27   C28   1.409217 A    
C12   H6    1.114437 S    
C21   C22   1.436019 A    
C31   C32   1.398622 A    
Zn2   O8    1.955223 S    
C17   C63   1.452451 S    
C17   C18   1.400304 A    
C49   H18   1.110726 S    
C7    C11   1.572920 S    
C52   H28   1.108945 S    
C61   N5    1.157544 T    
C33   C53   1.510856 S    
Zn2   O6    1.990992 S    
C24   C25   1.414520 A    
O8    C4    1.294456 A    
C53   H31   1.110427 S    
C10   C15   1.446189 S    
C35   C37   1.438893 A    
C63   N7    1.158115 T    
C48   H16   1.110280 S    
C26   C27   1.414751 A    
Zn1   N1    2.038357 S    
C64   N8    1.157613 T    
C54   H34   1.110526 S    
C28   C29   1.410709 A    
C59   H41   1.095679 S    
C51   H25   1.110816 S    
C13   H4    1.111719 S    
Zn1   O5    2.012337 S    
C30   H8    1.082962 S    
C30   C31   1.381265 A    
C6    C10   1.599576 S    
C42   C45   1.409434 A    
O1    Zn1   1.991244 S    
C20   C23   1.415629 A    
O2    Zn2   2.012576 S    
O6    C3    1.291772 A    
O4    Zn2   1.979570 S    
C55   H37   1.105331 S    
C56   H38   1.100892 S    
C35   C55   1.506961 S    
C17   C22   1.423861 A    
O2    C1    1.293089 A    
C12   H5    1.113907 S    
C3    C18   1.427600 S    
C34   C42   1.428660 A    
C60   H44   1.110344 S    
C49   H19   1.110537 S    
C1    C31   1.423203 S    
C7    H1    1.117785 S    
C36   C38   1.438029 A    
C8    H2    1.117571 S    
C47   H11   1.100782 S    
C36   C56   1.508402 S    
C11   C12   1.555916 S    
C43   C44   1.407666 A    
C53   H30   1.110621 S    
C45   C46   1.388785 A    
C15   C16   1.182873 T    
C24   C49   1.523868 S    
C6    C60   1.553816 S    
C33   N1    1.384411 A    
C52   H26   1.105559 S    
C57   N3    1.157571 T    
C28   C51   1.521606 S    
C59   H42   1.111028 S    
