data_mof_unit_58929.cif
_audit_creation_date              2013-03-05T16:05:52-0500
_audit_creation_method            fapswitch 2.2
_symmetry_space_group_name_H-M    P1
_symmetry_Int_Tables_number       1
_space_group_crystal_system       triclinic
_cell_length_a                    10.828758
_cell_length_b                    9.614588
_cell_length_c                    19.326402
_cell_angle_alpha                 89.158863
_cell_angle_beta                  91.899113
_cell_angle_gamma                 89.474004
_cell_volume                      2010.7339215

loop_
_atom_site_label
_atom_site_type_symbol
_atom_site_description
_atom_site_fract_x
_atom_site_fract_y
_atom_site_fract_z
_atom_type_partial_charge
O1    O     O_R   0.319640 0.618740 0.500000 -0.600885
O2    O     O_R   0.680360 0.381260 0.500000 -0.601430
O3    O     O_R   0.680360 0.618740 0.500000 -0.556478
O4    O     O_R   0.319640 0.381260 0.500000 -0.558222
C1    C     C_R   0.262348 0.500339 0.500182 0.793462
C2    C     C_R   0.737644 0.499599 0.500130 0.793370
O5    O     O_R   0.499980 0.618820 0.400140 -0.593706
O6    O     O_R   0.500020 0.381180 0.599860 -0.595735
O7    O     O_R   0.500020 0.618820 0.599860 -0.554814
O8    O     O_R   0.499980 0.381180 0.400140 -0.553572
C3    C     C_R   0.500349 0.500740 0.367536 0.836381
C4    C     C_R   0.500063 0.499183 0.632518 0.838509
Cu1   Cu    Cu3+1 0.500000 0.640660 0.500000 0.970156
Cu2   Cu    Cu3+1 0.500000 0.359340 0.500000 0.968264
C5    C     C_R   0.064462 0.375277 0.491614 -0.150411
C6    C     C_R   0.935520 0.624207 0.509658 -0.149590
C7    C     C_R   0.936686 0.374849 0.491358 -0.178445
C8    C     C_R   0.063265 0.624531 0.510178 -0.176416
H1    H     H_    0.112815 0.277842 0.484509 0.151579
H2    H     H_    0.887187 0.721627 0.516797 0.152032
H3    H     H_    0.889225 0.277406 0.483590 0.147713
H4    H     H_    0.110579 0.721745 0.518585 0.144817
C9    C     C_R   0.871628 0.499367 0.500359 -0.022840
C10   C     C_R   0.128353 0.500263 0.500629 -0.022084
C11   C     C_R   0.421277 0.078352 0.456902 0.258008
C12   C     C_R   0.579312 0.921629 0.542767 0.258791
C13   C     C_R   0.579694 0.069503 0.543221 0.159403
C14   C     C_R   0.418639 0.930479 0.457814 0.163266
C15   C     C_R   0.472348 0.622564 0.253217 -0.218473
C16   C     C_R   0.492534 0.372171 0.745815 -0.226356
C17   C     C_R   0.507586 0.622920 0.744811 -0.213986
C18   C     C_R   0.533346 0.379915 0.256743 -0.217969
H5    H     H_    0.446959 0.716289 0.279787 0.186160
H6    H     H_    0.487312 0.274753 0.718516 0.188810
H7    H     H_    0.511201 0.721000 0.716727 0.191759
H8    H     H_    0.558893 0.286745 0.286216 0.196333
C19   C     C_R   0.469694 0.622876 0.180713 0.309237
C20   C     C_R   0.495147 0.369750 0.818262 0.307697
C21   C     C_R   0.506551 0.624202 0.817082 0.301514
C22   C     C_R   0.537032 0.378103 0.184463 0.303364
C23   C     C_R   0.503358 0.499997 0.146059 -0.182869
C24   C     C_R   0.501506 0.496710 0.854519 -0.182821
N1    N     N_R   0.500000 0.852070 0.500000 -0.194723
N2    N     N_R   0.500000 0.147930 0.500000 -0.194704
C25   C     C_R   0.502088 0.501446 0.291426 -0.155190
C26   C     C_R   0.500092 0.497852 0.708749 -0.155983
N3    N     N_R   0.420620 0.420251 0.034473 -0.142618
N4    N     N_R   0.585539 0.574460 0.966818 -0.140483
N5    N     N_R   0.420090 0.419566 0.965647 -0.140140
N6    N     N_R   0.585562 0.575933 0.035618 -0.141668
C27   C     C_R   0.502645 0.496516 0.930640 0.508382
C28   C     C_R   0.503132 0.498778 0.070421 0.529948
N7    N     N_R   0.429553 0.747279 0.143533 0.153656
O9    O     O_R   0.365945 0.739787 0.085409 -0.274565
O10   O     O_R   0.441625 0.868100 0.172295 -0.265997
N8    N     N_R   0.495511 0.237412 0.853916 0.155626
O11   O     O_R   0.573746 0.212194 0.905235 -0.248370
O12   O     O_R   0.430469 0.135487 0.828947 -0.266547
N9    N     N_R   0.506357 0.756073 0.851239 0.155799
O13   O     O_R   0.428386 0.780548 0.899515 -0.246714
O14   O     O_R   0.571023 0.858433 0.827315 -0.275558
N10   N     N_R   0.577802 0.253006 0.151428 0.153968
O15   O     O_R   0.641773 0.259384 0.095660 -0.275218
O16   O     O_R   0.565965 0.132858 0.182221 -0.274131
N11   N     N_3   0.339622 0.156071 0.410838 -0.508272
H9    H     H_    0.248784 0.128613 0.421006 0.207992
H10   H     H_    0.357638 0.127559 0.360126 0.237808
N12   N     N_3   0.661783 0.843926 0.588372 -0.512020
H11   H     H_    0.643461 0.870728 0.639271 0.232622
H12   H     H_    0.752183 0.873524 0.578445 0.207897
N13   N     N_3   0.667081 0.132067 0.590113 -0.603640
H13   H     H_    0.734303 0.185370 0.563601 0.247699
H14   H     H_    0.623597 0.192011 0.626498 0.261933
N14   N     N_3   0.323528 0.868012 0.415944 -0.602744
H15   H     H_    0.358679 0.794164 0.383204 0.264165
H16   H     H_    0.255721 0.827946 0.447295 0.238269

loop_
_geom_bond_atom_site_label_1
_geom_bond_atom_site_label_2
_geom_bond_distance
_ccdc_geom_bond_type
C18   C25   1.399992 A    
Cu1   N1    2.032620 S    
O3    C2    1.297582 A    
C14   N14   1.430613 S    
N3    N5    1.330098 A    
N7    O9    1.301357 A    
C11   C14   1.422151 A    
O5    C3    1.306539 A    
C12   C13   1.421948 A    
C7    C9    1.399497 A    
N14   H16   1.040427 S    
C8    C10   1.399276 A    
C18   H8    1.083249 S    
C20   C24   1.417467 A    
C15   H5    1.081518 S    
C22   N10   1.442430 S    
N8    O11   1.301423 A    
C16   C20   1.399355 A    
O7    Cu1   1.938248 S    
N10   O16   1.301009 A    
C13   N2    1.390275 A    
N4    C27   1.357329 A    
C17   C21   1.397404 A    
N12   H11   1.045405 S    
N11   H10   1.045628 S    
C17   C26   1.400320 A    
N6    C28   1.355276 A    
C23   C28   1.461943 S    
O3    Cu1   1.962488 S    
C6    H2    1.081605 S    
C24   C27   1.470775 S    
C19   N7    1.442355 S    
N4    N6    1.329935 A    
N9    O13   1.301452 A    
Cu1   Cu2   2.704776 S    
C19   C23   1.417287 A    
O2    C2    1.300872 A    
C11   N2    1.359324 A    
C12   N1    1.359328 A    
C21   C24   1.416620 A    
N7    O10   1.300930 A    
N9    O14   1.301320 A    
N14   H15   1.036135 S    
C16   H6    1.082736 S    
C11   N11   1.431402 S    
C4    C26   1.473132 S    
O8    Cu2   1.938252 S    
N13   H14   1.037906 S    
N5    C27   1.357131 A    
C7    H3    1.082704 S    
C15   C25   1.398986 A    
C5    H1    1.081728 S    
N10   O15   1.301376 A    
O6    C4    1.306364 A    
C21   N9    1.438018 S    
N12   H12   1.044999 S    
C22   C23   1.416346 A    
C6    C9    1.401785 A    
C17   H7    1.082792 S    
C3    C25   1.471591 S    
O1    Cu1   1.966336 S    
O1    C1    1.301463 A    
C13   N13   1.431145 S    
Cu2   N2    2.032621 S    
C5    C7    1.383551 A    
C5    C10   1.402323 A    
O6    Cu2   1.944378 S    
C8    H4    1.081780 S    
C16   C26   1.400105 A    
O4    C1    1.297273 A    
N3    C28   1.355621 A    
C14   N1    1.389756 A    
C12   N12   1.431350 S    
N13   H13   1.038709 S    
C1    C10   1.451314 S    
C2    C9    1.450729 S    
N8    O12   1.301265 A    
C18   C22   1.399175 A    
O4    Cu2   1.962489 S    
O2    Cu2   1.966335 S    
O7    C4    1.303889 A    
O8    C3    1.302859 A    
O5    Cu1   1.944381 S    
C20   N8    1.437960 S    
C6    C8    1.383056 A    
N11   H9    1.044980 S    
C15   C19   1.400556 A    
