data_mof_unit_9464.cif
_audit_creation_date              2012-12-11T15:57:03-0500
_audit_creation_method            fapswitch 2.2
_symmetry_space_group_name_H-M    P1
_symmetry_Int_Tables_number       1
_space_group_crystal_system       triclinic
_cell_length_a                    17.474096
_cell_length_b                    24.495506
_cell_length_c                    14.971292
_cell_angle_alpha                 90.140462
_cell_angle_beta                  126.33262
_cell_angle_gamma                 90.024519
_cell_volume                      5162.41110449

loop_
_atom_site_label
_atom_site_type_symbol
_atom_type_description
_atom_site_fract_x
_atom_site_fract_y
_atom_site_fract_z
_atom_type_partial_charge
C1    C     C_R   0.314523 0.131588 0.908107 0.623646
C2    C     C_R   0.553629 0.152677 0.908893 -0.166262
C3    C     C_R   0.814393 0.357674 0.998324 -0.120078
C4    C     C_R   0.566747 0.000311 0.368953 0.068220
C5    C     C_R   0.065793 0.500217 0.368453 0.067374
C6    C     C_R   0.188595 0.999568 0.638629 -0.014328
C7    C     C_R   0.690714 0.500673 0.636088 -0.028357
C8    C     C_R   0.520359 0.045946 0.753187 -0.134405
C9    C     C_R   0.520712 0.954306 0.753086 -0.150582
C10   C     C_R   0.020504 0.545941 0.753381 -0.134054
C11   C     C_R   0.020835 0.454296 0.753267 -0.152404
C12   C     C_R   0.768717 0.954300 0.244894 -0.136695
C13   C     C_R   0.053436 0.346571 0.909655 -0.171229
C14   C     C_R   0.768671 0.046139 0.245736 -0.124036
C15   C     C_R   0.268743 0.453916 0.246334 -0.125865
C16   C     C_R   0.268986 0.545781 0.245628 -0.135558
C17   C     C_3   0.309565 0.180007 0.774175 -0.375318
C18   C     C_3   0.310254 0.819553 0.775698 -0.369986
C19   C     C_3   0.810978 0.680755 0.775597 -0.378853
C20   C     C_3   0.797189 0.320785 0.768334 -0.392836
C21   C     C_3   0.386946 0.795641 0.276718 -0.316425
C22   C     C_3   0.420045 0.227964 0.250300 -0.288087
C23   C     C_3   0.859471 0.323012 0.278388 -0.317382
C24   C     C_R   0.054026 0.652929 0.909437 -0.170209
C25   C     C_3   0.919771 0.727739 0.250927 -0.286522
C26   C     C_3   0.720882 0.119335 0.760725 -0.255992
C27   C     C_3   0.754779 0.900140 0.782783 -0.245194
C28   C     C_3   0.220571 0.619519 0.759337 -0.251882
C29   C     C_3   0.255007 0.400384 0.782769 -0.243555
C30   C     C_R   0.550494 0.000277 0.726908 0.133365
C31   C     C_R   0.050627 0.500260 0.727103 0.134397
C32   C     C_R   0.823353 0.000391 0.268116 0.035643
C33   C     C_R   0.323578 0.499701 0.269109 0.036559
C34   C     C_R   0.612107 0.184787 0.001012 0.046898
C35   C     C_R   0.611442 0.814905 0.002469 0.039729
C36   C     C_R   0.112309 0.684877 0.001973 0.040257
C37   C     C_R   0.312878 0.870072 0.906617 0.615120
C38   C     C_R   0.111220 0.314835 0.002435 0.041199
C39   C     C_3   0.029197 0.950596 0.490213 -0.167306
C40   C     C_3   0.020455 0.038605 0.512208 -0.149030
C41   C     C_3   0.521447 0.463411 0.513097 -0.143071
C42   C     C_3   0.532736 0.550387 0.486515 -0.165660
C43   C     C_3   0.952125 0.989953 0.469902 -0.137729
C44   C     C_3   0.454906 0.512770 0.469643 -0.140947
C45   C     C_3   0.924435 0.000541 0.353147 0.183656
C46   C     C_3   0.425026 0.499581 0.352728 0.183020
C47   C     C_3   0.000664 0.961088 0.372369 -0.161077
C48   C     C_R   0.814699 0.631761 0.908148 0.624719
C49   C     C_3   0.992279 0.049373 0.394837 -0.167568
C50   C     C_3   0.491167 0.450036 0.395635 -0.168738
C51   C     C_3   0.501997 0.537272 0.368449 -0.158591
C52   C     C_3   0.071132 0.010025 0.416490 -0.143804
C53   C     C_3   0.570771 0.487611 0.413832 -0.147488
C54   C     C_R   0.403411 0.874086 0.092136 -0.208188
C55   C     C_R   0.403837 0.125102 0.093165 -0.238399
C56   C     C_R   0.903777 0.372898 0.091866 -0.184420
C57   C     C_R   0.903932 0.625190 0.093199 -0.236603
C58   C     C_3   0.097144 0.999337 0.532202 0.189795
C59   C     C_R   0.812177 0.371106 0.906054 0.609818
C60   C     C_3   0.598969 0.500922 0.529772 0.190556
C61   C     C_3   0.244730 0.822591 0.100984 0.588139
C62   C     C_3   0.266928 0.186747 0.117487 0.573704
C63   C     C_3   0.730125 0.327089 0.084408 0.594099
C64   C     C_3   0.766706 0.686663 0.117312 0.573299
C65   C     C_3   0.685284 0.274599 0.096071 -0.608289
C66   C     C_3   0.704921 0.732979 0.113124 -0.564068
C67   C     C_3   0.188804 0.773056 0.101328 -0.586483
C68   C     C_3   0.205208 0.233079 0.113352 -0.563552
C69   C     C_3   0.812367 0.261415 0.031103 -0.440119
C70   C     C_R   0.645426 0.152740 0.092563 -0.156935
C71   C     C_3   0.792987 0.741915 0.989681 -0.406481
C72   C     C_3   0.301683 0.761266 0.009281 -0.417834
C73   C     C_3   0.292460 0.241778 0.989003 -0.405936
C74   C     C_3   0.150682 0.816127 0.894763 -0.466760
C75   C     C_3   0.152540 0.178553 0.910498 -0.467997
C76   C     C_3   0.659219 0.307153 0.884556 -0.434075
C77   C     C_3   0.652781 0.678784 0.910253 -0.465847
C78   C     C_3   0.255124 0.816206 0.003034 0.254099
C79   C     C_3   0.260541 0.186473 0.007145 0.254651
C80   C     C_3   0.755655 0.315212 0.001068 0.235989
C81   C     C_R   0.644732 0.847648 0.093235 -0.150718
C82   C     C_3   0.760725 0.686581 0.007229 0.253410
C83   C     C_3   0.659865 0.234055 0.002118 0.378020
C84   C     C_3   0.661150 0.766410 0.004919 0.360946
C85   C     C_3   0.159676 0.734448 0.003475 0.369356
C86   C     C_3   0.160950 0.266327 0.004848 0.359790
C87   C     C_3   0.752904 0.213593 0.022049 -0.385857
C88   C     C_3   0.740051 0.788525 0.997063 -0.407992
C89   C     C_3   0.249324 0.714035 0.015842 -0.404331
C90   C     C_3   0.239495 0.288412 0.996313 -0.408018
C91   C     C_3   0.597898 0.265212 0.890261 -0.516328
C92   C     C_R   0.145839 0.652508 0.093113 -0.148884
C93   C     C_3   0.594975 0.727580 0.905679 -0.450485
C94   C     C_3   0.095578 0.767350 0.894456 -0.466907
C95   C     C_3   0.094687 0.227329 0.905980 -0.448740
C96   C     C_3   0.609474 0.055108 0.636450 0.608595
C97   C     C_3   0.623878 0.950788 0.646822 0.609721
C98   C     C_3   0.108990 0.555099 0.636051 0.606807
C99   C     C_3   0.123770 0.450799 0.646727 0.613026
C100  C     C_R   0.550381 0.045543 0.305496 -0.151201
C101  C     C_R   0.549329 0.954770 0.305177 -0.132118
C102  C     C_R   0.050010 0.545503 0.305336 -0.150617
C103  C     C_R   0.144618 0.347614 0.093196 -0.152615
C104  C     C_R   0.048488 0.454677 0.304713 -0.123523
C105  C     C_3   0.617583 0.053544 0.539342 -0.550087
C106  C     C_3   0.628475 0.951514 0.546716 -0.552552
C107  C     C_3   0.116856 0.553486 0.538789 -0.549352
C108  C     C_3   0.127928 0.451460 0.546307 -0.552759
C109  C     C_3   0.462531 0.995783 0.528269 -0.643669
C110  C     C_3   0.962224 0.495591 0.528410 -0.646251
C111  C     C_3   0.564000 0.000531 0.638586 0.079114
C112  C     C_3   0.063816 0.500483 0.638547 0.079948
C113  C     C_3   0.571063 0.000575 0.469968 0.273547
C114  C     C_R   0.553732 0.846642 0.909679 -0.173633
C115  C     C_3   0.070320 0.500482 0.469564 0.270921
C116  C     C_3   0.466801 0.996812 0.429810 -0.378214
C117  C     C_3   0.966164 0.496667 0.429716 -0.375858
C118  C     C_R   0.238308 0.954208 0.697226 -0.104489
C119  C     C_R   0.238372 0.045287 0.696775 -0.118635
C120  C     C_R   0.740127 0.455035 0.694060 -0.081313
C121  C     C_R   0.739222 0.545892 0.696894 -0.110716
C122  C     C_R   0.317353 0.143703 0.001692 -0.150943
C123  C     C_R   0.313800 0.858614 0.999220 -0.137969
C124  C     C_R   0.817515 0.643840 0.001737 -0.149788
H1    H     H_    0.045239 0.910169 0.531005 0.121229
H2    H     H_    0.621437 0.477423 0.394554 0.112844
H3    H     H_    0.864978 0.709196 0.841409 0.145346
H4    H     H_    0.763226 0.705034 0.699255 0.177231
H5    H     H_    0.838322 0.287300 0.828574 0.144697
H6    H     H_    0.844818 0.346337 0.759399 0.158509
H7    H     H_    0.744076 0.301616 0.686607 0.177419
H8    H     H_    0.384977 0.758971 0.232432 0.141473
H9    H     H_    0.368225 0.784491 0.333417 0.160518
H10   H     H_    0.461422 0.810523 0.329294 0.153881
H11   H     H_    0.385289 0.268093 0.220997 0.138344
H12   H     H_    0.464963 0.220129 0.221988 0.141524
H13   H     H_    0.196715 0.858184 0.077352 0.040359
H14   H     H_    0.469203 0.230866 0.342003 0.164364
H15   H     H_    0.883855 0.285203 0.261712 0.133037
H16   H     H_    0.822279 0.313725 0.316285 0.159514
H17   H     H_    0.923946 0.346864 0.340550 0.158249
H18   H     H_    0.885095 0.767898 0.221879 0.138486
H19   H     H_    0.964915 0.720068 0.222867 0.141036
H20   H     H_    0.968709 0.730447 0.342667 0.164800
H21   H     H_    0.732818 0.253615 0.176378 0.164975
H22   H     H_    0.747496 0.758337 0.188752 0.175830
H23   H     H_    0.229621 0.750735 0.180589 0.166391
H24   H     H_    0.231417 0.148199 0.113962 0.038061
H25   H     H_    0.247987 0.258569 0.188761 0.175796
H26   H     H_    0.567460 0.238280 0.816936 0.169441
H27   H     H_    0.562977 0.749031 0.825596 0.167254
H28   H     H_    0.072595 0.741675 0.821184 0.167422
H29   H     H_    0.062282 0.248672 0.825706 0.166526
H30   H     H_    0.718726 0.139771 0.692993 0.122173
H31   H     H_    0.793801 0.124061 0.838202 0.172948
H32   H     H_    0.671327 0.139723 0.773713 0.118283
H33   H     H_    0.756640 0.878599 0.718588 0.118040
H34   H     H_    0.713920 0.875884 0.804027 0.119245
H35   H     H_    0.670725 0.357013 0.041043 0.045803
H36   H     H_    0.828862 0.903590 0.858659 0.173579
H37   H     H_    0.219126 0.639445 0.691667 0.122976
H38   H     H_    0.293248 0.624364 0.837169 0.172864
H39   H     H_    0.170655 0.640346 0.771212 0.117852
H40   H     H_    0.256494 0.378644 0.718486 0.117420
H41   H     H_    0.214534 0.376257 0.804718 0.119203
H42   H     H_    0.329239 0.403968 0.858288 0.174085
H43   H     H_    0.565387 0.087653 0.332024 0.098578
H44   H     H_    0.561971 0.912654 0.331260 0.088008
H45   H     H_    0.065152 0.587590 0.332000 0.098282
H46   H     H_    0.731025 0.648107 0.113374 0.039663
H47   H     H_    0.060480 0.412509 0.330429 0.082475
H48   H     H_    0.123854 0.787816 0.091298 0.140540
H49   H     H_    0.147297 0.215619 0.115199 0.137749
H50   H     H_    0.620225 0.285797 0.089138 0.145704
H51   H     H_    0.646739 0.715482 0.114412 0.137639
H52   H     H_    0.879979 0.263351 0.115799 0.159830
H53   H     H_    0.030057 0.070130 0.571539 0.123051
H54   H     H_    0.870698 0.748420 0.048290 0.148030
H55   H     H_    0.378167 0.760165 0.080400 0.154457
H56   H     H_    0.370162 0.248386 0.047337 0.148117
H57   H     H_    0.796133 0.189163 0.099592 0.153307
H58   H     H_    0.790199 0.815351 0.068834 0.154357
H59   H     H_    0.297732 0.692444 0.096138 0.152336
H60   H     H_    0.289688 0.315384 0.067782 0.154916
H61   H     H_    0.145331 0.812129 0.818095 0.249846
H62   H     H_    0.138235 0.175138 0.828219 0.238002
H63   H     H_    0.671013 0.289527 0.825416 0.245258
H64   H     H_    0.530870 0.433339 0.574285 0.126889
H65   H     H_    0.638683 0.675434 0.828077 0.238532
H66   H     H_    0.436244 0.866422 0.177999 0.192609
H67   H     H_    0.433223 0.127228 0.179108 0.201519
H68   H     H_    0.935692 0.363657 0.177378 0.173191
H69   H     H_    0.933379 0.627382 0.179151 0.201325
H70   H     H_    0.114314 0.854936 0.887454 0.151540
H71   H     H_    0.125777 0.140048 0.922329 0.150778
H72   H     H_    0.620202 0.346398 0.850883 0.174363
H73   H     H_    0.625784 0.640284 0.921760 0.151622
H74   H     H_    0.030546 0.781697 0.884622 0.160824
H75   H     H_    0.550404 0.591564 0.525127 0.119303
H76   H     H_    0.035791 0.212583 0.908588 0.159875
H77   H     H_    0.537482 0.285679 0.882783 0.168783
H78   H     H_    0.535786 0.712866 0.907759 0.159819
H79   H     H_    0.832465 0.253996 0.974121 0.163865
H80   H     H_    0.776534 0.743255 0.905867 0.202706
H81   H     H_    0.298939 0.755630 0.933713 0.187205
H82   H     H_    0.275780 0.242957 0.905061 0.202226
H83   H     H_    0.735708 0.186601 0.952420 0.165455
H84   H     H_    0.708562 0.814335 0.921914 0.158007
H85   H     H_    0.229599 0.684056 0.949291 0.165404
H86   H     H_    0.989780 0.929677 0.312242 0.109578
H87   H     H_    0.207661 0.314060 0.920894 0.157754
H88   H     H_    0.559353 0.088943 0.618387 -0.025081
H89   H     H_    0.585507 0.912701 0.639887 -0.031620
H90   H     H_    0.058766 0.588870 0.617980 -0.024365
H91   H     H_    0.085658 0.412666 0.640173 -0.037306
H92   H     H_    0.693246 0.055653 0.570298 0.194152
H93   H     H_    0.703378 0.954164 0.575062 0.191695
H94   H     H_    0.192460 0.555614 0.569533 0.193839
H95   H     H_    0.202728 0.454110 0.574305 0.193128
H96   H     H_    0.581581 0.090523 0.488412 0.133397
H97   H     H_    0.975058 0.089626 0.353208 0.105979
H98   H     H_    0.599105 0.912180 0.501571 0.126521
H99   H     H_    0.080727 0.590442 0.487849 0.133610
H100  H     H_    0.098470 0.412112 0.501258 0.119769
H101  H     H_    0.416848 0.029964 0.520372 0.200573
H102  H     H_    0.427701 0.957143 0.525875 0.201346
H103  H     H_    0.916444 0.529686 0.520607 0.202204
H104  H     H_    0.927648 0.456883 0.526228 0.198608
H105  H     H_    0.425520 0.032397 0.376239 0.185845
H106  H     H_    0.432303 0.959199 0.379139 0.196152
H107  H     H_    0.924791 0.532253 0.376231 0.188393
H108  H     H_    0.472255 0.409066 0.356047 0.104221
H109  H     H_    0.931611 0.459064 0.379048 0.194012
H110  H     H_    0.223454 0.913268 0.664704 0.149282
H111  H     H_    0.222592 0.086177 0.664389 0.151795
H112  H     H_    0.726193 0.414618 0.659235 0.149222
H113  H     H_    0.724396 0.587044 0.666115 0.149273
H114  H     H_    0.526685 0.088317 0.739259 0.088579
H115  H     H_    0.527102 0.912011 0.738179 0.087659
H116  H     H_    0.026925 0.588323 0.739584 0.088975
H117  H     H_    0.027225 0.411996 0.738385 0.087275
H118  H     H_    0.792314 0.912354 0.260393 0.097513
H119  H     H_    0.491236 0.567204 0.306415 0.111917
H120  H     H_    0.791803 0.088225 0.261548 0.091959
H121  H     H_    0.291682 0.411862 0.261896 0.092485
H122  H     H_    0.292668 0.587767 0.261041 0.096744
H123  H     H_    0.688693 0.165501 0.178423 0.085562
H124  H     H_    0.685956 0.836002 0.179359 0.086556
H125  H     H_    0.189055 0.664732 0.179226 0.083312
H126  H     H_    0.185688 0.335930 0.179287 0.086853
H127  H     H_    0.512485 0.833864 0.823955 0.081096
H128  H     H_    0.508810 0.164525 0.822944 0.079421
H129  H     H_    0.011906 0.333751 0.823931 0.079696
H130  H     H_    0.123147 0.018139 0.398347 0.111663
H131  H     H_    0.010601 0.665320 0.823676 0.080288
H132  H     H_    0.901799 0.981790 0.490694 0.116023
H133  H     H_    0.405969 0.523020 0.491577 0.116325
H134  H     H_    0.344948 0.148981 0.756013 0.155862
H135  H     H_    0.363457 0.208746 0.839288 0.145245
H136  H     H_    0.261331 0.203939 0.697453 0.177364
H137  H     H_    0.262500 0.794580 0.700023 0.174905
H138  H     H_    0.363336 0.791491 0.842691 0.144997
H139  H     H_    0.346575 0.849533 0.756940 0.156603
H140  H     H_    0.846338 0.649822 0.757220 0.156560
N1    N     N_R   0.392450 0.103580 0.942190 -0.097192
N2    N     N_R   0.525490 0.971610 0.207550 -0.034522
N3    N     N_R   0.025490 0.528390 0.207550 -0.035573
N4    N     N_R   0.025490 0.471610 0.207550 -0.033336
N5    N     N_R   0.317450 0.971190 0.792000 -0.051244
N6    N     N_R   0.317450 0.028810 0.792000 -0.050832
N7    N     N_R   0.817450 0.471190 0.792000 -0.049188
N8    N     N_R   0.817450 0.528810 0.792000 -0.052652
N9    N     N_R   0.473900 0.028390 0.792280 -0.046635
N10   N     N_R   0.473900 0.971610 0.792280 -0.043824
N11   N     N_R   0.973900 0.528390 0.792280 -0.046939
N12   N     N_R   0.392450 0.896420 0.942190 -0.097582
N13   N     N_R   0.973900 0.471610 0.792280 -0.044465
N14   N     N_R   0.682310 0.971180 0.208170 -0.039400
N15   N     N_R   0.682310 0.028820 0.208170 -0.039089
N16   N     N_R   0.182310 0.471180 0.208170 -0.039801
N17   N     N_R   0.182310 0.528820 0.208170 -0.039252
N18   N     N_R   0.606470 0.103570 0.057210 -0.028158
N19   N     N_R   0.606470 0.896430 0.057210 -0.028753
N20   N     N_R   0.106470 0.603570 0.057210 -0.028261
N21   N     N_R   0.106470 0.396430 0.057210 -0.029465
N22   N     N_R   0.549740 0.896000 0.943240 -0.029960
N23   N     N_R   0.892450 0.603580 0.942190 -0.097323
N24   N     N_R   0.549740 0.104000 0.943240 -0.031279
N25   N     N_R   0.049740 0.396000 0.943240 -0.030463
N26   N     N_R   0.049740 0.604000 0.943240 -0.030647
N27   N     N_R   0.892450 0.396420 0.942190 -0.098756
N28   N     N_R   0.450490 0.896000 0.057360 -0.075785
N29   N     N_R   0.450490 0.104000 0.057360 -0.070523
N30   N     N_R   0.950490 0.396000 0.057360 -0.078206
N31   N     N_R   0.950490 0.604000 0.057360 -0.070877
N32   N     N_R   0.525490 0.028390 0.207550 -0.035615
Ni1   Ni    Ni4+2 0.433780 0.065390 0.868430 0.199764
Ni2   Ni    Ni4+2 0.433780 0.934610 0.868430 0.200885
Ni3   Ni    Ni4+2 0.933780 0.565390 0.868430 0.199961
Ni4   Ni    Ni4+2 0.933780 0.434610 0.868430 0.201672
Ni5   Ni    Ni4+2 0.565800 0.934190 0.131570 0.198629
Ni6   Ni    Ni4+2 0.565800 0.065810 0.131570 0.200017
Ni7   Ni    Ni4+2 0.065800 0.434190 0.131570 0.199753
Ni8   Ni    Ni4+2 0.065800 0.565810 0.131570 0.199818
O1    O     O_3   0.255016 0.155185 0.804462 -0.658011
O2    O     O_3   0.716546 0.953088 0.748153 -0.559747
O3    O     O_3   0.199529 0.563265 0.738394 -0.559888
O4    O     O_3   0.216587 0.453273 0.747801 -0.559789
O5    O     O_3   0.254778 0.846202 0.802829 -0.660133
O6    O     O_3   0.755791 0.655781 0.804848 -0.657892
O7    O     O_3   0.748556 0.352822 0.798541 -0.652949
O8    O     O_3   0.327742 0.838580 0.206522 -0.630632
O9    O     O_3   0.357611 0.183645 0.222560 -0.635309
O10   O     O_3   0.801486 0.355624 0.183211 -0.622391
O11   O     O_3   0.857224 0.683399 0.222546 -0.635157
O12   O     O_3   0.699982 0.063106 0.738928 -0.558923

loop_
_geom_bond_atom_site_label_1
_geom_bond_atom_site_label_2
_ccdc_geom_bond_type
C43   H132  S    
C73   H82   S    
C63   C65   S    
C39   H1    S    
C32   C45   S    
C6    C58   S    
C10   N11   A    
C74   H70   S    
C75   C95   S    
C27   H34   S    
C97   O2    S    
C15   N16   A    
C18   H138  S    
C108  H100  S    
C59   N27   A    
C94   H28   S    
N7    N8    A    
C1    C122  A    
C68   H25   S    
C40   C43   S    
C31   C112  S    
C70   H123  S    
C118  N5    A    
C2    C34   A    
C98   H90   S    
N20   N26   A    
C42   C44   S    
C88   H84   S    
C82   C124  S    
C44   C46   S    
C45   C47   S    
C67   C85   S    
C50   C53   S    
C40   C58   S    
C4    C113  S    
C86   C90   S    
C70   N18   A    
C95   H29   S    
C55   H67   S    
C29   H42   S    
C21   H8    S    
C57   N31   A    
C62   C79   S    
C88   H58   S    
C17   H136  S    
C121  N8    A    
N30   Ni7   S    
C72   H81   S    
C52   C58   S    
C104  H47   S    
C14   H120  S    
C119  H111  S    
C12   H118  S    
C67   H23   S    
C39   C47   S    
C56   N30   A    
C116  H106  S    
C98   O3    S    
C84   C88   S    
C35   C84   S    
C47   C52   S    
C8    H114  S    
C83   C91   S    
C62   C68   S    
C22   H11   S    
C110  H104  S    
C77   C82   S    
C114  H127  S    
N23   N31   A    
C84   C93   S    
C66   H22   S    
C86   C95   S    
N18   Ni6   S    
C71   C88   S    
C106  H93   S    
C23   H17   S    
C75   C79   S    
C54   C123  A    
C25   H18   S    
C81   N19   A    
C63   H35   S    
N32   Ni6   S    
C99   C108  S    
C24   C36   A    
C38   C86   S    
C89   H59   S    
C108  C115  S    
C105  C113  S    
C73   C90   S    
C109  C111  S    
C90   H87   S    
C48   N23   A    
C29   H41   S    
C40   C49   S    
N21   N25   A    
C3    C56   A    
C103  N21   A    
C72   C78   S    
C19   H140  S    
C37   C123  A    
C108  H95   S    
C21   O8    S    
C50   H108  S    
C74   H61   S    
N15   Ni6   S    
C62   H24   S    
C5    C115  S    
N19   N22   A    
C26   H31   S    
C7    C121  A    
N4    Ni7   S    
N5    Ni2   S    
C53   C60   S    
C28   H37   S    
C63   C80   S    
C71   H80   S    
C96   C111  S    
C98   C112  S    
C106  C113  S    
C23   H16   S    
N16   N17   A    
C114  N22   A    
C89   H85   S    
C39   C58   S    
C1    O1    S    
C46   C51   S    
C51   C53   S    
C101  H44   S    
C38   C103  A    
C78   C123  S    
C61   C67   S    
C117  H109  S    
C107  C115  S    
C22   O9    S    
N1    N29   A    
C73   C79   S    
N28   Ni5   S    
C48   O6    S    
N27   Ni4   S    
C43   C45   S    
C13   C38   A    
C9    C30   A    
C102  N3    A    
C11   H117  S    
C25   H20   S    
C6    C119  A    
C96   O12   S    
C54   H66   S    
C49   H97   S    
N16   Ni7   S    
C51   H119  S    
C76   C80   S    
C41   C60   S    
C87   H57   S    
N12   Ni2   S    
C109  H102  S    
C67   H48   S    
C27   H33   S    
C27   O2    S    
C77   H65   S    
C71   C82   S    
C18   H139  S    
C92   N20   A    
N19   Ni5   S    
C20   O7    S    
C64   H46   S    
C110  C112  S    
C55   N29   A    
C76   C91   S    
C40   H53   S    
C75   H62   S    
N14   Ni5   S    
N14   N15   A    
C24   N26   A    
C28   H39   S    
C14   N15   A    
C83   C87   S    
C96   C105  S    
C56   H68   S    
C96   H88   S    
C65   H50   S    
C74   C94   S    
C29   H40   S    
C20   H5    S    
C100  N32   A    
N18   N24   A    
N23   Ni3   S    
N21   Ni7   S    
C100  H43   S    
C71   H54   S    
C42   H75   S    
C37   N12   A    
C97   C111  S    
C19   H4    S    
N2    N32   A    
C21   H9    S    
C16   N17   A    
C52   H130  S    
C76   H72   S    
C109  C116  S    
C54   N28   A    
C73   H56   S    
C10   C31   A    
N11   Ni3   S    
C95   H76   S    
C115  C117  S    
C9    H115  S    
N24   Ni1   S    
C17   H135  S    
C34   C70   A    
C8    N9    A    
C69   C87   S    
C36   C92   A    
C105  H92   S    
C97   H89   S    
N5    N6    A    
C33   C46   S    
C103  H126  S    
C81   H124  S    
N3    Ni8   S    
C3    C80   S    
C110  C117  S    
C79   C122  S    
C18   H137  S    
C85   C89   S    
C61   O8    S    
C117  H107  S    
C98   C107  S    
C41   H64   S    
C22   H12   S    
C29   O4    S    
C23   O10   S    
C2    H128  S    
N13   Ni4   S    
C45   C49   S    
C68   H49   S    
C49   C52   S    
C4    C101  A    
C99   O4    S    
C93   H78   S    
N17   Ni8   S    
C76   H63   S    
N6    Ni1   S    
C97   C106  S    
C90   H60   S    
C41   C44   S    
C66   H51   S    
C93   H27   S    
C20   H7    S    
C41   C50   S    
C2    N24   A    
C5    C102  A    
C7    C120  A    
C14   C32   A    
N7    Ni4   S    
C91   H26   S    
C10   H116  S    
C36   C85   S    
C22   H14   S    
N1    Ni1   S    
N3    N4    A    
C8    C30   A    
C57   C124  A    
C61   H13   S    
C62   O9    S    
C77   C93   S    
C74   C78   S    
C17   O1    S    
C77   H73   S    
C11   N13   A    
C64   C66   S    
C75   H71   S    
C64   O11   S    
C13   N25   A    
C116  H105  S    
C68   C86   S    
C26   H32   S    
C35   C81   A    
C28   H38   S    
C92   H125  S    
C120  N7    A    
C19   O6    S    
C23   H15   S    
N11   N13   A    
C110  H103  S    
N10   Ni2   S    
C65   C83   S    
C35   C114  A    
C44   H133  S    
C15   H121  S    
N9    Ni1   S    
C69   H52   S    
C42   C51   S    
C113  C116  S    
C102  H45   S    
C55   C122  A    
C11   C31   A    
C12   C32   A    
C25   H19   S    
C107  H99   S    
C9    N10   A    
N27   N30   A    
C42   C60   S    
C109  H101  S    
C39   C43   S    
C25   O11   S    
C27   H36   S    
C26   O12   S    
C57   H69   S    
C94   H74   S    
C21   H10   S    
C24   H131  S    
C16   C33   A    
C107  H94   S    
C85   C94   S    
C118  H110  S    
N8    Ni3   S    
C61   C78   S    
C105  H96   S    
C13   H129  S    
N2    Ni5   S    
N9    N10   A    
C64   C82   S    
C91   H77   S    
C7    C60   S    
C69   H79   S    
C4    C100  A    
C28   O3    S    
C26   H30   S    
C34   C83   S    
C65   H21   S    
C12   N14   A    
C119  N6    A    
N20   Ni8   S    
C18   O5    S    
N25   Ni4   S    
N26   Ni3   S    
C104  N4    A    
C20   H6    S    
C48   C124  A    
C16   H122  S    
C46   C50   S    
C30   C111  S    
C63   O10   S    
C37   O5    S    
N29   Ni6   S    
C120  H112  S    
C59   O7    S    
C72   C89   S    
C106  H98   S    
C99   H91   S    
C121  H113  S    
C99   C112  S    
C19   H3    S    
C15   C33   A    
C87   H83   S    
C5    C104  A    
C101  N2    A    
C53   H2    S    
C66   C84   S    
N12   N28   A    
C1    N1    A    
C47   H86   S    
N22   Ni2   S    
C69   C80   S    
C72   H55   S    
C17   H134  S    
C6    C118  A    
N31   Ni8   S    
C3    C59   A    
