data_mof_unit_16100.cif
_audit_creation_date              2012-12-11T17:37:42-0500
_audit_creation_method            fapswitch 2.2
_symmetry_space_group_name_H-M    P1
_symmetry_Int_Tables_number       1
_space_group_crystal_system       triclinic
_cell_length_a                    13.034918
_cell_length_b                    13.14958
_cell_length_c                    15.463402
_cell_angle_alpha                 116.521264
_cell_angle_beta                  63.087936
_cell_angle_gamma                 97.558331
_cell_volume                      2106.44556056

loop_
_atom_site_label
_atom_site_type_symbol
_atom_type_description
_atom_site_fract_x
_atom_site_fract_y
_atom_site_fract_z
_atom_type_partial_charge
C1    C     C_R   0.034447 0.832076 0.018337 0.161408
C2    C     C_R   0.707997 0.427906 0.305189 0.074586
C3    C     C_R   0.636330 0.557661 0.023281 0.105953
C4    C     C_R   0.979599 0.826764 0.322406 0.026098
C5    C     C_R   0.315115 0.588899 0.022117 0.224857
C6    C     C_R   0.901561 0.202401 0.793566 -0.115449
C7    C     C_R   0.217979 0.421970 0.692928 -0.078999
C8    C     C_R   0.100949 0.252609 0.039753 -0.096532
C9    C     C_R   0.004219 0.170080 0.942345 -0.144243
C10   C     C_R   0.322366 0.522187 0.778812 -0.176735
C11   C     C_R   0.242196 0.479696 0.107600 -0.194900
C12   C     C_R   0.704391 0.401147 0.208469 -0.127531
C13   C     C_R   0.975014 0.307026 0.704158 -0.155822
C14   C     C_R   0.331241 0.545393 0.081494 0.089075
C15   C     C_R   0.918459 0.212097 0.703310 0.042684
C16   C     C_R   0.330458 0.437732 0.679484 -0.027270
C17   C     C_R   0.091594 0.149095 0.962237 0.150384
C18   C     C_R   0.365118 0.906269 0.290962 -0.082529
C19   C     C_R   0.245188 0.906682 0.344769 -0.097511
C20   C     C_R   0.171668 0.972812 0.341800 0.096670
C21   C     C_R   0.219945 0.036761 0.282405 -0.146571
C22   C     C_R   0.339958 0.035647 0.228046 -0.063153
C23   C     C_R   0.738163 0.578366 0.951960 -0.110594
C24   C     C_R   0.412498 0.971984 0.233861 -0.058711
C25   C     C_R   0.027014 0.096891 0.516489 -0.221052
C26   C     C_R   0.920223 0.122004 0.606369 0.080912
C27   C     C_R   0.829054 0.052581 0.603464 0.038080
C28   C     C_R   0.850509 0.954563 0.507713 -0.211759
C29   C     C_R   0.959952 0.928286 0.418929 0.108471
C30   C     C_R   0.049281 0.999965 0.423425 0.029924
C31   C     C_R   0.655193 0.998136 0.730839 -0.159327
C32   C     C_R   0.546277 0.025982 0.819607 -0.061750
C33   C     C_R   0.493699 0.137180 0.875489 -0.108687
C34   C     C_R   0.955264 0.719380 0.315886 -0.091298
C35   C     C_R   0.549737 0.220701 0.842499 -0.119025
C36   C     C_R   0.658466 0.193188 0.753626 -0.114968
C37   C     C_R   0.712790 0.081682 0.697293 0.099157
C38   C     C_R   0.947117 0.459569 0.431047 -0.288281
C39   C     C_R   0.848866 0.398733 0.443460 0.208124
C40   C     C_R   0.738930 0.458693 0.502129 0.034552
C41   C     C_R   0.727806 0.577433 0.565380 -0.175141
C42   C     C_R   0.826089 0.637045 0.558385 -0.144721
C43   C     C_R   0.935782 0.578978 0.486556 0.228610
C44   C     C_R   0.544205 0.395365 0.566644 -0.200735
C45   C     C_R   0.660790 0.479491 0.048621 -0.114646
C46   C     C_R   0.433838 0.397393 0.572822 0.036179
C47   C     C_R   0.425214 0.378183 0.478757 0.027946
C48   C     C_R   0.523263 0.359064 0.384825 -0.230561
C49   C     C_R   0.627814 0.391453 0.388923 0.077300
C50   C     C_R   0.639986 0.406437 0.481181 0.070618
C51   C     C_R   0.252973 0.329969 0.443708 -0.188538
C52   C     C_R   0.138840 0.361621 0.476172 -0.177772
C53   C     C_R   0.093390 0.474671 0.548069 -0.067628
C54   C     C_R   0.165330 0.558521 0.575852 -0.023395
C55   C     C_R   0.279778 0.527833 0.541065 -0.143224
C56   C     C_R   0.039922 0.818803 0.219951 -0.069261
C57   C     C_R   0.320298 0.412231 0.482876 0.120455
C58   C     C_2   0.428236 0.561645 0.106340 -0.182894
C59   C     C_2   0.524950 0.589732 0.042446 -0.175013
C60   C     C_2   0.917290 0.960888 0.003479 -0.175938
C61   C     C_2   0.884656 0.049608 0.100084 -0.070483
C62   C     C_R   0.800625 0.492381 0.304338 -0.135356
C63   C     C_R   0.935763 0.746652 0.922588 0.137249
C64   C     C_R   0.962088 0.851008 0.982118 0.039387
H1    H     H_    0.851993 0.141465 0.821743 0.109428
H2    H     H_    0.191160 0.356898 0.636262 0.125682
H3    H     H_    0.162622 0.267627 0.071901 0.109878
H4    H     H_    0.977282 0.108980 0.883305 0.114095
H5    H     H_    0.219701 0.446776 0.166186 0.137303
H6    H     H_    0.990017 0.345761 0.651838 0.125591
H7    H     H_    0.505281 0.972347 0.192962 0.122239
H8    H     H_    0.421262 0.856545 0.295037 0.128220
H9    H     H_    0.209741 0.860922 0.393805 0.157838
H10   H     H_    0.655085 0.338359 0.173297 0.091074
H11   H     H_    0.164652 0.091518 0.282461 0.151757
H12   H     H_    0.376601 0.086261 0.183584 0.122311
H13   H     H_    0.098233 0.148561 0.521378 0.131211
H14   H     H_    0.782242 0.899120 0.501656 0.126815
H15   H     H_    0.695030 0.911845 0.689189 0.122526
H16   H     H_    0.502719 0.961335 0.845234 0.175503
H17   H     H_    0.409447 0.158560 0.944201 0.126169
H18   H     H_    0.508797 0.306749 0.885610 0.132153
H19   H     H_    0.699899 0.258760 0.728483 0.131345
H20   H     H_    0.743094 0.629239 0.913070 0.164242
H21   H     H_    0.032016 0.414375 0.376650 0.179430
H22   H     H_    0.643821 0.625053 0.612193 0.176611
H23   H     H_    0.816944 0.729070 0.602182 0.159372
H24   H     H_    0.554215 0.401027 0.634148 0.178956
H25   H     H_    0.510305 0.345322 0.316287 0.122019
H26   H     H_    0.284930 0.241169 0.398416 0.129148
H27   H     H_    0.083407 0.297429 0.452599 0.151515
H28   H     H_    0.002055 0.496941 0.583813 0.164074
H29   H     H_    0.132505 0.646826 0.627290 0.169584
H30   H     H_    0.910696 0.695941 0.381378 0.119490
H31   H     H_    0.332994 0.592174 0.569054 0.115996
H32   H     H_    0.427387 0.529924 0.160509 0.143363
H33   H     H_    0.527323 0.615671 0.984456 0.200013
H34   H     H_    0.896790 0.966672 0.945235 0.167762
H35   H     H_    0.896370 0.043930 0.162749 0.181815
H36   H     H_    0.601990 0.438650 0.096978 0.095559
H37   H     H_    0.073672 0.887541 0.199247 0.159757
H38   H     H_    0.836154 0.524200 0.359553 0.125168
N1    N     N_R   0.037320 0.720000 0.995830 -0.076301
N2    N     N_R   0.946240 0.290870 0.848020 -0.044450
N3    N     N_R   0.146160 0.501170 0.788610 -0.046882
N4    N     N_R   0.025750 0.332680 0.063570 -0.043117
N5    N     N_R   0.962680 0.280000 0.004170 -0.045802
N6    N     N_R   0.209230 0.553860 0.848010 -0.061484
N7    N     N_R   0.175100 0.482030 0.063570 -0.057674
N8    N     N_R   0.996810 0.351820 0.788610 -0.041730
N9    N     N_R   0.790770 0.446140 0.151990 -0.043766
N10   N     N_R   0.824900 0.517970 0.936430 -0.041358
N11   N     N_R   0.003190 0.648180 0.211390 -0.040442
N12   N     N_R   0.774330 0.457010 0.995830 -0.046885
N13   N     N_R   0.053760 0.709130 0.151980 -0.039948
N14   N     N_R   0.853840 0.498830 0.211390 -0.044406
N15   N     N_R   0.974250 0.667320 0.936430 -0.077196
N16   N     N_R   0.225670 0.542990 0.004170 -0.074607
Ni1   Ni    Ni4+2 0.130310 0.630310 0.000000 0.267065
Ni2   Ni    Ni4+2 0.869690 0.369690 0.000000 0.213681
Ni3   Ni    Ni4+2 0.985660 0.509480 0.863750 0.228622
Ni4   Ni    Ni4+2 0.014340 0.490520 0.136250 0.230298
I1    I     I_    0.168404 0.940706 0.028687 -0.462548
C65   C     C_2   0.414111 0.597583 0.789927 1.045819
O1    O     O_2   0.491459 0.568053 0.799921 -0.634622
O2    O     O_R   0.414628 0.702726 0.787653 -0.758013
H39   H     H_    0.347391 0.717940 0.777707 0.295967
I2    I     I_    0.082349 0.672307 0.455264 -0.522203
I3    I     I_    0.870343 0.219135 0.371113 -0.513342
I4    I     I_    0.899312 0.721258 0.793649 -0.511757
I5    I     I_    0.347754 0.757843 0.042098 -0.378603

loop_
_geom_bond_atom_site_label_1
_geom_bond_atom_site_label_2
_ccdc_geom_bond_type
O2    H39   S    
C12   H10   S    
C11   N7    A    
C41   C42   A    
C3    C23   A    
C19   C20   A    
C22   H12   S    
C2    C12   A    
N10   N12   A    
C20   C30   S    
C53   C54   A    
C34   N11   A    
C23   N10   A    
C26   C27   A    
C29   C30   A    
N14   Ni4   S    
C18   C24   A    
C61   H35   S    
C36   C37   A    
C56   H37   S    
C10   C65   S    
N8    Ni3   S    
C38   C39   A    
C63   N15   A    
C11   C14   A    
C40   C50   S    
N7    Ni4   S    
C47   C57   S    
N4    N5    A    
C36   H19   S    
C18   C19   A    
C63   I4    S    
N15   Ni3   S    
N16   Ni1   S    
C54   H29   S    
C58   H32   S    
C6    C15   A    
C54   C55   A    
C10   N6    A    
C45   N12   A    
C6    H1    S    
N11   Ni4   S    
C47   C48   A    
C62   H38   S    
C7    N3    A    
N9    N14   A    
C51   C57   A    
C6    N2    A    
C28   H14   S    
C1    N1    A    
C4    C29   S    
C21   C22   A    
C4    C56   A    
N6    Ni1   S    
N1    N15   A    
C35   H18   S    
C44   C46   A    
N7    N16   A    
C18   H8    S    
C14   C58   S    
N3    N6    A    
C4    C34   A    
C23   H20   S    
C38   H21   S    
C51   C52   A    
C19   H9    S    
C55   H31   S    
C16   C46   S    
C39   C40   A    
C15   C26   S    
C39   I3    S    
C58   C59   D    
C3    C45   A    
C31   C37   A    
C60   C61   D    
C35   C36   A    
C1    I1    S    
C62   N14   A    
C13   N8    A    
C41   H22   S    
C2    C49   S    
C32   H16   S    
C31   C32   A    
C5    I5    S    
N4    Ni4   S    
C53   H28   S    
N3    Ni3   S    
C5    C14   A    
N1    Ni1   S    
C9    C17   A    
C40   C41   A    
N13   Ni1   S    
C48   H25   S    
C13   C15   A    
C59   H33   S    
C25   H13   S    
C42   C43   A    
C1    C64   A    
N5    Ni2   S    
C52   C53   A    
C65   O2    S    
C44   C50   A    
C25   C30   A    
C46   C47   A    
C28   C29   A    
C7    C16   A    
C34   H30   S    
C45   H36   S    
C8    N4    A    
C43   I2    S    
C11   H5    S    
C31   H15   S    
C9    N5    A    
C21   H11   S    
C60   H34   S    
C8    C17   A    
C5    N16   A    
C60   C64   S    
C32   C33   A    
C55   C57   A    
C25   C26   A    
C9    H4    S    
C38   C43   A    
C51   H26   S    
C10   C16   A    
C7    H2    S    
N2    N8    A    
C27   C37   S    
C48   C49   A    
C33   C35   A    
C56   N13   A    
C22   C24   A    
C63   C64   A    
N10   Ni3   S    
C20   C21   A    
C8    H3    S    
C49   C50   A    
C13   H6    S    
C27   C28   A    
N9    Ni2   S    
C52   H27   S    
C42   H23   S    
N2    Ni2   S    
C44   H24   S    
C33   H17   S    
C12   N9    A    
N12   Ni2   S    
C2    C62   A    
C24   H7    S    
C65   O1    D    
N11   N13   A    
C3    C59   S    
