data_mof_unit_44469.cif
_audit_creation_date              2012-12-11T15:52:34-0500
_audit_creation_method            fapswitch 2.2
_symmetry_space_group_name_H-M    P1
_symmetry_Int_Tables_number       1
_space_group_crystal_system       triclinic
_cell_length_a                    6.923633
_cell_length_b                    14.599746
_cell_length_c                    15.985705
_cell_angle_alpha                 90.331658
_cell_angle_beta                  90.192688
_cell_angle_gamma                 89.858867
_cell_volume                      1615.84651105

loop_
_atom_site_label
_atom_site_type_symbol
_atom_type_description
_atom_site_fract_x
_atom_site_fract_y
_atom_site_fract_z
_atom_type_partial_charge
O1    O     O_R   0.494400 0.415640 0.412830 -0.539546
O2    O     O_R   0.823920 0.405510 0.586560 -0.543376
O3    O     O_R   0.994250 0.584360 0.587170 -0.540476
C1    C     C_R   0.655078 0.383169 0.615413 0.684761
O4    O     O_R   0.824110 0.404610 0.413450 -0.543142
O5    O     O_R   0.994440 0.583460 0.412820 -0.541149
C2    C     C_R   0.655018 0.382417 0.384118 0.688351
O6    O     O_R   0.494210 0.416540 0.587180 -0.540073
O7    O     O_3   0.660810 0.558680 0.500000 -0.370062
V1    V     V_3+5 0.935650 0.489110 0.500000 1.387705
O8    O     O_R   0.324150 0.594490 0.413440 -0.543197
C3    C     C_R   0.154673 0.615911 0.383941 0.708331
O9    O     O_R   0.323970 0.595390 0.586550 -0.545037
C4    C     C_R   0.155179 0.617736 0.615563 0.652525
V2    V     V_3+5 0.435660 0.510890 0.500000 1.384572
O10   O     O_3   0.160630 0.441320 0.500000 -0.367878
C5    C     C_3   0.047663 0.645532 0.764666 -0.319364
H1    H     H_    0.899718 0.621362 0.748584 0.136937
H2    H     H_    0.131685 0.584797 0.785790 0.122997
C6    C     C_3   0.034964 0.716719 0.837165 -0.322712
H3    H     H_    0.112928 0.690078 0.892970 0.124007
H4    H     H_    0.881091 0.726297 0.855218 0.138693
H5    H     H_    0.876039 0.751498 0.641271 0.140337
H6    H     H_    0.857401 0.856121 0.748132 0.136567
C7    C     C_3   0.024505 0.772789 0.659729 -0.320273
C8    C     C_3   0.349128 0.721384 0.712500 -0.317647
C9    C     C_3   0.144673 0.687721 0.686310 0.117929
H7    H     H_    0.422715 0.753121 0.658098 0.134438
H8    H     H_    0.439285 0.662286 0.732887 0.134750
C10   C     C_3   0.123068 0.809758 0.810697 0.118898
C11   C     C_3   0.011793 0.843907 0.732288 -0.323507
C12   C     C_3   0.336668 0.792081 0.784553 -0.306444
H9    H     H_    0.421166 0.766438 0.839010 0.138224
H10   H     H_    0.404601 0.857284 0.764250 0.131742
H11   H     H_    0.091628 0.805198 0.604140 0.119769
H12   H     H_    0.072747 0.910386 0.711407 0.121990
C13   C     C_R   0.964735 0.760049 0.203740 -0.233530
H13   H     H_    0.832280 0.765600 0.167868 0.167547
C14   C     C_R   0.972843 0.696337 0.268763 -0.170632
H14   H     H_    0.846255 0.655348 0.281530 0.131463
C15   C     C_R   0.143153 0.684184 0.315327 -0.086126
C16   C     C_R   0.303563 0.738327 0.296450 -0.274153
H15   H     H_    0.435552 0.727302 0.331284 0.115578
C17   C     C_R   0.294238 0.807762 0.234896 0.440478
C18   C     C_R   0.124426 0.815714 0.184981 -0.126130
C19   C     C_R   0.812439 0.274057 0.716520 -0.162451
H16   H     H_    0.953316 0.292443 0.692785 0.116198
C20   C     C_R   0.801249 0.209400 0.780667 -0.155936
H17   H     H_    0.934140 0.179897 0.804297 0.117246
C21   C     C_R   0.621413 0.183203 0.813715 -0.043310
C22   C     C_R   0.453077 0.223411 0.780752 -0.162624
H18   H     H_    0.312201 0.205024 0.804485 0.115342
C23   C     C_R   0.464266 0.288063 0.716602 -0.156161
H19   H     H_    0.331373 0.317556 0.692965 0.118303
C24   C     C_R   0.644102 0.314264 0.683556 -0.046706
C25   C     C_R   0.812369 0.274624 0.280983 -0.155400
H20   H     H_    0.953118 0.292128 0.305998 0.116048
C26   C     C_R   0.801498 0.211418 0.214888 -0.151454
H21   H     H_    0.934306 0.181768 0.191404 0.118526
C27   C     C_R   0.621916 0.186250 0.180189 -0.060243
C28   C     C_R   0.453548 0.226260 0.213354 -0.163138
H22   H     H_    0.312764 0.208419 0.188582 0.117663
C29   C     C_R   0.464415 0.289437 0.279478 -0.151006
H23   H     H_    0.331517 0.318717 0.303249 0.118603
C30   C     C_R   0.643962 0.314429 0.314333 -0.047832
O11   O     O_R   0.771300 0.080930 0.910090 -0.543148
O12   O     O_R   0.441270 0.092800 0.083770 -0.537948
O13   O     O_R   0.271080 0.913920 0.084380 -0.502401
C31   C     C_R   0.610559 0.116559 0.111814 0.704448
O14   O     O_R   0.441580 0.091910 0.910670 -0.547161
O15   O     O_R   0.271390 0.913020 0.910040 -0.544297
C32   C     C_R   0.610430 0.114281 0.881842 0.671895
O16   O     O_R   0.770990 0.081830 0.084440 -0.543831
O17   O     O_3   0.604750 0.938760 0.997250 -0.358425
V3    V     V_3+5 0.329850 0.008280 0.997210 1.432387
O18   O     O_R   0.941680 0.901940 0.910610 -0.546100
C33   C     C_R   0.110919 0.879682 0.881538 0.643433
O19   O     O_R   0.941370 0.902830 0.083720 -0.545645
C34   C     C_R   0.111043 0.882295 0.114251 0.722139
V4    V     V_3+5 0.829860 0.986420 0.997150 1.409808
O20   O     O_3   0.104830 0.056030 0.997180 -0.375568
O21   O     O_3   0.448909 0.866720 0.220280 -0.549153
C35   C     C_3   0.551557 0.889039 0.294504 0.062279
H24   H     H_    0.659532 0.834796 0.308427 0.132474
H25   H     H_    0.453412 0.898711 0.349083 0.108438
C36   C     C_3   0.660032 0.978066 0.282642 -0.687067
H26   H     H_    0.749471 0.993016 0.338849 0.168241
H27   H     H_    0.755952 0.972950 0.227335 0.226958
H28   H     H_    0.554652 0.034530 0.274174 0.212446

loop_
_geom_bond_atom_site_label_1
_geom_bond_atom_site_label_2
_ccdc_geom_bond_type
C7    C11   S    
C10   C12   S    
C29   C30   A    
C8    C12   S    
C15   C16   A    
C1    O6    A    
C14   C15   A    
C6    C10   S    
C23   H19   S    
O13   V3    S    
C8    C9    S    
C3    C15   S    
C17   O21   S    
O5    C3    A    
C10   C11   S    
O19   V4    S    
C26   C27   A    
V2    O10   S    
C5    C6    S    
C25   H20   S    
C28   C29   A    
C21   C32   S    
O1    C2    A    
C10   C33   S    
O8    V2    S    
O11   C32   A    
C19   C24   A    
C31   O16   A    
O1    V2    S    
C4    C9    S    
O7    V1    S    
O13   C34   A    
C20   C21   A    
O17   V4    S    
O9    C4    A    
C16   C17   A    
C21   C22   A    
C23   C24   A    
C19   C20   A    
O17   V3    S    
C22   H18   S    
C5    C9    S    
O18   C33   A    
C14   H14   S    
O4    C2    A    
C36   H26   S    
V3    O20   S    
C26   H21   S    
C27   C28   A    
O12   C31   A    
C12   H10   S    
O2    C1    A    
C13   H13   S    
C2    C30   S    
C35   H24   S    
C5    H1    S    
C18   C34   S    
O3    C4    A    
C7    H11   S    
C20   H17   S    
C35   H25   S    
C6    H4    S    
O6    V2    S    
O9    V2    S    
C1    C24   S    
O12   V3    S    
C16   H15   S    
C13   C18   A    
O2    V1    S    
O15   C33   A    
C17   C18   A    
C19   H16   S    
O19   C34   A    
O18   V4    S    
V4    O20   S    
C36   H28   S    
O5    V1    S    
O8    C3    A    
C7    C9    S    
O11   V4    S    
C8    H7    S    
C12   H9    S    
O7    V2    S    
H6    C11   S    
O4    V1    S    
C13   C14   A    
O3    V1    S    
V1    O10   S    
O15   V3    S    
C27   C31   S    
C5    H2    S    
O16   V4    S    
C25   C26   A    
C36   H27   S    
H5    C7    S    
C28   H22   S    
C29   H23   S    
C35   C36   S    
C6    H3    S    
C8    H8    S    
O21   C35   S    
O14   V3    S    
C11   H12   S    
O14   C32   A    
C22   C23   A    
C25   C30   A    
