data_mof_unit_22429.cif
_audit_creation_date              2012-12-11T15:52:28-0500
_audit_creation_method            fapswitch 2.2
_symmetry_space_group_name_H-M    P1
_symmetry_Int_Tables_number       1
_space_group_crystal_system       triclinic
_cell_length_a                    6.918805
_cell_length_b                    14.696337
_cell_length_c                    15.970138
_cell_angle_alpha                 90.300291
_cell_angle_beta                  89.895684
_cell_angle_gamma                 90.044757
_cell_volume                      1623.83556051

loop_
_atom_site_label
_atom_site_type_symbol
_atom_type_description
_atom_site_fract_x
_atom_site_fract_y
_atom_site_fract_z
_atom_type_partial_charge
O1    O     O_R   0.494400 0.415640 0.412830 -0.514643
O2    O     O_R   0.823920 0.405510 0.586560 -0.503592
O3    O     O_R   0.994250 0.584360 0.587170 -0.537808
C1    C     C_R   0.654156 0.381402 0.614035 0.779771
O4    O     O_R   0.824110 0.404610 0.413450 -0.514619
O5    O     O_R   0.994440 0.583460 0.412820 -0.552874
C2    C     C_R   0.655220 0.382674 0.383857 0.787777
O6    O     O_R   0.494210 0.416540 0.587180 -0.520366
O7    O     O_3   0.660810 0.558680 0.500000 -0.403418
V1    V     V_3+5 0.935650 0.489110 0.500000 1.571771
O8    O     O_R   0.324150 0.594490 0.413440 -0.547857
C3    C     C_R   0.155276 0.616359 0.384164 0.704794
O9    O     O_R   0.323970 0.595390 0.586550 -0.558078
C4    C     C_R   0.154723 0.617146 0.616248 0.684122
V2    V     V_3+5 0.435660 0.510890 0.500000 1.487849
O10   O     O_3   0.160630 0.441320 0.500000 -0.326934
C5    C     C_3   0.938465 0.686226 0.729836 0.228009
H1    H     H_    0.827862 0.704273 0.681849 0.076278
C6    C     C_3   0.928226 0.757535 0.801736 -0.384657
H2    H     H_    0.892026 0.723830 0.862029 0.212972
H3    H     H_    0.808363 0.805804 0.788363 0.114798
H4    H     H_    0.069839 0.800206 0.603769 0.107203
H5    H     H_    0.040589 0.903591 0.709515 0.081592
C7    C     C_3   0.177909 0.784575 0.653174 -0.395192
C8    C     C_3   0.296562 0.669066 0.755727 -0.283126
C9    C     C_3   0.142111 0.687281 0.687218 -0.013760
H6    H     H_    0.443742 0.669666 0.727561 0.086813
H7    H     H_    0.273408 0.601121 0.782675 0.180850
C10   C     C_3   0.122293 0.810549 0.810553 -0.015330
C11   C     C_3   0.163562 0.857237 0.724559 0.155676
C12   C     C_3   0.286505 0.740334 0.827566 0.248397
H8    H     H_    0.428798 0.776246 0.829642 0.107040
H9    H     H_    0.322736 0.787510 0.622795 0.187274
C13   C     C_R   0.957001 0.757065 0.203011 0.370427
C14   C     C_R   0.970907 0.694697 0.269788 -0.236503
H10   H     H_    0.845901 0.654007 0.286123 0.114455
C15   C     C_R   0.144068 0.683416 0.314479 -0.072145
C16   C     C_R   0.305088 0.735839 0.291265 -0.164069
H11   H     H_    0.440957 0.728904 0.324189 0.127381
C17   C     C_R   0.292447 0.798913 0.225969 -0.227981
H12   H     H_    0.418999 0.839127 0.211094 0.160934
C18   C     C_R   0.119230 0.810945 0.181073 -0.074283
C19   C     C_R   0.799231 0.252955 0.698514 0.340385
C20   C     C_R   0.786879 0.190296 0.764757 -0.343972
H13   H     H_    0.909456 0.146906 0.777974 0.156699
C21   C     C_R   0.617620 0.181056 0.812384 -0.154961
C22   C     C_R   0.454186 0.233570 0.791596 0.271563
C23   C     C_R   0.466928 0.298848 0.727022 0.304902
C24   C     C_R   0.640789 0.310402 0.680890 -0.202525
C25   C     C_R   0.795924 0.252556 0.298822 0.317959
C26   C     C_R   0.783295 0.190315 0.231667 -0.338248
H14   H     H_    0.900735 0.142875 0.221086 0.149911
C27   C     C_R   0.619481 0.186142 0.180146 -0.137703
C28   C     C_R   0.465459 0.247182 0.195212 0.266463
C29   C     C_R   0.481957 0.314492 0.259293 0.218818
C30   C     C_R   0.643942 0.314957 0.313537 -0.147422
O11   O     O_R   0.771300 0.080930 0.910090 -0.551805
O12   O     O_R   0.441270 0.092800 0.083770 -0.511975
O13   O     O_R   0.271080 0.913920 0.084380 -0.554633
C31   C     C_R   0.609970 0.116062 0.112175 0.767895
O14   O     O_R   0.441580 0.091910 0.910670 -0.508065
O15   O     O_R   0.271390 0.913020 0.910040 -0.547721
C32   C     C_R   0.610112 0.113584 0.881496 0.776232
O16   O     O_R   0.770990 0.081830 0.084440 -0.550716
O17   O     O_3   0.604750 0.938760 0.997250 -0.376906
V3    V     V_3+5 0.329850 0.008280 0.997210 1.513868
O18   O     O_R   0.941680 0.901940 0.910610 -0.546872
C33   C     C_R   0.110583 0.880611 0.880983 0.663837
O19   O     O_R   0.941370 0.902830 0.083720 -0.509854
C34   C     C_R   0.110028 0.879941 0.112387 0.714641
V4    V     V_3+5 0.829860 0.986420 0.997150 1.478670
O20   O     O_3   0.104830 0.056030 0.997180 -0.351919
O21   O     O_3   0.336597 0.907587 0.727556 -0.649101
H15   H     H_    0.303350 0.969778 0.747417 0.282364
O22   O     O_3   0.787454 0.764910 0.158052 -0.643301
H16   H     H_    0.691222 0.720932 0.179856 0.281087
O23   O     O_3   0.962362 0.256581 0.648639 -0.599998
H17   H     H_    0.054107 0.208469 0.666033 0.305955
O24   O     O_3   0.284431 0.221043 0.836173 -0.636281
H18   H     H_    0.176977 0.254885 0.810233 0.319443
O25   O     O_3   0.897731 0.598962 0.761078 -0.645058
H19   H     H_    0.756358 0.596482 0.771554 0.276609
O26   O     O_3   0.304042 0.347775 0.706093 -0.534168
C35   C     C_3   0.294240 0.424963 0.758182 -0.166014
H20   H     H_    0.160756 0.462465 0.741955 0.187647
H21   H     H_    0.421175 0.470040 0.747660 0.093266
H22   H     H_    0.284432 0.406775 0.825594 0.140937
O27   O     O_3   0.954905 0.252593 0.351132 -0.616528
H23   H     H_    0.048100 0.205654 0.331915 0.292818
O28   O     O_3   0.301580 0.240654 0.146243 -0.633879
H24   H     H_    0.188757 0.261259 0.179531 0.296878
O29   O     O_3   0.345342 0.382484 0.268120 -0.631940
H25   H     H_    0.287333 0.395167 0.212753 0.298957
O30   O     O_3   0.255016 0.695558 0.904150 -0.640463
H26   H     H_    0.314010 0.733595 0.948857 0.285274

loop_
_geom_bond_atom_site_label_1
_geom_bond_atom_site_label_2
_ccdc_geom_bond_type
C8    C12   S    
C29   C30   A    
O21   H15   S    
C14   H10   S    
C13   C18   A    
C35   H22   S    
C22   O24   S    
C19   C20   A    
O25   H19   S    
O23   H17   S    
C8    H7    S    
C29   O29   S    
O26   C35   S    
C5    C9    S    
C6    H3    S    
C15   C16   A    
C35   H21   S    
C28   O28   S    
O13   V3    S    
O5    C3    A    
C16   H11   S    
O12   C31   A    
V2    O10   S    
C18   C34   S    
O14   C32   A    
C13   C14   A    
O16   V4    S    
C1    O6    A    
O19   V4    S    
C21   C22   A    
O8    V2    S    
O14   V3    S    
O12   V3    S    
V3    O20   S    
C12   H8    S    
O1    V2    S    
C25   C30   A    
O7    V1    S    
O18   V4    S    
C25   O27   S    
C13   O22   S    
C17   C18   A    
O9    C4    A    
O19   C34   A    
C2    C30   S    
C27   C31   S    
C20   C21   A    
O11   C32   A    
O15   V3    S    
C26   H14   S    
H5    C11   S    
C35   H20   S    
O4    C2    A    
C11   O21   S    
C19   C24   A    
C25   C26   A    
C8    C9    S    
O17   V4    S    
O11   V4    S    
O18   C33   A    
C26   C27   A    
O2    C1    A    
O22   H16   S    
C10   C11   S    
C10   C33   S    
C22   C23   A    
C5    H1    S    
C4    C9    S    
O3    C4    A    
C23   C24   A    
O6    V2    S    
O9    V2    S    
H4    C7    S    
C8    H6    S    
O2    V1    S    
C20   H13   S    
C28   C29   A    
C17   H12   S    
C14   C15   A    
O1    C2    A    
C7    C9    S    
O5    V1    S    
O8    C3    A    
C27   C28   A    
C19   O23   S    
C12   O30   S    
C1    C24   S    
C7    H9    S    
C23   O26   S    
O15   C33   A    
C21   C32   S    
C31   O16   A    
C6    H2    S    
O7    V2    S    
O4    V1    S    
C10   C12   S    
O3    V1    S    
V1    O10   S    
C16   C17   A    
O28   H24   S    
O29   H25   S    
C5    C6    S    
C5    O25   S    
O30   H26   S    
C7    C11   S    
O13   C34   A    
O24   H18   S    
V4    O20   S    
O27   H23   S    
O17   V3    S    
C3    C15   S    
C6    C10   S    
