data_mof_unit_40801.cif
_audit_creation_date              2013-03-05T15:57:41-0500
_audit_creation_method            fapswitch 2.2
_symmetry_space_group_name_H-M    P1
_symmetry_Int_Tables_number       1
_space_group_crystal_system       triclinic
_cell_length_a                    19.222146
_cell_length_b                    17.73395
_cell_length_c                    12.623672
_cell_angle_alpha                 90.500333
_cell_angle_beta                  99.774384
_cell_angle_gamma                 90.110761
_cell_volume                      4240.56200602

loop_
_atom_site_label
_atom_site_type_symbol
_atom_site_description
_atom_site_fract_x
_atom_site_fract_y
_atom_site_fract_z
_atom_type_partial_charge
O1    O     O_R   0.448200 0.076800 0.373930 -0.515596
O2    O     O_R   0.448200 0.923200 0.373930 -0.532730
O3    O     O_R   0.948200 0.576800 0.373930 -0.522064
O4    O     O_R   0.948200 0.423200 0.373930 -0.538170
O5    O     O_R   0.414750 0.076790 0.542400 -0.629053
O6    O     O_R   0.414750 0.923210 0.542400 -0.626113
O7    O     O_R   0.914750 0.576790 0.542400 -0.624600
O8    O     O_R   0.914750 0.423210 0.542400 -0.632398
C1    C     C_R   0.414967 0.106606 0.447175 0.925940
C2    C     C_R   0.412358 0.894942 0.444265 0.907669
C3    C     C_R   0.908583 0.600477 0.442700 0.955888
C4    C     C_R   0.911514 0.395786 0.443571 0.885994
Zn1   Zn    Zn3+2 0.522330 0.000000 0.387520 1.060245
Zn2   Zn    Zn3+2 0.022330 0.500000 0.387520 1.066148
Zn3   Zn    Zn3+2 0.477660 0.000000 0.612480 0.950480
Zn4   Zn    Zn3+2 0.977660 0.500000 0.612480 0.956868
O9    O     O_R   0.585240 0.923200 0.457600 -0.633531
O10   O     O_R   0.585240 0.076800 0.457600 -0.608148
O11   O     O_R   0.085240 0.423200 0.457600 -0.632554
O12   O     O_R   0.085240 0.576800 0.457600 -0.602382
O13   O     O_R   0.551780 0.923190 0.626070 -0.637900
O14   O     O_R   0.551780 0.076810 0.626070 -0.633408
O15   O     O_R   0.051780 0.423190 0.626070 -0.641151
O16   O     O_R   0.051780 0.576810 0.626070 -0.627663
C5    C     C_R   0.588896 0.896768 0.555318 0.824525
C6    C     C_R   0.590989 0.100880 0.558098 0.841101
C7    C     C_R   0.089782 0.398381 0.556873 0.833485
C8    C     C_R   0.091287 0.600714 0.558062 0.891407
C9    C     C_R   0.753268 0.178050 0.732290 -0.084384
C10   C     C_R   0.634985 0.697999 0.639767 -0.086503
C11   C     C_R   0.251516 0.681327 0.735271 -0.089603
C12   C     C_R   0.223016 0.283558 0.736303 -0.096748
H1    H     H_    0.665647 0.112031 0.763733 0.161008
H2    H     H_    0.567181 0.782101 0.690614 0.194872
H3    H     H_    0.161696 0.618388 0.765794 0.167455
H4    H     H_    0.139414 0.356261 0.763775 0.178017
H5    H     H_    0.780406 0.172081 0.814060 0.213540
H6    H     H_    0.616515 0.656085 0.690084 0.216149
H7    H     H_    0.276203 0.678676 0.818694 0.218612
H8    H     H_    0.242984 0.280746 0.821525 0.214368
C13   C     C_R   0.650182 0.150260 0.598974 -0.056626
C14   C     C_R   0.628494 0.826796 0.576809 -0.049570
C15   C     C_R   0.151443 0.649293 0.598295 -0.056731
C16   C     C_R   0.141637 0.341240 0.593733 -0.048718
C17   C     C_R   0.343232 0.809236 0.302639 0.206005
C18   C     C_R   0.348346 0.195031 0.313391 0.202562
C19   C     C_R   0.836629 0.316701 0.299701 0.208807
C20   C     C_R   0.868587 0.714829 0.335812 0.202965
C21   C     C_R   0.296813 0.748534 0.274707 0.284430
C22   C     C_R   0.275632 0.208455 0.279720 0.273515
C23   C     C_R   0.786289 0.259765 0.270672 0.283934
C24   C     C_R   0.813561 0.763392 0.291709 0.298453
C25   C     C_R   0.270000 0.708956 0.355040 -0.172834
C26   C     C_R   0.231282 0.213303 0.358521 -0.196196
C27   C     C_R   0.758966 0.220221 0.350414 -0.172159
C28   C     C_R   0.749679 0.763115 0.332891 -0.178767
C29   C     C_R   0.289527 0.732381 0.464335 -0.036879
C30   C     C_R   0.263705 0.223581 0.468476 -0.043442
C31   C     C_R   0.782897 0.238803 0.460814 -0.032508
C32   C     C_R   0.745750 0.719525 0.425552 -0.040148
C33   C     C_R   0.347849 0.780539 0.492701 0.011423
C34   C     C_R   0.334159 0.201940 0.499430 0.004752
C35   C     C_R   0.843875 0.283300 0.488576 0.013101
C36   C     C_R   0.789936 0.656939 0.445912 0.011837
C37   C     C_R   0.749035 0.213815 0.545238 0.063389
C38   C     C_R   0.700708 0.736313 0.500038 0.063183
C39   C     C_R   0.253305 0.709331 0.547084 0.045829
C40   C     C_R   0.229528 0.256014 0.548103 0.073112
C41   C     C_R   0.785381 0.213327 0.653097 0.038350
C42   C     C_R   0.683626 0.680276 0.571107 0.039884
C43   C     C_R   0.286197 0.713551 0.656516 0.034519
C44   C     C_R   0.259032 0.250825 0.659348 0.038835
C45   C     C_R   0.353176 0.747963 0.682594 0.260819
C46   C     C_R   0.327484 0.221901 0.689215 0.235738
C47   C     C_R   0.853294 0.245651 0.677067 0.261065
C48   C     C_R   0.715366 0.608551 0.569730 0.279709
C49   C     C_R   0.383078 0.781072 0.600603 -0.218305
C50   C     C_R   0.366469 0.205762 0.608529 -0.178899
C51   C     C_R   0.881731 0.279915 0.594713 -0.200793
C52   C     C_R   0.768838 0.597972 0.508123 -0.205827
C53   C     C_R   0.678358 0.192069 0.524752 -0.203303
C54   C     C_R   0.677848 0.810005 0.511387 -0.223323
C55   C     C_R   0.183107 0.686217 0.522812 -0.197318
C56   C     C_R   0.172914 0.303960 0.517676 -0.245708
C57   C     C_R   0.686827 0.144570 0.704379 -0.170928
C58   C     C_R   0.607180 0.770673 0.641749 -0.184079
C59   C     C_R   0.185213 0.647639 0.705691 -0.192604
C60   C     C_R   0.163957 0.327904 0.703384 -0.175819
C61   C     C_R   0.368839 0.826605 0.412549 -0.268411
C62   C     C_R   0.370379 0.173345 0.420649 -0.245108
C63   C     C_R   0.865167 0.330026 0.409691 -0.255370
C64   C     C_R   0.854371 0.656878 0.405884 -0.224793
H9    H     H_    0.645456 0.203228 0.448163 0.188480
H10   H     H_    0.696837 0.855032 0.466156 0.148571
H11   H     H_    0.153207 0.693531 0.442865 0.201306
H12   H     H_    0.156702 0.317860 0.433934 0.169127
H13   H     H_    0.434603 0.806739 0.622473 0.188028
H14   H     H_    0.422142 0.193640 0.631850 0.202553
H15   H     H_    0.934294 0.303483 0.614791 0.197175
H16   H     H_    0.794105 0.543487 0.510472 0.178590
C65   C     C_R   0.647512 0.988394 0.138777 -0.058381
C66   C     C_R   0.145130 0.472610 0.138543 -0.070511
H17   H     H_    0.657218 0.981959 0.311348 0.154336
H18   H     H_    0.154329 0.468486 0.311053 0.170629
H19   H     H_    0.673614 0.995988 0.932160 0.137233
H20   H     H_    0.173063 0.484671 0.933284 0.137042
N1    N     N_R   0.552340 0.000000 0.237260 -0.155982
N2    N     N_R   0.052340 0.500000 0.237260 -0.159965
C67   C     C_R   0.377933 0.991102 0.761121 0.026926
C68   C     C_R   0.877898 0.491378 0.761008 0.040060
C69   C     C_R   0.353669 0.975003 0.855533 -0.119736
C70   C     C_R   0.853174 0.477562 0.855745 -0.111872
C71   C     C_R   0.402062 0.971899 0.950443 0.006130
C72   C     C_R   0.901119 0.476228 0.951116 -0.043116
C73   C     C_R   0.474081 0.989268 0.951956 0.025628
C74   C     C_R   0.973473 0.491147 0.952281 0.025443
C75   C     C_R   0.496771 0.997286 0.853174 0.256952
C76   C     C_R   0.996571 0.497258 0.853433 0.252159
C77   C     C_R   0.524409 0.995210 0.047211 -0.076424
C78   C     C_R   0.023889 0.494814 0.047363 -0.073364
C79   C     C_R   0.597847 0.991794 0.042390 0.081266
C80   C     C_R   0.096606 0.483772 0.042480 0.079487
C81   C     C_R   0.618869 0.994779 0.941526 -0.206670
C82   C     C_R   0.118187 0.486862 0.941969 -0.225790
C83   C     C_R   0.568909 0.999693 0.848918 -0.154090
C84   C     C_R   0.068850 0.496990 0.849516 -0.173563
C85   C     C_R   0.504165 0.008624 0.147059 0.415592
C86   C     C_R   0.004737 0.511253 0.147165 0.416158
C87   C     C_R   0.621734 0.988423 0.235728 0.006613
C88   C     C_R   0.119828 0.478778 0.235575 0.021590
N3    N     N_R   0.448170 0.000000 0.762060 -0.140132
N4    N     N_R   0.948170 0.500000 0.762060 -0.146775
H21   H     H_    0.341522 0.991830 0.685735 0.152743
H22   H     H_    0.841806 0.490616 0.685506 0.171037
H23   H     H_    0.382761 0.953734 0.021074 0.233445
H24   H     H_    0.881394 0.459706 0.022061 0.241818
H25   H     H_    0.298339 0.963134 0.854874 0.191704
H26   H     H_    0.797844 0.465858 0.855133 0.230240
H27   H     H_    0.588209 0.003237 0.774708 0.195753
H28   H     H_    0.088495 0.501546 0.775585 0.190467
C89   C     C_2   0.725081 0.983605 0.141712 0.578364
H29   H     H_    0.747034 0.965561 0.072273 0.101112
O17   O     O_2   0.766130 0.999171 0.223868 -0.541168
C90   C     C_2   0.220383 0.451958 0.140586 0.549028
H30   H     H_    0.239215 0.433608 0.068547 0.086247
O18   O     O_2   0.262686 0.453839 0.224538 -0.549015
N5    N     N_R   0.438224 0.044364 0.153633 0.198091
O19   O     O_R   0.392118 0.011323 0.201753 -0.333302
O20   O     O_R   0.418632 0.102122 0.093111 -0.273324
N6    N     N_R   0.940322 0.550099 0.154119 0.196475
O21   O     O_R   0.891963 0.518044 0.198714 -0.342454
O22   O     O_R   0.924385 0.610684 0.097922 -0.318315
N7    N     N_R   0.389590 0.754542 0.791566 0.205366
O23   O     O_R   0.457719 0.745786 0.812610 -0.369614
O24   O     O_R   0.357751 0.783727 0.865230 -0.341924
N8    N     N_R   0.359684 0.212960 0.799862 0.207568
O25   O     O_R   0.426599 0.227220 0.829929 -0.319046
O26   O     O_R   0.326023 0.177307 0.865451 -0.311057
N9    N     N_R   0.892425 0.248660 0.784692 0.204655
O27   O     O_R   0.960419 0.238470 0.801067 -0.340879
O28   O     O_R   0.863351 0.276444 0.862301 -0.328216
N10   N     N_R   0.698212 0.547699 0.635232 0.187618
O29   O     O_R   0.701473 0.557707 0.738173 -0.387781
O30   O     O_R   0.693260 0.479291 0.596478 -0.370897
N11   N     N_R   0.363878 0.851856 0.217276 0.251742
O31   O     O_R   0.315043 0.882706 0.147110 -0.307626
O32   O     O_R   0.426007 0.840875 0.192110 -0.345690
N12   N     N_R   0.399867 0.212516 0.246002 0.273125
O33   O     O_R   0.381254 0.248591 0.156356 -0.238803
O34   O     O_R   0.466958 0.209164 0.285106 -0.328351
N13   N     N_R   0.858078 0.359755 0.215376 0.248783
O35   O     O_R   0.809978 0.393763 0.147593 -0.311859
O36   O     O_R   0.919223 0.346461 0.188023 -0.331280
N14   N     N_R   0.938990 0.726406 0.313679 0.245840
O37   O     O_R   0.949598 0.742983 0.217522 -0.226965
O38   O     O_R   0.992253 0.728647 0.392533 -0.391679
C91   C     C_2   0.715320 0.151851 0.318865 0.494534
H31   H     H_    0.721205 0.103066 0.370866 0.073529
O39   O     O_2   0.670749 0.150389 0.237585 -0.500655
C92   C     C_2   0.684296 0.797826 0.272263 0.456205
H32   H     H_    0.635415 0.796860 0.304244 0.093598
O40   O     O_2   0.682430 0.823267 0.182446 -0.532544
C93   C     C_2   0.231964 0.636378 0.327172 0.480428
H33   H     H_    0.236391 0.591457 0.385775 0.068602
O41   O     O_2   0.194059 0.626638 0.240376 -0.511541
C94   C     C_2   0.154093 0.196214 0.330510 0.484959
H34   H     H_    0.123409 0.187278 0.393981 0.071997
O42   O     O_2   0.124104 0.189126 0.237654 -0.446564
N15   N     N_R   0.278217 0.726810 0.163719 0.263991
O43   O     O_R   0.326389 0.700835 0.112260 -0.299100
O44   O     O_R   0.216472 0.744276 0.110285 -0.265767
N16   N     N_R   0.246977 0.213036 0.167381 0.278846
O45   O     O_R   0.210118 0.271446 0.130213 -0.341511
O46   O     O_R   0.259801 0.160089 0.101362 -0.241033
N17   N     N_R   0.764652 0.241117 0.159069 0.259798
O47   O     O_R   0.809816 0.211891 0.104651 -0.294964
O48   O     O_R   0.703918 0.264240 0.108434 -0.252749
N18   N     N_R   0.824979 0.817126 0.212444 0.255610
O49   O     O_R   0.863450 0.876554 0.241684 -0.293178
O50   O     O_R   0.810265 0.798935 0.111028 -0.275282

loop_
_geom_bond_atom_site_label_1
_geom_bond_atom_site_label_2
_geom_bond_distance
_ccdc_geom_bond_type
C30   C34   1.399628 A    
N13   O35   1.301269 A    
C39   C55   1.392095 A    
N11   O31   1.301221 A    
C54   H10   1.083725 S    
C27   C31   1.426945 A    
C65   C87   1.396176 A    
C15   C55   1.383280 A    
C4    C63   1.481379 S    
C48   N10   1.436590 S    
N5    O19   1.297990 A    
O10   C6    1.321662 A    
N1    C87   1.353356 A    
C70   C72   1.386801 A    
C12   C44   1.407132 A    
C35   C51   1.413798 A    
C83   H27   1.066825 S    
O7    C3    1.316544 A    
C15   C59   1.400793 A    
N13   O36   1.301415 A    
C84   H28   1.068172 S    
C22   C26   1.417907 A    
C18   N12   1.445718 S    
Zn1   O10   1.925945 S    
C51   H15   1.081366 S    
N8    O25   1.301445 A    
N5    O20   1.300821 A    
C82   C84   1.386462 A    
C25   C93   1.488640 S    
C77   C85   1.399425 A    
C56   H12   1.080924 S    
C37   C41   1.421019 A    
C81   C83   1.384719 A    
C39   C43   1.419568 A    
C21   N15   1.434981 S    
C47   N9    1.437381 S    
C12   C60   1.388850 A    
C10   H6    1.079723 S    
C9    C57   1.395831 A    
H2    C58   1.082671 S    
N15   O44   1.301100 A    
O2    Zn1   1.954547 S    
H1    C57   1.081834 S    
N14   O37   1.300582 A    
C67   C69   1.383359 A    
O6    Zn3   1.925822 S    
H3    C59   1.082360 S    
C3    C64   1.466300 S    
Zn3   O14   1.954530 S    
C2    C61   1.484127 S    
C33   C49   1.414426 A    
C91   O39   1.220020 D    
C14   C54   1.390520 A    
C50   H14   1.083110 S    
C20   C64   1.417797 A    
N9    O28   1.301344 A    
C49   H13   1.080524 S    
N18   O49   1.300493 A    
C14   C58   1.399000 A    
O15   C7    1.304379 A    
C10   C58   1.397846 A    
C17   C61   1.422068 A    
C24   N18   1.431039 S    
N2    C88   1.355034 A    
Zn1   N1    2.074191 S    
Zn2   N2    2.074191 S    
C32   C38   1.412410 A    
O8    Zn4   1.925822 S    
H18   C88   1.081633 S    
C52   H16   1.080650 S    
C19   N13   1.431106 S    
C36   C52   1.412655 A    
N11   O32   1.301442 A    
C66   C90   1.488890 S    
C29   C39   1.412925 A    
Zn4   N4    2.061614 S    
C7    C16   1.446209 S    
C10   C42   1.412705 A    
C33   C61   1.416237 A    
N10   O30   1.301343 A    
C77   C79   1.424615 A    
C11   C59   1.397214 A    
C67   H21   1.081557 S    
C40   C56   1.386400 A    
Zn2   O12   1.925945 S    
O1    C1    1.317469 A    
C44   C46   1.405031 A    
C43   C45   1.409929 A    
C25   C29   1.424986 A    
C19   C23   1.399826 A    
O12   C8    1.319866 A    
C73   C75   1.397494 A    
C27   C91   1.485528 S    
C65   C79   1.415142 A    
C28   C32   1.420246 A    
C46   C50   1.391327 A    
C40   C44   1.426286 A    
C89   O17   1.220948 D    
N16   O46   1.301515 A    
C1    C62   1.470004 S    
O1    Zn1   1.960464 S    
N8    O26   1.301315 A    
C93   H33   1.085512 S    
O5    C1    1.318106 A    
C67   N3    1.357023 A    
C19   C63   1.421193 A    
C70   H26   1.081961 S    
C38   C54   1.393490 A    
C53   H9    1.081718 S    
C37   C53   1.392214 A    
N9    O27   1.301318 A    
C17   C21   1.400768 A    
O8    C4    1.326566 A    
O5    Zn3   1.940000 S    
C13   C53   1.379801 A    
C46   N8    1.438720 S    
C69   C71   1.388058 A    
C28   C92   1.492922 S    
C55   H11   1.082280 S    
N2    C86   1.349791 A    
C68   N4    1.356928 A    
H17   C87   1.082021 S    
N7    O24   1.301239 A    
O3    Zn2   1.960464 S    
C20   N14   1.442184 S    
C90   O18   1.221537 D    
O7    Zn4   1.940000 S    
Zn4   O15   1.960450 S    
C73   C77   1.412574 A    
C26   C94   1.495535 S    
C9    H5    1.080794 S    
N6    O22   1.300880 A    
C68   H22   1.079406 S    
O4    C4    1.312686 A    
C36   C64   1.414897 A    
C94   O42   1.220591 D    
O2    C2    1.314636 A    
C80   C82   1.401724 A    
O11   C7    1.320785 A    
C92   H32   1.083984 S    
C78   C80   1.423383 A    
O16   C8    1.311452 A    
C45   N7    1.437308 S    
N10   O29   1.300908 A    
C26   C30   1.431678 A    
C86   N6    1.433365 S    
O13   C5    1.317811 A    
N12   O33   1.301543 A    
C72   H24   1.072907 S    
C92   O40   1.218839 D    
C65   C89   1.487807 S    
Zn2   O11   1.940125 S    
C34   C50   1.412396 A    
C48   C52   1.402179 A    
C90   H30   1.082113 S    
C16   C56   1.380882 A    
C5    C14   1.460185 S    
O6    C2    1.325827 A    
C72   C74   1.412839 A    
C78   C86   1.399742 A    
C29   C33   1.403217 A    
C18   C62   1.405556 A    
C13   C57   1.400442 A    
C18   C22   1.411481 A    
C8    C15   1.458209 S    
C31   C35   1.404113 A    
Zn1   O9    1.940125 S    
C32   C36   1.397781 A    
O9    C5    1.314205 A    
N16   O45   1.301358 A    
C93   O41   1.219174 D    
N7    O23   1.301177 A    
N1    C85   1.350204 A    
H4    C60   1.083047 S    
C23   N17   1.435111 S    
C89   H29   1.081692 S    
C31   C37   1.413680 A    
C42   C48   1.413029 A    
C22   N16   1.434593 S    
C30   C40   1.410100 A    
C38   C42   1.419364 A    
Zn3   O13   1.960450 S    
C17   N11   1.431177 S    
C69   H25   1.082419 S    
C21   C25   1.405405 A    
C34   C62   1.399497 A    
N12   O34   1.301918 A    
N17   O48   1.301044 A    
N14   O38   1.301456 A    
C74   C76   1.398662 A    
C41   C47   1.408628 A    
C23   C27   1.404033 A    
C12   H8    1.080736 S    
O4    Zn2   1.954547 S    
N15   O43   1.300874 A    
C75   N3    1.354368 A    
C68   C70   1.383384 A    
C79   C81   1.401107 A    
O3    C3    1.314998 A    
O14   C6    1.308145 A    
N17   O47   1.300851 A    
C76   N4    1.354695 A    
C74   C78   1.409784 A    
C20   C24   1.407966 A    
Zn3   N3    2.061614 S    
Zn4   O16   1.954530 S    
C91   H31   1.085019 S    
C71   H23   1.073910 S    
C35   C63   1.413253 A    
C11   H7    1.080601 S    
C45   C49   1.399199 A    
N6    O21   1.298224 A    
C9    C41   1.410968 A    
N18   O50   1.300986 A    
C76   C84   1.398619 A    
H19   C81   1.078880 S    
H20   C82   1.079616 S    
C94   H34   1.085018 S    
C66   C80   1.414428 A    
C75   C83   1.397358 A    
C47   C51   1.396974 A    
C24   C28   1.412425 A    
C6    C13   1.454870 S    
C85   N5    1.432881 S    
C11   C43   1.411692 A    
C71   C73   1.414551 A    
C16   C60   1.400165 A    
C66   C88   1.396079 A    
