data_mof_unit_19928.cif
_audit_creation_date              2012-10-26T21:17:57-0400
_audit_creation_method            fapswitch 2.2
_symmetry_space_group_name_H-M    P1
_symmetry_Int_Tables_number       1
_space_group_crystal_system       triclinic
_cell_length_a                    14.69283
_cell_length_b                    14.700462
_cell_length_c                    27.78921
_cell_angle_alpha                 76.785087
_cell_angle_beta                  102.840117
_cell_angle_gamma                 114.761306
_cell_volume                      5251.46726125

loop_
_atom_site_label
_atom_site_type_symbol
_atom_type_description
_atom_site_fract_x
_atom_site_fract_y
_atom_site_fract_z
_atom_type_partial_charge
C1    C     C_R   0.880330 0.312242 0.508718 0.549103
C2    C     C_R   0.990755 0.412000 0.136092 0.045247
C3    C     C_R   0.998214 0.499509 0.645402 -0.027950
C4    C     C_R   0.000407 0.499243 0.354597 -0.020680
C5    C     C_R   0.970331 0.407843 0.032719 0.006823
C6    C     C_R   0.014573 0.589421 0.965587 0.004521
C7    C     C_R   0.000737 0.588094 0.014810 0.010558
C8    C     C_R   0.952584 0.404379 0.980575 0.017117
C9    C     C_R   0.988189 0.498581 0.049480 -0.024967
C10   C     C_R   0.984378 0.496907 0.947644 -0.023814
C11   C     C_R   0.976769 0.325246 0.068493 -0.110612
C12   C     C_R   0.119651 0.687744 0.492006 0.549350
C13   C     C_R   0.061324 0.680507 0.934618 -0.113063
C14   C     C_R   0.987242 0.326291 0.119498 0.137472
C15   C     C_R   0.066356 0.682625 0.884868 0.134891
C16   C     C_R   0.999513 0.499942 0.592490 0.553000
C17   C     C_R   0.000331 0.499883 0.407517 0.554998
C18   C     C_R   0.904203 0.312194 0.960444 0.127016
C19   C     C_R   0.996658 0.671941 0.030093 0.147784
C20   C     C_R   0.812781 0.204619 0.515444 -0.002072
C21   C     C_R   0.187220 0.795033 0.490891 -0.001369
C22   C     C_R   0.784379 0.026717 0.532869 -0.131039
C23   C     C_R   0.986486 0.497312 0.896849 -0.105068
C24   C     C_R   0.216639 0.969956 0.490007 -0.130251
C25   C     C_R   0.850730 0.128075 0.527515 -0.135100
C26   C     C_R   0.149738 0.870058 0.486983 -0.133590
C27   C     C_R   0.708330 0.178831 0.509882 -0.133907
C28   C     C_R   0.291728 0.821097 0.497038 -0.129620
C29   C     C_R   0.640015 0.077333 0.516701 0.032593
C30   C     C_R   0.360865 0.920130 0.502659 0.033891
C31   C     C_R   0.679542 0.000828 0.526957 0.051518
C32   C     C_R   0.321628 0.995474 0.497950 0.051035
C33   C     C_R   0.533618 0.050001 0.512047 0.033089
C34   C     C_R   0.993743 0.499561 0.100929 -0.102417
C35   C     C_R   0.467507 0.946344 0.512260 0.032834
C36   C     C_R   0.510204 0.872253 0.523220 -0.136440
C37   C     C_R   0.491308 0.122534 0.508144 -0.136106
C38   C     C_R   0.614197 0.899289 0.530904 -0.131032
C39   C     C_R   0.387358 0.095352 0.501535 -0.131840
C40   C     C_R   0.948544 0.408338 0.826613 0.403534
C41   C     C_R   0.011679 0.586677 0.169016 0.426170
C42   C     C_R   0.715522 0.669123 0.417417 -0.159079
C43   C     C_R   0.284146 0.330382 0.582366 -0.159054
C44   C     C_R   0.797004 0.639194 0.430209 0.038493
C45   C     C_R   0.947589 0.404609 0.877824 0.014978
C46   C     C_R   0.202834 0.360581 0.569685 0.039395
C47   C     C_R   0.714662 0.508783 0.492806 0.033857
C48   C     C_R   0.285337 0.491163 0.507198 0.034908
C49   C     C_R   0.628589 0.534912 0.481355 0.002472
C50   C     C_R   0.371240 0.464766 0.518539 0.002862
C51   C     C_R   0.631443 0.617775 0.442982 0.039172
C52   C     C_R   0.368242 0.381706 0.556810 0.039198
C53   C     C_R   0.541100 0.483075 0.506597 0.022388
C54   C     C_R   0.458686 0.516522 0.493268 0.021744
C55   C     C_R   0.466644 0.600625 0.455260 -0.144747
C56   C     C_R   0.002715 0.587921 0.117165 0.000784
C57   C     C_R   0.533048 0.398842 0.544534 -0.146024
C58   C     C_R   0.550973 0.649540 0.430575 -0.128598
C59   C     C_R   0.448596 0.349758 0.569130 -0.131682
C60   C     C_R   0.031975 0.588543 0.815253 0.398025
C61   C     C_R   0.990803 0.413072 0.186660 0.385265
C62   C     C_R   0.922937 0.521131 0.709083 -0.085543
C63   C     C_R   0.078785 0.486099 0.289689 -0.093660
C64   C     C_R   0.923840 0.521066 0.659113 -0.158579
C65   C     C_R   0.079136 0.486394 0.339851 -0.160539
C66   C     C_R   0.071506 0.477658 0.682616 -0.106660
C67   C     C_R   0.905719 0.311826 0.909813 0.154238
C68   C     C_R   0.921097 0.511294 0.318355 -0.138554
C69   C     C_R   0.070614 0.476485 0.733094 0.194218
C70   C     C_R   0.919359 0.509458 0.268013 0.188888
C71   C     C_R   0.995823 0.499263 0.746142 0.248707
C72   C     C_R   0.999491 0.497773 0.253548 0.267426
C73   C     C_3   0.144792 0.354996 0.776202 -0.309660
C74   C     C_3   0.762254 0.427524 0.216504 -0.299741
C75   C     C_3   0.934987 0.170046 0.896680 -0.279042
C76   C     C_3   0.083317 0.846861 0.099866 -0.285655
C77   C     C_3   0.100467 0.252649 0.172281 -0.272015
C78   C     C_R   0.000275 0.673111 0.081103 0.156521
C79   C     C_3   0.037430 0.824924 0.832049 -0.266804
C80   C     C_3   0.746393 0.214563 0.993622 -0.310468
C81   C     C_3   0.870196 0.720027 0.971215 -0.303582
C82   C     C_R   0.027897 0.590715 0.865182 0.045820
Cu1   Cu    Cu3+1 0.081740 0.475690 0.513040 0.934641
Cu2   Cu    Cu3+1 0.918260 0.524310 0.486960 0.932722
H1    H     H_    0.130299 0.462511 0.672488 0.138493
H2    H     H_    0.446033 0.285566 0.598080 0.114471
H3    H     H_    0.279754 0.551462 0.477921 0.115247
H4    H     H_    0.720357 0.448650 0.522169 0.116678
H5    H     H_    0.137454 0.320459 0.589050 0.121626
H6    H     H_    0.862359 0.679309 0.410829 0.126080
H7    H     H_    0.718511 0.732515 0.387923 0.094913
H8    H     H_    0.281017 0.266813 0.611769 0.093364
H9    H     H_    0.408770 0.631086 0.443572 0.091657
H10   H     H_    0.590898 0.368344 0.556187 0.091308
H11   H     H_    0.141398 0.477310 0.366988 0.134606
H12   H     H_    0.859447 0.520781 0.329090 0.125167
H13   H     H_    0.866356 0.538076 0.631254 0.136088
H14   H     H_    0.140613 0.477358 0.278743 0.126465
H15   H     H_    0.865204 0.537954 0.719185 0.123371
H16   H     H_    0.979933 0.260784 0.057538 0.142835
H17   H     H_    0.097129 0.751758 0.948930 0.141938
H18   H     H_    0.643608 0.840084 0.539305 0.113976
H19   H     H_    0.358251 0.153276 0.498928 0.115659
H20   H     H_    0.069043 0.851418 0.482204 0.129724
H21   H     H_    0.931351 0.146426 0.532132 0.127820
H22   H     H_    0.157824 0.480628 0.803620 0.265617
H23   H     H_    0.317241 0.762505 0.496789 0.115605
H24   H     H_    0.208494 0.347914 0.804845 0.134306
H25   H     H_    0.153261 0.338731 0.740716 0.144024
H26   H     H_    0.072489 0.298310 0.788718 0.176382
H27   H     H_    0.805948 0.564156 0.241218 0.244233
H28   H     H_    0.704044 0.444192 0.187093 0.134550
H29   H     H_    0.724811 0.376466 0.248769 0.138788
H30   H     H_    0.796744 0.388601 0.200785 0.183248
H31   H     H_    0.794347 0.168514 0.900837 0.248541
H32   H     H_    0.898575 0.101651 0.877961 0.144508
H33   H     H_    0.958651 0.146943 0.936813 0.107699
H34   H     H_    0.681743 0.239525 0.498724 0.120599
H35   H     H_    0.003145 0.222755 0.879145 0.166024
H36   H     H_    0.939033 0.741450 0.117457 0.286464
H37   H     H_    0.109439 0.854487 0.139946 0.188247
H38   H     H_    0.067544 0.914601 0.080263 0.122673
H39   H     H_    0.145055 0.844680 0.083704 0.139742
H40   H     H_    0.954288 0.172803 0.140889 0.241647
H41   H     H_    0.139499 0.257216 0.141291 0.110752
H42   H     H_    0.101459 0.186228 0.200738 0.150186
H43   H     H_    0.142025 0.322098 0.190100 0.172479
H44   H     H_    0.174101 0.828037 0.873188 0.237058
H45   H     H_    0.814982 0.968449 0.541290 0.108327
H46   H     H_    0.009460 0.843369 0.861128 0.117987
H47   H     H_    0.972204 0.773251 0.809312 0.176741
H48   H     H_    0.074826 0.896022 0.807076 0.146067
H49   H     H_    0.846041 0.154943 0.984028 0.246888
H50   H     H_    0.709074 0.145004 0.019496 0.140485
H51   H     H_    0.698963 0.210809 0.956347 0.139898
H52   H     H_    0.752409 0.281055 0.008624 0.164940
H53   H     H_    0.006295 0.820554 0.003315 0.265844
H54   H     H_    0.861770 0.781924 0.941428 0.130896
H55   H     H_    0.821888 0.706290 0.999846 0.152871
H56   H     H_    0.186317 0.027147 0.486779 0.108888
H57   H     H_    0.844403 0.650511 0.954028 0.160021
H58   H     H_    0.465546 0.791964 0.527674 0.107990
H59   H     H_    0.536495 0.200931 0.511640 0.101780
H60   H     H_    0.553384 0.713512 0.401505 0.112080
N1    N     N_R   0.992109 0.498694 0.797362 -0.418717
N2    N     N_2   0.109309 0.778502 0.855035 -0.454311
N3    N     N_2   0.845771 0.221512 0.989872 -0.543951
N4    N     N_2   0.975135 0.748955 0.993655 -0.531737
N5    N     N_R   0.001383 0.499367 0.201836 -0.394239
N6    N     N_R   0.795430 0.560780 0.467350 -0.233629
N7    N     N_R   0.204570 0.439220 0.532650 -0.232071
N8    N     N_2   0.147203 0.456392 0.770043 -0.506616
N9    N     N_2   0.837966 0.521183 0.231924 -0.492970
N10   N     N_2   0.864095 0.217930 0.891020 -0.455346
N11   N     N_2   0.991399 0.756916 0.094347 -0.500334
N12   N     N_2   0.996760 0.241227 0.153617 -0.455427
O1    O     O_R   0.977900 0.338120 0.517190 -0.504887
O2    O     O_2   0.031948 0.671761 0.187119 -0.502564
O3    O     O_2   0.977758 0.328186 0.220471 -0.474524
O4    O     O_2   0.075966 0.674914 0.784564 -0.461143
O5    O     O_R   0.022100 0.661880 0.482810 -0.504821
O6    O     O_R   0.839850 0.379180 0.495160 -0.511195
O7    O     O_R   0.160150 0.620820 0.504840 -0.509588
O8    O     O_R   0.069030 0.479490 0.580750 -0.504413
O9    O     O_R   0.930970 0.520510 0.419250 -0.503770
O10   O     O_R   0.930970 0.520550 0.558720 -0.502457
O11   O     O_R   0.069030 0.479450 0.441280 -0.502423
O12   O     O_2   0.905736 0.323048 0.805611 -0.474065

loop_
_geom_bond_atom_site_label_1
_geom_bond_atom_site_label_2
_ccdc_geom_bond_type
C21   C26   A    
C63   C65   A    
C34   C56   A    
C23   C45   A    
C23   C82   A    
C27   C29   A    
C70   N9    S    
H53   N4    S    
C35   C36   A    
C75   H33   S    
C55   H9    S    
C66   H1    S    
C25   H21   S    
C73   H26   S    
C47   C49   A    
C46   H5    S    
C3    C64   A    
C16   O8    A    
C44   H6    S    
C68   H12   S    
C80   H51   S    
C40   N1    A    
C67   N10   S    
C76   H37   S    
C24   C26   A    
C5    C11   A    
C63   H14   S    
C61   O3    S    
C77   N12   S    
C74   H28   S    
C4    C65   A    
C11   C14   A    
C78   N11   S    
C57   C59   A    
C66   C69   A    
C41   N5    A    
C20   C25   A    
C28   H23   S    
C74   H30   S    
C29   C33   A    
C56   C78   A    
C81   H55   S    
C42   H7    S    
C32   C39   A    
C69   C71   A    
C36   H58   S    
C62   C64   A    
Cu2   O9    S    
C26   H20   S    
C12   O5    A    
C60   C82   A    
C3    C16   S    
C80   N3    S    
C16   O10   A    
C49   C51   A    
C22   C25   A    
C45   C67   A    
C50   C52   A    
H49   N3    S    
C15   C82   A    
C77   H43   S    
C2    C61   A    
C42   C51   A    
Cu2   O6    S    
C2    C34   A    
C48   C50   A    
C46   N7    A    
C76   H39   S    
C81   H54   S    
C42   C44   A    
C2    C14   A    
C79   N2    S    
Cu1   N7    S    
C40   C45   A    
C37   C39   A    
Cu1   O8    S    
H22   N8    S    
C22   C31   A    
C75   H35   S    
C18   N3    S    
C17   O11   A    
H31   N10   S    
C4    C68   A    
C53   C57   A    
C73   H24   S    
C18   C67   A    
C53   C54   A    
C74   H29   S    
Cu1   O11   S    
C12   C21   S    
H36   N11   S    
C44   N6    A    
C62   H15   S    
C74   N9    S    
C11   H16   S    
C19   C78   A    
C24   C32   A    
C41   C56   A    
C5    C9    A    
C52   C59   A    
C15   N2    S    
C80   H50   S    
Cu1   Cu2   S    
Cu1   O1    S    
C47   N6    A    
C81   N4    S    
C79   H47   S    
C8    C18   A    
C48   H3    S    
C1    O1    A    
C51   C58   A    
C50   C54   A    
C39   H19   S    
H27   N9    S    
C4    C17   S    
C30   C35   A    
C43   H8    S    
C68   C70   A    
C64   H13   S    
C71   N1    S    
C21   C28   A    
C1    O6    A    
C7    C19   A    
C57   H10   S    
C13   C15   A    
C73   N8    S    
C9    C34   A    
C55   C58   A    
C3    C66   A    
C60   N1    A    
C13   H17   S    
C36   C38   A    
C24   H56   S    
C77   H41   S    
C27   H34   S    
C7    C9    A    
Cu1   O7    S    
C54   C55   A    
C1    C20   S    
C37   H59   S    
C14   N12   S    
C69   N8    S    
C8    C10   A    
C60   O4    S    
C6    C10   A    
C5    C8    A    
C73   H25   S    
C6    C7    A    
C20   C27   A    
C10   C23   A    
C76   N11   S    
C19   N4    S    
C80   H52   S    
C31   C38   A    
C76   H38   S    
C47   H4    S    
H40   N12   S    
C59   H2    S    
C28   C30   A    
C38   H18   S    
C17   O9    A    
C12   O7    A    
C30   C32   A    
C79   H46   S    
C75   N10   S    
H44   N2    S    
C49   C53   A    
C79   H48   S    
C81   H57   S    
C33   C35   A    
C62   C71   A    
C43   C52   A    
C43   C46   A    
C33   C37   A    
C40   O12   S    
Cu2   O10   S    
C77   H42   S    
C41   O2    S    
C58   H60   S    
C65   H11   S    
C63   C72   A    
C29   C31   A    
C72   N5    S    
C48   N7    A    
C22   H45   S    
C70   C72   A    
C75   H32   S    
C61   N5    A    
Cu2   O5    S    
C6    C13   A    
Cu2   N6    S    
