data_mof_unit_15396.cif
_audit_creation_date              2013-03-05T16:26:13-0500
_audit_creation_method            fapswitch 2.2
_symmetry_space_group_name_H-M    P1
_symmetry_Int_Tables_number       1
_space_group_crystal_system       triclinic
_cell_length_a                    18.248525
_cell_length_b                    18.310268
_cell_length_c                    18.392077
_cell_angle_alpha                 120.226021
_cell_angle_beta                  89.986591
_cell_angle_gamma                 60.348525
_cell_volume                      4352.90347552

loop_
_atom_site_label
_atom_site_type_symbol
_atom_site_description
_atom_site_fract_x
_atom_site_fract_y
_atom_site_fract_z
_atom_type_partial_charge
Zn1   Zn    Zn3+2 0.043370 0.413240 0.543370 0.926059
Zn2   Zn    Zn3+2 0.869870 0.586760 0.543380 1.099605
Zn3   Zn    Zn3+2 0.043360 0.413260 0.369880 0.961526
Zn4   Zn    Zn3+2 0.043390 0.586740 0.543370 1.021742
O1    O     O_3   0.000000 0.500000 0.500000 -0.503740
O2    O     O_R   0.944950 0.731580 0.615800 -0.628556
O3    O     O_R   0.115780 0.268410 0.444920 -0.656782
O4    O     O_R   0.823470 0.560720 0.615800 -0.591223
O5    O     O_R   0.115800 0.439290 0.323490 -0.650157
O6    O     O_R   0.823460 0.560740 0.444930 -0.599661
O7    O     O_R   0.115830 0.560690 0.615790 -0.653494
O8    O     O_R   0.944900 0.439310 0.323490 -0.654123
O9    O     O_R   0.115810 0.439260 0.615790 -0.659648
O10   O     O_R   0.944910 0.439280 0.615800 -0.674850
O11   O     O_R   0.115820 0.560710 0.444920 -0.607502
O12   O     O_R   0.823500 0.731590 0.615800 -0.577161
O13   O     O_R   0.115770 0.268420 0.323490 -0.646516
C1    C     C_R   0.859724 0.780177 0.638059 0.871943
C2    C     C_R   0.138689 0.219780 0.360063 0.822821
C3    C     C_R   0.860121 0.500538 0.640375 0.837255
C4    C     C_R   0.139476 0.500800 0.360229 0.829582
C5    C     C_R   0.859866 0.500831 0.360092 0.817532
C6    C     C_R   0.135846 0.505631 0.644865 0.798694
C7    C     C_R   0.222002 0.622030 0.689536 -0.226231
C8    C     C_R   0.284373 0.641986 0.677856 0.278150
C9    C     C_R   0.367494 0.589446 0.686065 -0.274327
C10   C     C_R   0.385495 0.525235 0.713595 0.292515
C11   C     C_R   0.316615 0.517201 0.737008 -0.042108
C12   C     C_R   0.240960 0.551298 0.710600 -0.017878
C13   C     C_R   0.321143 0.476182 0.785689 -0.094177
C14   C     C_R   0.269083 0.437224 0.781015 0.008601
C15   C     C_R   0.195174 0.468221 0.752396 0.042138
C16   C     C_R   0.186431 0.515343 0.708332 -0.119532
C17   C     C_R   0.290377 0.364413 0.799954 -0.240020
C18   C     C_R   0.231329 0.338463 0.806970 0.301960
C19   C     C_R   0.146386 0.390976 0.799765 0.080078
C20   C     C_R   0.130283 0.453414 0.770610 -0.229515
H1    H     H_    0.157088 0.667419 0.687176 0.223205
H2    H     H_    0.418866 0.597704 0.670169 0.234292
H3    H     H_    0.355904 0.320407 0.802305 0.227778
H4    H     H_    0.065612 0.492596 0.764037 0.169602
C21   C     C_R   0.237638 0.052404 0.339829 0.026859
C22   C     C_R   0.186382 0.107763 0.305652 -0.096099
C23   C     C_R   0.180105 0.051661 0.219636 0.131891
C24   C     C_R   0.237557 0.943291 0.165819 -0.246866
H5    H     H_    0.236179 0.899536 0.099213 0.170714
C25   C     C_R   0.298053 0.890885 0.196511 -0.115476
C26   C     C_R   0.293013 0.946202 0.284720 0.031168
C27   C     C_3   0.366426 0.937810 0.323143 0.084931
C28   C     C_3   0.303295 0.056974 0.390560 0.158765
H6    H     H_    0.427328 0.906056 0.273629 0.103109
C29   C     C_R   0.233734 0.553342 0.339313 0.138453
C30   C     C_R   0.187171 0.509476 0.305533 -0.104523
C31   C     C_R   0.181698 0.480942 0.220301 -0.241191
H7    H     H_    0.139007 0.455250 0.196554 0.170870
C32   C     C_R   0.232782 0.482635 0.164565 0.134395
C33   C     C_R   0.292351 0.511131 0.195724 -0.132670
C34   C     C_R   0.284983 0.554659 0.285693 0.101984
C35   C     C_3   0.355652 0.534986 0.328908 -0.102315
C36   C     C_3   0.298983 0.532209 0.387172 -0.457061
H8    H     H_    0.419973 0.458565 0.282003 0.145033
H9    H     H_    0.330573 0.454343 0.372483 0.170999
H10   H     H_    0.270710 0.595504 0.459392 0.254420
C37   C     C_R   0.837332 0.946814 0.742998 -0.100464
C38   C     C_R   0.802066 0.892140 0.694400 -0.127066
C39   C     C_R   0.708572 0.947620 0.708929 0.312643
C40   C     C_R   0.655576 0.055107 0.767588 -0.225066
H11   H     H_    0.585083 0.096841 0.775555 0.215048
C41   C     C_R   0.694281 0.108600 0.808236 -0.131261
C42   C     C_R   0.784485 0.053042 0.798946 0.050113
C43   C     C_3   0.857651 0.061206 0.775687 0.075954
C44   C     C_3   0.916430 0.943492 0.713813 0.093099
H12   H     H_    0.842847 0.100962 0.742227 0.150745
H13   H     H_    0.973371 0.905695 0.733844 0.169512
C45   C     C_R   0.712106 0.562431 0.340315 0.156373
C46   C     C_R   0.803935 0.509876 0.304933 -0.116970
C47   C     C_R   0.840266 0.473408 0.217109 -0.246975
H14   H     H_    0.910199 0.441272 0.191467 0.174852
C48   C     C_R   0.787666 0.475319 0.161216 0.140807
C49   C     C_R   0.697158 0.511871 0.194991 -0.107558
C50   C     C_R   0.660028 0.563017 0.286463 0.154932
C51   C     C_3   0.601287 0.556781 0.336363 -0.497022
C52   C     C_3   0.659441 0.555252 0.395413 -0.376912
H15   H     H_    0.532396 0.628481 0.372483 0.246641
H16   H     H_    0.605950 0.483737 0.295282 0.193260
H17   H     H_    0.623460 0.625453 0.465187 0.279185
H18   H     H_    0.698731 0.480938 0.388242 0.200398
C53   C     C_R   0.714343 0.577589 0.740105 -0.018584
C54   C     C_R   0.805384 0.501275 0.697573 -0.046846
C55   C     C_R   0.843301 0.423755 0.712614 -0.208474
H19   H     H_    0.914135 0.362743 0.682076 0.173280
C56   C     C_R   0.789266 0.423467 0.766558 -0.202818
H20   H     H_    0.820033 0.362386 0.776099 0.185050
C57   C     C_R   0.696469 0.500608 0.806212 -0.027121
C58   C     C_R   0.662124 0.577080 0.791814 0.076045
C59   C     C_3   0.577655 0.672669 0.812083 -0.205257
C60   C     C_3   0.637800 0.672905 0.751916 0.477677
H21   H     H_    0.530761 0.655369 0.781632 0.216111
Zn5   Zn    Zn3+2 0.456670 0.586670 0.956580 0.996485
Zn6   Zn    Zn3+2 0.456680 0.586650 0.130080 1.000986
Zn7   Zn    Zn3+2 0.630180 0.413150 0.956570 1.010462
Zn8   Zn    Zn3+2 0.456650 0.413170 0.956580 1.004110
O14   O     O_3   0.500040 0.499910 0.999960 -0.501491
O15   O     O_R   0.384230 0.439200 0.055040 -0.642101
O16   O     O_R   0.555130 0.560630 0.884160 -0.613076
O17   O     O_R   0.384270 0.731490 0.176470 -0.590235
O18   O     O_R   0.676550 0.268320 0.884150 -0.617508
O19   O     O_R   0.555150 0.560600 0.176460 -0.629148
O20   O     O_R   0.384220 0.439220 0.884170 -0.655857
O21   O     O_R   0.676580 0.439170 0.055020 -0.632848
O22   O     O_R   0.384230 0.560650 0.884170 -0.628440
O23   O     O_R   0.384260 0.731500 0.055040 -0.666734
O24   O     O_R   0.555100 0.268330 0.884160 -0.638070
O25   O     O_R   0.384250 0.560620 0.176470 -0.639270
O26   O     O_R   0.676570 0.439190 0.884150 -0.658716
C61   C     C_R   0.357707 0.501698 0.139763 0.798595
C62   C     C_R   0.640047 0.500124 0.860483 0.849698
C63   C     C_R   0.359928 0.779717 0.139969 0.806193
C64   C     C_R   0.639868 0.219904 0.860202 0.867681
C65   C     C_R   0.640594 0.501937 0.139684 0.805437
C66   C     C_R   0.365084 0.493388 0.854566 0.864544
C67   C     C_3   0.071819 0.383189 0.822680 -0.370034
C68   C     C_3   0.040976 0.428623 0.921655 -0.809161
H22   H     H_    0.095760 0.385018 0.939928 0.279990
H23   H     H_    0.017858 0.510627 0.963053 0.250128
H24   H     H_    0.984640 0.424643 0.936558 0.249669
H25   H     H_    0.012791 0.426153 0.807620 0.195634
H26   H     H_    0.092561 0.302290 0.781144 0.250787
N1    N     N_R   0.386891 0.879211 0.361586 0.213098
O27   O     O_R   0.454913 0.858216 0.389981 -0.373913
O28   O     O_R   0.341051 0.843628 0.364085 -0.390839
C69   C     C_3   0.270601 0.088979 0.487005 -0.351048
C70   C     C_3   0.200315 0.203084 0.558601 -0.777442
H27   H     H_    0.193366 0.215851 0.624633 0.246637
H28   H     H_    0.220462 0.251518 0.559940 0.272987
H29   H     H_    0.134182 0.226353 0.549810 0.285475
H30   H     H_    0.242480 0.046953 0.486334 0.244968
H31   H     H_    0.329570 0.065498 0.509547 0.250727
C71   C     C_3   0.341224 0.115535 0.387072 -0.379212
C72   C     C_3   0.387289 0.078003 0.293869 -0.903086
H32   H     H_    0.455455 0.006187 0.263466 0.259961
H33   H     H_    0.348061 0.065009 0.248759 0.260996
H34   H     H_    0.394670 0.137295 0.299844 0.261711
H35   H     H_    0.286076 0.198266 0.422624 0.218832
H36   H     H_    0.389961 0.111012 0.423708 0.230193
C73   C     C_3   0.221973 0.452417 0.073868 -0.324153
C74   C     C_3   0.178360 0.543707 0.067145 -0.832397
H37   H     H_    0.111680 0.606954 0.119673 0.258160
H38   H     H_    0.220218 0.573260 0.074557 0.250478
H39   H     H_    0.169378 0.519111 0.000953 0.250809
H40   H     H_    0.286881 0.387171 0.019740 0.271316
H41   H     H_    0.178740 0.423835 0.061219 0.199933
C75   C     C_3   0.368390 0.623191 0.379985 -0.370698
C76   C     C_3   0.282347 0.732607 0.431631 -0.580838
H42   H     H_    0.249558 0.747261 0.385155 0.251398
H43   H     H_    0.234846 0.745363 0.481433 0.278814
H44   H     H_    0.299141 0.789250 0.467860 0.272319
H45   H     H_    0.403447 0.613596 0.427147 0.237252
H46   H     H_    0.412712 0.615122 0.331128 0.236566
N2    N     N_R   0.667406 0.898203 0.659058 0.240087
O29   O     O_R   0.696334 0.843099 0.572310 -0.347367
O30   O     O_R   0.590666 0.925617 0.699426 -0.267069
N3    N     N_R   0.888603 0.101454 0.850369 0.213972
O31   O     O_R   0.961596 0.095735 0.835695 -0.351924
O32   O     O_R   0.840279 0.151154 0.932145 -0.379061
N4    N     N_R   0.942415 0.903030 0.619370 0.228107
O33   O     O_R   0.025665 0.831193 0.569003 -0.329380
O34   O     O_R   0.883354 0.937366 0.584726 -0.383818
C77   C     C_3   0.831523 0.436756 0.067753 -0.325920
C78   C     C_3   0.789980 0.523553 0.054991 -0.840647
H47   H     H_    0.822046 0.491906 0.985427 0.244722
H48   H     H_    0.717189 0.560496 0.067468 0.250237
H49   H     H_    0.800828 0.583179 0.101265 0.258321
H50   H     H_    0.903891 0.404646 0.054658 0.195109
H51   H     H_    0.829497 0.371571 0.016300 0.263870
N5    N     N_R   0.264472 0.712561 0.654565 0.213050
O35   O     O_R   0.323847 0.727718 0.640040 -0.358085
O36   O     O_R   0.186790 0.762471 0.647733 -0.376139
C79   C     C_3   0.530009 0.763915 0.912358 -0.355070
C80   C     C_3   0.590507 0.769016 0.969954 -0.792476
H52   H     H_    0.621461 0.702255 0.974177 0.228674
H53   H     H_    0.643854 0.770356 0.943255 0.295064
H54   H     H_    0.549672 0.840400 0.038649 0.241159
H55   H     H_    0.490413 0.837600 0.918819 0.253070
H56   H     H_    0.480902 0.758293 0.940897 0.231855
N6    N     N_R   0.619725 0.652031 0.668155 0.195770
O37   O     O_R   0.614786 0.706441 0.640158 -0.283369
O38   O     O_R   0.613334 0.575221 0.618374 -0.400680
N7    N     N_R   0.644968 0.760843 0.797730 0.215401
O39   O     O_R   0.577096 0.851866 0.823900 -0.308410
O40   O     O_R   0.721159 0.747230 0.804029 -0.422524
N8    N     N_R   0.476071 0.460071 0.707444 0.218081
O41   O     O_R   0.507012 0.368328 0.686232 -0.406274
O42   O     O_R   0.532061 0.484478 0.707791 -0.390167
N9    N     N_R   0.259292 0.259001 0.820745 0.207354
O43   O     O_R   0.236996 0.194630 0.782119 -0.358554
O44   O     O_R   0.319335 0.239526 0.859120 -0.390118
C81   C     C_3   0.114819 0.102199 0.181928 -0.363291
C82   C     C_3   0.017887 0.157206 0.234657 -0.794879
H57   H     H_    0.998907 0.220827 0.304815 0.242360
H58   H     H_    0.972702 0.190414 0.203487 0.252790
H59   H     H_    0.008179 0.101590 0.233969 0.257461
H60   H     H_    0.124744 0.155414 0.178283 0.238897
H61   H     H_    0.127038 0.043439 0.111783 0.204503

loop_
_geom_bond_atom_site_label_1
_geom_bond_atom_site_label_2
_geom_bond_distance
_ccdc_geom_bond_type
Zn7   O18   1.935323 S    
C52   H18   1.112183 S    
C49   C65   1.460553 S    
C23   C81   1.520653 S    
C12   C16   1.430330 A    
O22   C66   1.298472 A    
O26   C62   1.277430 A    
C77   C78   1.529427 S    
O19   C65   1.285818 A    
Zn5   O14   1.954220 S    
C74   H37   1.110780 S    
C72   H34   1.110597 S    
C5    C46   1.449406 S    
C45   C46   1.389614 A    
O5    C4    1.275593 A    
C39   N2    1.435847 S    
C50   C51   1.493499 S    
C35   C75   1.545618 S    
C68   H22   1.109234 S    
C30   C31   1.402646 A    
O6    C5    1.278465 A    
C1    C38   1.452594 S    
C9    C10   1.401400 A    
O4    C3    1.279952 A    
C43   N3    1.463505 S    
C36   H10   1.109871 S    
Zn1   O1    1.954071 S    
C11   C12   1.408718 A    
N3    O32   1.301994 A    
C72   H33   1.107895 S    
N1    O27   1.300632 A    
C41   C42   1.393441 A    
C13   C14   1.423937 A    
C57   C62   1.440140 S    
C9    H2    1.082492 S    
C68   H23   1.110986 S    
C78   H47   1.110329 S    
C69   H31   1.112040 S    
O8    C5    1.279251 A    
C67   H25   1.112200 S    
C32   C33   1.429245 A    
O9    C6    1.296908 A    
C36   H9    1.112188 S    
C17   C18   1.404207 A    
O7    C6    1.270529 A    
C75   H45   1.111312 S    
N7    O40   1.301894 A    
C7    C12   1.417409 A    
Zn3   O8    1.935532 S    
C29   C36   1.493273 S    
O24   C64   1.273746 A    
C25   C63   1.447005 S    
C71   H36   1.111523 S    
C58   C59   1.500593 S    
C80   H53   1.106784 S    
C69   C70   1.523809 S    
C27   H6    1.108866 S    
C59   H21   1.111815 S    
C70   H29   1.106712 S    
C7    H1    1.076141 S    
C77   H50   1.112073 S    
N5    O35   1.301691 A    
C81   C82   1.528672 S    
C37   C42   1.378605 A    
Zn2   O12   1.935323 S    
C76   H43   1.108538 S    
C53   C60   1.500082 S    
C80   H54   1.110478 S    
C18   N9    1.441568 S    
N5    O36   1.301671 A    
C39   C40   1.396825 A    
C53   C58   1.352740 A    
C82   H57   1.108671 S    
Zn7   O14   1.946867 S    
O15   C61   1.276002 A    
O17   C63   1.279323 A    
N4    O34   1.302319 A    
O16   C62   1.278124 A    
Zn8   O14   1.937723 S    
O2    C1    1.281336 A    
O18   C64   1.273634 A    
C8    C9    1.396982 A    
C2    C22   1.460329 S    
C33   C61   1.458831 S    
C24   C25   1.398437 A    
C72   H32   1.109092 S    
C60   N6    1.469790 S    
Zn5   O16   1.934317 S    
C31   C32   1.407469 A    
Zn6   O19   1.935573 S    
C35   H8    1.113105 S    
C40   H11   1.083863 S    
O20   C66   1.266195 A    
O10   C3    1.276134 A    
C74   H39   1.110351 S    
Zn6   O25   1.932445 S    
C46   C47   1.403598 A    
C76   H44   1.110119 S    
C44   H13   1.113445 S    
O21   C65   1.275838 A    
C43   H12   1.112714 S    
C28   C71   1.560936 S    
C49   C50   1.397063 A    
C68   H24   1.109713 S    
C6    C16   1.483327 S    
Zn7   O21   1.937494 S    
C47   H14   1.083773 S    
C29   C34   1.376069 A    
C27   N1    1.469027 S    
C41   C64   1.445352 S    
Zn6   O14   1.950561 S    
C73   H40   1.105967 S    
C40   C41   1.401656 A    
C18   C19   1.413676 A    
N2    O30   1.301166 A    
C75   H46   1.109605 S    
C19   C67   1.517160 S    
C22   C23   1.432266 A    
C32   C73   1.518719 S    
Zn3   O5    1.932591 S    
C82   H59   1.110895 S    
C71   H35   1.108634 S    
C55   C56   1.402389 A    
C25   C26   1.385533 A    
C13   C66   1.481750 S    
O11   C4    1.275433 A    
Zn5   O22   1.932157 S    
C59   C60   1.561447 S    
C56   C57   1.410749 A    
C77   H51   1.108130 S    
C47   C48   1.408120 A    
C21   C26   1.378649 A    
C15   C20   1.413118 A    
C7    C8    1.401974 A    
Zn4   O7    1.940539 S    
Zn8   O15   1.938979 S    
C76   H42   1.110411 S    
C42   C43   1.499875 S    
C79   C80   1.533828 S    
C28   C69   1.566130 S    
C21   C28   1.527826 S    
C73   H41   1.111980 S    
Zn4   O2    1.939853 S    
C26   C27   1.491256 S    
C51   C52   1.519286 S    
O3    C2    1.278909 A    
C81   H61   1.112055 S    
N4    O33   1.300610 A    
Zn7   O26   1.938128 S    
C17   H3    1.078305 S    
C48   C49   1.431405 A    
C34   C35   1.501224 S    
Zn2   O1    1.946721 S    
Zn1   O9    1.932262 S    
C21   C22   1.414627 A    
C55   H19   1.083251 S    
Zn2   O6    1.937594 S    
C10   C11   1.426004 A    
C14   C17   1.415879 A    
C23   C24   1.407103 A    
C82   H58   1.110579 S    
C73   C74   1.527939 S    
C79   H55   1.109281 S    
N7    O39   1.301161 A    
C31   H7    1.083920 S    
C19   C20   1.402068 A    
C74   H38   1.108894 S    
Zn1   O3    1.937609 S    
C44   N4    1.465355 S    
C14   C15   1.400709 A    
Zn2   O4    1.938230 S    
Zn4   O1    1.937724 S    
Zn3   O1    1.950559 S    
O25   C61   1.279942 A    
C71   C72   1.535921 S    
C67   H26   1.107620 S    
C67   C68   1.527772 S    
C79   H56   1.111113 S    
C45   C50   1.373069 A    
Zn6   O17   1.939409 S    
C51   H16   1.112141 S    
C3    C54   1.440987 S    
C51   H15   1.110765 S    
C15   C16   1.412293 A    
C48   C77   1.520577 S    
Zn4   O11   1.938932 S    
C11   C13   1.410059 A    
C54   C55   1.411989 A    
C43   C44   1.527611 S    
C38   C39   1.423313 A    
Zn8   O24   1.939901 S    
N8    O41   1.301711 A    
C4    C30   1.446389 S    
C8    N5    1.441659 S    
C45   C52   1.492151 S    
C33   C34   1.399086 A    
C70   H27   1.109231 S    
C78   H48   1.108696 S    
Zn5   O23   1.937654 S    
C37   C38   1.397184 A    
C60   N7    1.470438 S    
C56   H20   1.083128 S    
O13   C2    1.286591 A    
Zn3   O13   1.939408 S    
C37   C44   1.501718 S    
C59   C79   1.551864 S    
C20   H4    1.082472 S    
C57   C58   1.388754 A    
N2    O29   1.301556 A    
N6    O37   1.301348 A    
N3    O31   1.300548 A    
N9    O43   1.300385 A    
C24   H5    1.083968 S    
C35   C36   1.525336 S    
C52   H17   1.110819 S    
C53   C54   1.387973 A    
O12   C1    1.269381 A    
C27   C28   1.553622 S    
C10   N8    1.442614 S    
C81   H60   1.107736 S    
C70   H28   1.105838 S    
O23   C63   1.280568 A    
Zn8   O20   1.940289 S    
Zn1   O10   1.934418 S    
C69   H30   1.112112 S    
N9    O44   1.301173 A    
C75   C76   1.533687 S    
N6    O38   1.302202 A    
C80   H52   1.109873 S    
C29   C30   1.387877 A    
N1    O28   1.302214 A    
C78   H49   1.110811 S    
N8    O42   1.300999 A    
