data_mof_unit_55296.cif
_audit_creation_date              2013-03-05T16:13:18-0500
_audit_creation_method            fapswitch 2.2
_symmetry_space_group_name_H-M    P1
_symmetry_Int_Tables_number       1
_space_group_crystal_system       triclinic
_cell_length_a                    24.694612
_cell_length_b                    7.197548
_cell_length_c                    22.834656
_cell_angle_alpha                 89.956164
_cell_angle_beta                  96.313666
_cell_angle_gamma                 89.977604
_cell_volume                      4034.02838568

loop_
_atom_site_label
_atom_site_type_symbol
_atom_site_description
_atom_site_fract_x
_atom_site_fract_y
_atom_site_fract_z
_atom_type_partial_charge
O1    O     O_R   0.801910 0.607900 0.699140 -0.530743
O2    O     O_R   0.198090 0.392100 0.300860 -0.536900
O3    O     O_R   0.698090 0.107900 0.800860 -0.546092
O4    O     O_R   0.301910 0.892100 0.199140 -0.536594
O5    O     O_R   0.692320 0.276320 0.686350 -0.563640
O6    O     O_R   0.307680 0.723680 0.313650 -0.583016
O7    O     O_R   0.807680 0.776320 0.813650 -0.573107
O8    O     O_R   0.192320 0.223680 0.186350 -0.583301
C1    C     C_R   0.674003 0.446675 0.671165 0.951403
C2    C     C_R   0.326071 0.553240 0.328672 0.949885
C3    C     C_R   0.825765 0.946665 0.829109 0.945705
C4    C     C_R   0.173887 0.053397 0.171369 0.949912
O9    O     O_R   0.801140 0.278070 0.692060 -0.604311
O10   O     O_R   0.198860 0.721930 0.307940 -0.596409
O11   O     O_R   0.698860 0.778070 0.807940 -0.615635
O12   O     O_R   0.301140 0.221930 0.192060 -0.596609
O13   O     O_R   0.807690 0.109570 0.806600 -0.588040
O14   O     O_R   0.192310 0.890430 0.193400 -0.588209
O15   O     O_R   0.692310 0.609570 0.693400 -0.593174
O16   O     O_R   0.307690 0.390430 0.306600 -0.588115
C5    C     C_R   0.818767 0.447223 0.678802 0.939987
C6    C     C_R   0.182249 0.552450 0.322075 0.941847
C7    C     C_R   0.680961 0.946811 0.820659 0.961907
C8    C     C_R   0.317714 0.052488 0.177826 0.941441
O17   O     O_3   0.752020 0.441970 0.787570 -0.286951
O18   O     O_3   0.247980 0.558030 0.212430 -0.273040
O19   O     O_3   0.747980 0.941970 0.712430 -0.265971
O20   O     O_3   0.252020 0.058030 0.287570 -0.272931
V1    V     V_3+5 0.749620 0.166420 0.743030 1.206922
V2    V     V_3+5 0.250380 0.833580 0.256970 1.198629
V3    V     V_3+5 0.750380 0.666420 0.756970 1.194289
V4    V     V_3+5 0.249620 0.333580 0.243030 1.198424
C9    C     C_R   0.433757 0.177421 0.087448 -0.131850
C10   C     C_R   0.598685 0.828418 0.947487 -0.142153
C11   C     C_R   0.065265 0.676503 0.410940 -0.131007
C12   C     C_R   0.909288 0.306924 0.560743 -0.147542
H1    H     H_    0.459484 0.296432 0.081642 0.129692
H2    H     H_    0.599326 0.723289 0.981527 0.129802
H3    H     H_    0.039336 0.795287 0.416401 0.130141
H4    H     H_    0.916415 0.183553 0.535537 0.126215
C13   C     C_R   0.392823 0.191528 0.125311 -0.206226
C14   C     C_R   0.637309 0.821316 0.906896 -0.245284
C15   C     C_R   0.106666 0.691138 0.373720 -0.205847
C16   C     C_R   0.870744 0.301475 0.601487 -0.230690
H5    H     H_    0.388466 0.321106 0.148420 0.186059
H6    H     H_    0.667158 0.710449 0.910821 0.164485
H7    H     H_    0.111174 0.820845 0.350678 0.186250
H8    H     H_    0.848577 0.173391 0.605955 0.187610
C17   C     C_R   0.358836 0.039197 0.134336 -0.286237
C18   C     C_R   0.638211 0.956731 0.862372 -0.249449
C19   C     C_R   0.140869 0.539006 0.365170 -0.287243
C20   C     C_R   0.860770 0.458276 0.635870 -0.263336
C21   C     C_R   0.365410 0.873301 0.102114 0.571067
C22   C     C_R   0.598371 0.100316 0.858174 0.576488
C23   C     C_R   0.134072 0.372851 0.397237 0.570803
C24   C     C_R   0.891598 0.622813 0.629008 0.586776
C25   C     C_R   0.407793 0.859466 0.065639 -0.324082
C26   C     C_R   0.559048 0.102556 0.899390 -0.354031
C27   C     C_R   0.091259 0.358503 0.433069 -0.323479
C28   C     C_R   0.928383 0.627441 0.585446 -0.351649
H9    H     H_    0.414049 0.729991 0.043146 0.132498
H10   H     H_    0.527090 0.205862 0.897119 0.114528
H11   H     H_    0.084861 0.228858 0.455464 0.132454
H12   H     H_    0.950218 0.753453 0.577225 0.117469
C29   C     C_R   0.441891 0.010559 0.058034 0.126742
C30   C     C_R   0.559636 0.969852 0.944113 0.148436
C31   C     C_R   0.056920 0.509337 0.440134 0.126484
C32   C     C_R   0.938049 0.470370 0.552413 0.150226
C33   C     C_1   0.484418 0.994019 0.019123 -0.030464
C34   C     C_1   0.519170 0.980371 0.985672 -0.036946
C35   C     C_1   0.013949 0.492456 0.478356 -0.030605
C36   C     C_1   0.978836 0.479218 0.511316 -0.035517
C37   C     C_3   0.966857 0.866271 0.015437 0.536356
C38   C     C_3   0.032884 0.131625 0.985468 0.527519
C39   C     C_3   0.533155 0.367310 0.484973 0.537780
C40   C     C_3   0.466119 0.628986 0.515351 0.525506
C41   C     C_3   0.981647 0.043651 0.050908 0.279133
C42   C     C_3   0.018136 0.954167 0.950037 0.285363
C43   C     C_3   0.517856 0.545248 0.449893 0.278615
C44   C     C_3   0.481395 0.450933 0.550395 0.283052
H13   H     H_    0.949452 0.297034 0.989705 0.200239
H14   H     H_    0.050325 0.700962 0.011217 0.198456
H15   H     H_    0.548996 0.797970 0.511693 0.200413
H16   H     H_    0.450245 0.198407 0.488606 0.197454
C45   C     C_1   0.128152 0.043790 0.125800 -0.277777
C46   C     C_1   0.871397 0.955962 0.874985 -0.293979
C47   C     C_1   0.371670 0.543181 0.374400 -0.277457
C48   C     C_1   0.628116 0.455987 0.625638 -0.271940
C49   C     C_3   0.027732 0.834377 0.006498 -0.563025
C50   C     C_3   0.972017 0.163579 0.994449 -0.561826
C51   C     C_3   0.472348 0.332644 0.493632 -0.561130
C52   C     C_3   0.526915 0.663710 0.506636 -0.560620
C53   C     C_3   0.042262 0.015145 0.042422 -0.097400
C54   C     C_3   0.957455 0.982750 0.958438 -0.097840
C55   C     C_3   0.457300 0.514026 0.458101 -0.097065
C56   C     C_3   0.542002 0.482292 0.542248 -0.097905
C57   C     C_1   0.089541 0.032661 0.088115 0.203933
C58   C     C_1   0.910077 0.966207 0.912693 0.209625
C59   C     C_1   0.410150 0.531689 0.412242 0.204179
C60   C     C_1   0.589359 0.466083 0.588024 0.204465
O21   O     O_3   0.331888 0.721864 0.108377 -0.616246
C61   C     C_3   0.298688 0.690760 0.054807 0.203395
H17   H     H_    0.323014 0.629373 0.021448 0.102417
H18   H     H_    0.279033 0.821812 0.037039 0.086227
C62   C     C_3   0.253723 0.554238 0.065263 -0.760030
H19   H     H_    0.226780 0.615465 0.095999 0.255313
H20   H     H_    0.228865 0.522846 0.022899 0.198933
H21   H     H_    0.271648 0.422878 0.084203 0.247719
O22   O     O_3   0.597379 0.224387 0.810881 -0.627969
C63   C     C_3   0.569140 0.391443 0.819497 0.251225
H22   H     H_    0.582145 0.452244 0.863689 0.089371
H23   H     H_    0.524406 0.366969 0.813659 0.125474
C64   C     C_3   0.581644 0.532365 0.773472 -0.801313
H24   H     H_    0.566395 0.482185 0.728835 0.271845
H25   H     H_    0.561953 0.667315 0.781550 0.204362
H26   H     H_    0.626184 0.552165 0.775917 0.262754
O23   O     O_3   0.167739 0.221511 0.391378 -0.615968
C65   C     C_3   0.200982 0.192065 0.445033 0.204554
H27   H     H_    0.176620 0.133423 0.478831 0.101366
H28   H     H_    0.220958 0.323393 0.461981 0.085648
C66   C     C_3   0.245590 0.053354 0.435204 -0.760741
H29   H     H_    0.272623 0.112010 0.404102 0.255717
H30   H     H_    0.270437 0.023165 0.477689 0.198895
H31   H     H_    0.227320 0.921738 0.416968 0.246991
O24   O     O_3   0.883180 0.777832 0.663500 -0.623134
C67   C     C_3   0.931850 0.878059 0.679789 0.200011
H32   H     H_    0.939744 0.975923 0.644053 0.105464
H33   H     H_    0.967599 0.784256 0.690229 0.114276
C68   C     C_3   0.925575 0.991769 0.734507 -0.761283
H34   H     H_    0.919352 0.896723 0.771342 0.255904
H35   H     H_    0.962895 0.075444 0.746613 0.221544
H36   H     H_    0.890203 0.086768 0.726422 0.243182
N1    N     N_R   0.960076 0.087876 0.106097 0.232247
O25   O     O_R   0.907814 0.081927 0.108984 -0.387726
O26   O     O_R   0.992796 0.123348 0.153335 -0.426077
N2    N     N_R   0.040101 0.908742 0.895195 0.232516
O27   O     O_R   0.092324 0.918047 0.892314 -0.399734
O28   O     O_R   0.007889 0.860126 0.848910 -0.460151
N3    N     N_R   0.539464 0.592156 0.394919 0.232393
O29   O     O_R   0.591757 0.587652 0.392164 -0.387490
O30   O     O_R   0.506776 0.628789 0.347727 -0.426435
N4    N     N_R   0.459560 0.402430 0.605081 0.232053
O31   O     O_R   0.407371 0.411804 0.608189 -0.399731
O32   O     O_R   0.491773 0.347876 0.650693 -0.446587
O33   O     O_3   0.929098 0.731977 0.030197 -0.613805
C69   C     C_3   0.951423 0.629903 0.079855 0.226663
H37   H     H_    0.972970 0.719651 0.114683 0.127429
H38   H     H_    0.980497 0.524279 0.066425 0.112830
C70   C     C_3   0.905537 0.531835 0.106594 -0.669945
H39   H     H_    0.883851 0.436577 0.073719 0.257468
H40   H     H_    0.922339 0.451002 0.145865 0.242212
H41   H     H_    0.876178 0.635712 0.120367 0.252159
O34   O     O_3   0.070771 0.265819 0.970952 -0.618039
C71   C     C_3   0.048867 0.367356 0.921016 0.242982
H42   H     H_    0.019464 0.472635 0.933967 0.115246
H43   H     H_    0.027838 0.277079 0.885998 0.118329
C72   C     C_3   0.095043 0.465987 0.894945 -0.708677
H44   H     H_    0.124830 0.362499 0.881848 0.248760
H45   H     H_    0.078657 0.545985 0.855338 0.244100
H46   H     H_    0.116138 0.562060 0.927983 0.256858
O35   O     O_3   0.571455 0.235111 0.470043 -0.612344
C73   C     C_3   0.549510 0.132978 0.420305 0.228755
H47   H     H_    0.527784 0.222615 0.385495 0.126169
H48   H     H_    0.520719 0.026226 0.433620 0.112596
C74   C     C_3   0.595724 0.036616 0.393632 -0.666157
H49   H     H_    0.617638 0.941712 0.426525 0.258630
H50   H     H_    0.579205 0.955598 0.354336 0.240894
H51   H     H_    0.624807 0.141541 0.379922 0.251476
O36   O     O_3   0.427675 0.761086 0.529995 -0.619012
C75   C     C_3   0.449151 0.862618 0.580034 0.248192
H52   H     H_    0.478416 0.968676 0.567281 0.116718
H53   H     H_    0.470176 0.772288 0.615107 0.119857
C76   C     C_3   0.402637 0.960144 0.605838 -0.702826
H54   H     H_    0.372920 0.856002 0.618669 0.247257
H55   H     H_    0.418679 0.039940 0.645569 0.246596
H56   H     H_    0.381570 0.056311 0.572739 0.255177

loop_
_geom_bond_atom_site_label_1
_geom_bond_atom_site_label_2
_geom_bond_distance
_ccdc_geom_bond_type
C26   H10   1.081139 S    
C43   N3    1.456498 S    
O1    C5    1.330183 A    
C74   H49   1.110460 S    
C23   C27   1.410023 A    
O19   V1    1.759329 S    
O13   V1    1.967679 S    
O36   C75   1.410392 S    
O3    C7    1.330137 A    
C10   C14   1.402132 A    
O1    V3    1.977503 S    
O15   V3    1.968375 S    
C10   C30   1.398152 A    
C65   H28   1.116038 S    
O33   C69   1.410832 S    
C9    C29   1.401639 A    
C30   C34   1.453803 S    
C76   H54   1.110693 S    
O7    C3    1.339293 A    
H15   C52   1.109610 S    
C62   H20   1.110621 S    
O5    C1    1.338909 A    
C72   H44   1.110691 S    
H14   C49   1.109601 S    
C75   H53   1.114054 S    
C4    C45   1.450803 S    
O9    V1    1.985979 S    
C69   H37   1.113937 S    
C70   H40   1.109946 S    
C1    C48   1.452591 S    
C22   C26   1.424776 A    
O4    C8    1.327815 A    
C55   C59   1.483239 S    
C31   C35   1.451266 S    
C75   H52   1.111830 S    
C54   C58   1.485140 S    
C3    C46   1.453345 S    
C73   C74   1.518985 S    
C52   C56   1.560927 S    
C61   C62   1.521292 S    
O2    V4    1.977506 S    
C14   H6    1.083070 S    
O3    V1    1.977286 S    
C65   H27   1.112452 S    
C66   H31   1.110846 S    
C27   C31   1.397617 A    
C63   H22   1.114664 S    
C1    O15   1.337023 A    
C15   H7    1.083060 S    
C2    O16   1.335760 A    
O2    C6    1.327359 A    
O14   V2    1.967682 S    
H16   C51   1.109693 S    
C44   C56   1.544999 S    
C11   C15   1.403474 A    
C69   H38   1.111672 S    
C32   C36   1.451563 S    
C68   H36   1.108375 S    
C16   C20   1.412247 A    
O11   C7    1.335339 A    
O12   C8    1.337904 A    
O10   C6    1.337668 A    
C38   C53   1.542669 S    
C74   H50   1.110003 S    
C33   C34   1.213998 T    
C41   N1    1.456501 S    
C37   C54   1.543542 S    
O10   V2    1.985979 S    
C13   C17   1.409749 A    
C26   C30   1.396655 A    
C39   C56   1.543391 S    
C50   C54   1.560906 S    
C47   C59   1.214789 T    
C76   H55   1.109882 S    
C42   C49   1.546832 S    
C2    C47   1.450777 S    
C62   H21   1.110788 S    
C41   C50   1.547401 S    
O7    V3    1.975524 S    
C61   H17   1.112332 S    
O8    V4    1.975524 S    
O21   C61   1.413732 S    
C12   H4    1.083370 S    
C71   C72   1.519179 S    
N2    O28   1.299262 A    
O22   C63   1.414429 S    
C70   H41   1.110690 S    
C21   O21   1.385738 S    
C21   C25   1.410986 A    
O18   V4    1.758317 S    
C7    C18   1.499371 S    
C67   C68   1.516263 S    
C23   O23   1.385513 S    
O11   V3    1.986299 S    
C73   H47   1.114011 S    
C9    H1    1.083384 S    
C24   C28   1.419314 A    
C38   O34   1.409463 S    
C37   O33   1.409481 S    
C65   C66   1.521332 S    
C11   H3    1.083413 S    
C43   C55   1.543909 S    
C69   C70   1.518944 S    
C13   H5    1.083045 S    
C11   C31   1.401321 A    
O8    C4    1.339101 A    
C43   C52   1.547234 S    
O9    C5    1.338749 A    
C18   C22   1.422485 A    
C24   O24   1.394861 S    
C61   H18   1.116093 S    
C63   C64   1.516113 S    
C71   H42   1.111755 S    
C66   H29   1.110113 S    
C48   C60   1.215757 T    
C14   C18   1.409811 A    
H13   C50   1.109520 S    
O6    V2    1.974288 S    
C40   C52   1.556280 S    
C74   H51   1.110693 S    
C44   N4    1.455870 S    
N1    O25   1.300218 A    
N4    O32   1.299489 A    
C12   C16   1.402816 A    
O5    V1    1.974288 S    
C53   C57   1.483251 S    
C64   H24   1.107885 S    
O16   V4    1.968375 S    
C76   H56   1.110596 S    
C8    C17   1.499483 S    
C29   C33   1.453221 S    
C3    O13   1.336566 A    
C67   H33   1.115815 S    
C10   H2    1.083231 S    
C71   H43   1.114008 S    
O17   V3    1.758319 S    
C40   C44   1.535150 S    
C25   C29   1.397997 A    
N2    O27   1.300251 A    
O6    C2    1.339220 A    
N3    O29   1.300190 A    
C12   C32   1.398061 A    
C25   H9    1.083593 S    
C39   C51   1.556178 S    
C72   H46   1.110545 S    
O12   V4    1.986296 S    
C62   H19   1.110137 S    
C27   H11   1.083663 S    
C28   H12   1.082125 S    
C39   O35   1.409552 S    
C28   C32   1.394544 A    
C9    C13   1.404265 A    
C64   H26   1.104460 S    
C44   C51   1.546922 S    
O20   V2    1.759329 S    
C68   H34   1.107554 S    
C37   C49   1.556135 S    
C35   C36   1.212814 T    
C40   C55   1.542794 S    
C73   H48   1.111717 S    
O35   C73   1.410755 S    
O23   C65   1.413555 S    
N3    O30   1.300164 A    
C15   C19   1.409395 A    
O24   C67   1.416338 S    
C39   C43   1.534973 S    
C42   C54   1.545194 S    
C67   H32   1.110977 S    
C17   C21   1.421603 A    
C38   C50   1.556217 S    
C56   C60   1.484819 S    
C41   C53   1.543974 S    
C19   C23   1.421412 A    
C49   C53   1.559410 S    
C40   O36   1.409513 S    
C46   C58   1.215953 T    
C63   H23   1.112182 S    
C66   H30   1.110622 S    
C45   C57   1.214803 T    
C51   C55   1.559612 S    
C16   H8    1.082805 S    
C22   O22   1.398926 S    
C72   H45   1.109855 S    
C38   C42   1.534843 S    
C4    O14   1.335747 A    
N1    O26   1.300176 A    
C37   C41   1.535016 S    
N4    O31   1.300235 A    
C64   H25   1.110654 S    
O34   C71   1.410551 S    
C70   H39   1.110426 S    
C42   N2    1.455770 S    
C5    C20   1.505609 S    
O4    V2    1.977286 S    
C20   C24   1.425912 A    
C6    C19   1.497674 S    
C68   H35   1.110474 S    
C75   C76   1.519258 S    
