data_mof_unit_41253.cif
_audit_creation_date              2013-03-05T15:52:14-0500
_audit_creation_method            fapswitch 2.2
_symmetry_space_group_name_H-M    P1
_symmetry_Int_Tables_number       1
_space_group_crystal_system       triclinic
_cell_length_a                    8.32334
_cell_length_b                    17.457519
_cell_length_c                    27.071025
_cell_angle_alpha                 96.45254
_cell_angle_beta                  92.038449
_cell_angle_gamma                 83.584687
_cell_volume                      3883.10320559

loop_
_atom_site_label
_atom_site_type_symbol
_atom_site_description
_atom_site_fract_x
_atom_site_fract_y
_atom_site_fract_z
_atom_type_partial_charge
P1    P     P_3+3 0.078810 0.562990 0.610370 0.524286
O1    O     O_2   0.910880 0.540430 0.617910 -0.376968
O2    O     O_3   0.142880 0.540370 0.557740 -0.340400
O3    O     O_3   0.675650 0.402220 0.588450 -0.371612
O4    O     O_2   0.817287 0.454243 0.673021 -0.431671
O5    O     O_3   0.081773 0.662424 0.630403 -0.600596
O6    O     O_3   0.693127 0.328754 0.681798 -0.584279
H1    H     H_    0.722552 0.268513 0.610319 0.053747
C1    C     C_3   0.763207 0.190402 0.666481 -0.186869
H2    H     H_    0.895331 0.192736 0.665206 0.129195
H3    H     H_    0.731822 0.188021 0.706143 0.173630
P2    P     P_3+3 0.645380 0.325580 0.462150 0.473069
P3    P     P_3+3 0.117967 0.262230 0.563139 0.508827
O7    O     O_2   0.823810 0.314230 0.476690 -0.371519
O8    O     O_3   0.086630 0.363340 0.564170 -0.414525
O9    O     O_2   0.966219 0.227190 0.539778 -0.387872
O10   O     O_3   0.643221 0.301682 0.397686 -0.570666
O11   O     O_3   0.131390 0.239548 0.624903 -0.482652
C2    C     C_3   0.083431 0.306999 0.656787 0.524692
H4    H     H_    0.956157 0.324635 0.648910 0.103947
H5    H     H_    0.151638 0.355941 0.651110 0.121638
C3    C     C_3   0.107497 0.292838 0.711409 -0.870731
H6    H     H_    0.020209 0.333623 0.734610 0.223970
H7    H     H_    0.089902 0.232348 0.717116 0.267494
C4    C     C_3   0.204173 0.299592 0.413693 0.425443
H8    H     H_    0.325968 0.318279 0.421439 0.095428
H9    H     H_    0.129286 0.312426 0.447402 0.105638
C5    C     C_3   0.220562 0.212597 0.398260 -0.993143
H10   H     H_    0.294138 0.198578 0.364349 0.276160
H11   H     H_    0.280633 0.180925 0.428177 0.211342
H12   H     H_    0.099015 0.192837 0.390394 0.265658
Ba1   Ba    Ba6+2 0.856110 0.463800 0.523550 1.603778
C6    C     C_3   0.951441 0.710566 0.613090 0.575484
H13   H     H_    0.839662 0.681401 0.608932 0.041095
C7    C     C_3   0.924156 0.782932 0.651269 -0.120365
H14   H     H_    0.818036 0.822200 0.639432 0.132384
H15   H     H_    0.032861 0.815270 0.652904 0.164727
C8    C     C_3   0.703057 0.359152 0.374138 0.420898
H16   H     H_    0.812893 0.378651 0.393496 0.110797
H17   H     H_    0.607944 0.408783 0.372964 0.097310
C9    C     C_3   0.746371 0.324816 0.321422 -0.945516
H18   H     H_    0.832718 0.271665 0.322587 0.278527
H19   H     H_    0.804222 0.366351 0.301794 0.225063
H20   H     H_    0.635570 0.309611 0.300200 0.257829
P4    P     P_3+3 0.110900 0.436950 0.389630 0.481305
O12   O     O_2   0.278810 0.459550 0.382060 -0.362742
O13   O     O_3   0.046820 0.459570 0.442260 -0.398805
O14   O     O_3   0.514050 0.597710 0.411540 -0.392131
O15   O     O_3   0.130828 0.336392 0.374304 -0.554867
P5    P     P_3+3 0.072001 0.737072 0.432191 0.529881
O16   O     O_3   0.627090 0.591350 0.524530 -0.392334
O17   O     O_3   0.103080 0.636600 0.435820 -0.328679
O18   O     O_2   0.202586 0.772915 0.466702 -0.315157
O19   O     O_3   0.125653 0.754138 0.372931 -0.518625
Ba2   Ba    Ba6+2 0.333710 0.536130 0.476450 1.614443
P6    P     P_3+3 0.665051 0.416444 0.653917 0.478064
C10   C     C_3   0.672273 0.263483 0.647228 0.618487
O20   O     O_3   0.562610 0.408580 0.475460 -0.396068
C11   C     C_3   0.488811 0.651133 0.625062 0.390180
H21   H     H_    0.382973 0.629648 0.604177 0.125018
H22   H     H_    0.586695 0.602467 0.625435 0.078717
C12   C     C_3   0.436514 0.678258 0.678242 -0.794107
H23   H     H_    0.396560 0.741539 0.682843 0.296016
H24   H     H_    0.334687 0.647478 0.687963 0.219563
H25   H     H_    0.536320 0.664328 0.704964 0.256475
P7    P     P_3+3 0.548839 0.688820 0.538944 0.472392
O21   O     O_2   0.365880 0.685750 0.523280 -0.283633
O22   O     O_3   0.544836 0.712652 0.603575 -0.565618
H26   H     H_    0.232225 0.303639 0.724403 0.304059
C13   C     C_3   0.009303 0.727081 0.338456 0.353688
H27   H     H_    0.984586 0.667160 0.343559 0.087238
H28   H     H_    0.896174 0.767186 0.341944 0.053836
C14   C     C_3   0.071678 0.725898 0.286327 -0.845806
H29   H     H_    0.184541 0.685356 0.281602 0.284844
H30   H     H_    0.979128 0.706198 0.258621 0.249436
H31   H     H_    0.097275 0.785099 0.279722 0.246054
P8    P     P_3+3 0.522365 0.585384 0.346561 0.473369
C15   C     C_3   0.552690 0.731271 0.362315 0.536404
H32   H     H_    0.679016 0.714967 0.374754 -0.042946
O23   O     O_2   0.363033 0.553932 0.327129 -0.383521
O24   O     O_3   0.506861 0.676276 0.324170 -0.504745
H33   H     H_    0.469959 0.736500 0.394173 0.135387
H34   H     H_    0.583285 0.853788 0.372231 0.214651
C16   C     C_3   0.542170 0.810067 0.342796 -0.993198
H35   H     H_    0.415027 0.828552 0.331725 0.282974
H36   H     H_    0.620102 0.806865 0.309962 0.264931
C17   C     C_R   0.038803 0.443148 0.180271 0.528277
O25   O     O_2   0.086523 0.387976 0.202991 -0.592511
N1    N     N_R   0.944518 0.506267 0.204051 -0.161913
C18   C     C_R   0.887428 0.567685 0.177381 0.515475
C19   C     C_2   0.745074 0.523659 0.270512 -0.165235
C20   C     C_3   0.701171 0.518340 0.323835 0.141361
C21   C     C_1   0.986106 0.488756 0.343410 0.304157
C22   C     C_2   0.027730 0.487730 0.296070 -0.194283
C23   C     C_2   0.901499 0.507009 0.256323 0.110271
C24   C     C_R   0.018938 0.502687 0.102093 -0.064900
C25   C     C_R   0.077952 0.440951 0.129443 -0.058730
C26   C     C_R   0.173873 0.377675 0.105300 -0.084127
C27   C     C_R   0.923014 0.566391 0.126421 -0.051528
C28   C     C_2   0.846377 0.525198 0.358450 -0.489117
H37   H     H_    0.152308 0.471443 0.285692 0.190803
H38   H     H_    0.221591 0.329218 0.125179 0.168675
C29   C     C_2   0.346268 0.478060 0.640328 -0.371518
C30   C     C_R   0.189147 0.433837 0.974837 0.040124
C31   C     C_R   0.029158 0.561096 0.971654 0.039805
C32   C     C_R   0.127242 0.496493 0.947721 0.086378
C33   C     C_R   0.285941 0.371044 0.949055 -0.200110
C34   C     C_R   0.320637 0.369860 0.898959 -0.073084
C35   C     C_R   0.261181 0.431177 0.871833 -0.056573
C36   C     C_R   0.164169 0.494598 0.896084 -0.062250
C37   C     C_R   0.104692 0.556261 0.868724 -0.074592
C38   C     C_R   0.144927 0.554406 0.818032 0.538582
N2    N     N_R   0.240581 0.491672 0.794397 -0.167649
C39   C     C_R   0.297619 0.430176 0.820955 0.517723
C40   C     C_2   0.442506 0.478233 0.728976 -0.125850
C41   C     C_3   0.488337 0.484822 0.675947 0.168331
C42   C     C_1   0.203678 0.510061 0.655424 0.231086
C43   C     C_2   0.159837 0.508705 0.702283 -0.213401
C44   C     C_2   0.285230 0.491537 0.742385 0.101510
O26   O     O_2   0.379973 0.374155 0.800306 -0.580522
C45   C     C_R   0.152792 0.435850 0.026412 0.042329
C46   C     C_R   0.055298 0.500614 0.050397 0.084360
C47   C     C_R   0.993507 0.563295 0.023286 0.042350
C48   C     C_R   0.210667 0.375100 0.055238 -0.198967
H39   H     H_    0.537807 0.469394 0.756841 0.161297
H40   H     H_    0.395738 0.320168 0.881479 0.174410
H41   H     H_    0.337980 0.321242 0.966408 0.130486
H42   H     H_    0.285230 0.323936 0.040363 0.129026
O27   O     O_2   0.805757 0.623951 0.197999 -0.603206
C49   C     C_R   0.863903 0.627798 0.099314 -0.083857
H43   H     H_    0.648854 0.533945 0.243141 0.167901
H44   H     H_    0.789814 0.677785 0.116872 0.168814
C50   C     C_R   0.970009 0.621523 0.942726 -0.201649
C51   C     C_R   0.007217 0.619106 0.892718 -0.061752
O28   O     O_2   0.097043 0.609533 0.795302 -0.542283
C52   C     C_R   0.897884 0.626418 0.049161 -0.199170
H45   H     H_    0.893859 0.672233 0.957450 0.132689
H46   H     H_    0.958650 0.667348 0.872764 0.185113
H47   H     H_    0.035195 0.524912 0.712550 0.206831
H48   H     H_    0.846675 0.676464 0.031887 0.129779
H49   H     H_    0.836247 0.558437 0.394792 0.161215
H50   H     H_    0.365233 0.457273 0.601420 0.180166
H51   H     H_    0.484345 0.858167 0.530064 0.169000
H52   H     H_    0.292571 0.103534 0.538792 0.171255
C53   C     C_R   0.399901 0.278157 0.515210 -0.448961
C54   C     C_R   0.547273 0.254354 0.492570 0.291699
C55   C     C_R   0.603569 0.174986 0.485959 -0.210040
C56   C     C_R   0.512588 0.119987 0.502672 0.065771
C57   C     C_R   0.363440 0.145072 0.525471 -0.240631
C58   C     C_R   0.306005 0.224267 0.530842 0.329209
C59   C     C_R   0.588293 0.835902 0.507742 -0.214103
C60   C     C_R   0.638953 0.756150 0.502631 0.222306
C61   C     C_R   0.867803 0.777837 0.454374 0.251120
C62   C     C_R   0.817436 0.857951 0.459546 -0.232559
C63   C     C_R   0.674673 0.887027 0.485181 0.078173
C64   C     C_1   0.620002 0.969462 0.490736 0.022012
C65   C     C_1   0.571478 0.038028 0.495954 0.088731
C66   C     C_R   0.771341 0.727448 0.473194 -0.383528
H53   H     H_    0.890843 0.897318 0.444983 0.139879
H54   H     H_    0.715846 0.156080 0.466966 0.153919
H55   H     H_    0.355751 0.339172 0.519496 0.167859
H56   H     H_    0.808442 0.665723 0.468979 0.166825
N3    N     N_R   0.994082 0.732524 0.565285 0.184591
O29   O     O_R   0.042084 0.677537 0.531108 -0.341676
O30   O     O_R   0.012399 0.804114 0.559026 -0.428411
N4    N     N_R   0.897652 0.761649 0.700880 0.277729
O31   O     O_R   0.005495 0.772424 0.736660 -0.310795
O32   O     O_R   0.755626 0.744792 0.711868 -0.377911
N5    N     N_R   0.500705 0.255831 0.641425 0.227951
O33   O     O_R   0.431659 0.211038 0.668339 -0.344084
O34   O     O_R   0.412287 0.309799 0.620769 -0.483033
N6    N     N_R   0.724981 0.119557 0.635798 0.274699
O35   O     O_R   0.662048 0.065669 0.656153 -0.307703
O36   O     O_R   0.769392 0.106432 0.589408 -0.376947

loop_
_geom_bond_atom_site_label_1
_geom_bond_atom_site_label_2
_geom_bond_distance
_ccdc_geom_bond_type
O14   Ba2   2.732998 S    
P7    O22   1.752959 S    
C17   O25   1.222289 D    
P8    C20   1.864760 S    
C50   H45   1.075914 S    
C21   C22   1.337079 D    
C9    H19   1.105791 S    
N5    O33   1.315613 A    
C43   C44   1.510061 S    
O4    P6    1.540131 D    
C2    H4    1.090075 S    
Ba1   O20   2.934248 S    
C52   H48   1.076146 S    
P4    C21   1.847788 S    
C14   H31   1.113068 S    
C30   C32   1.424213 A    
C53   C54   1.391140 A    
C57   C58   1.404694 A    
O8    Ba1   2.738195 S    
P4    O12   1.520734 D    
C4    C5    1.521456 S    
C26   C48   1.394708 A    
N3    O30   1.306101 A    
P5    O19   1.746387 S    
P3    O11   1.757997 S    
O13   Ba2   2.936485 S    
C5    H10   1.110701 S    
C2    H5    1.104549 S    
C37   C38   1.420108 A    
P3    C58   1.840789 S    
O11   C2    1.407817 S    
C28   H49   1.085542 S    
C8    H16   1.105271 S    
H1    C10   1.113034 S    
C19   H43   1.085459 S    
P5    C61   1.860651 S    
C40   C41   1.518374 S    
C24   C27   1.407962 A    
O3    P6    1.765690 S    
C7    N4    1.463560 S    
C34   C35   1.400868 A    
C31   C47   1.434589 A    
O1    Ba1   2.794265 S    
P1    O1    1.520470 D    
C14   H29   1.113270 S    
P2    C54   1.842812 S    
C61   C66   1.402026 A    
C36   C37   1.409431 A    
C45   C48   1.418059 A    
C12   H24   1.107140 S    
C6    C7    1.541069 S    
N2    C44   1.468637 S    
C18   O27   1.221886 D    
O2    Ba2   2.748953 S    
C55   C56   1.408722 A    
C22   H37   1.082504 S    
O12   Ba2   2.794810 S    
P5    O17   1.757431 S    
C59   C60   1.401793 A    
C13   H27   1.112773 S    
C59   C63   1.408428 A    
C1    H2    1.106911 S    
Ba1   Ba2   4.568015 S    
O16   Ba2   2.933293 S    
C53   C58   1.397227 A    
C12   H25   1.106415 S    
O17   Ba2   2.738985 S    
C48   H42   1.076179 S    
P2    O20   1.543114 S    
H51   C59   1.083534 S    
P7    O21   1.571275 D    
C11   H21   1.107746 S    
P2    Ba1   3.390958 S    
N4    O32   1.301891 A    
N5    O34   1.294657 A    
C29   C42   1.312512 D    
O6    P6    1.770589 S    
C55   H54   1.083392 S    
C38   N2    1.387998 Am   
N6    O36   1.309848 A    
C25   C26   1.400930 A    
C10   N5    1.450422 S    
P4    O13   1.533250 S    
C60   C66   1.396306 A    
C11   H22   1.110108 S    
P5    O18   1.547281 D    
P1    O5    1.762105 S    
C2    C3    1.528976 S    
C56   C57   1.409287 A    
C8    C9    1.523770 S    
N2    C39   1.389299 Am   
C19   C20   1.516925 S    
C15   H32   1.108794 S    
C30   C45   1.434844 A    
C4    H8    1.105203 S    
C26   H38   1.083976 S    
P1    Ba1   3.383918 S    
P1    O2    1.533221 S    
O16   P7    1.758711 S    
O14   P8    1.750873 S    
N1    C23   1.470231 S    
C49   H44   1.084016 S    
C9    H18   1.111050 S    
Ba1   O16   2.763034 S    
P7    C60   1.849231 S    
C12   H23   1.111961 S    
C11   O22   1.407408 S    
C15   H33   1.112109 S    
H34   C16   1.112164 S    
O19   C13   1.403848 S    
P4    O15   1.748572 S    
C33   C34   1.393982 A    
C24   C25   1.409319 A    
C13   C14   1.518088 S    
C6    H13   1.105907 S    
P6    C41   1.858493 S    
C22   C23   1.515552 S    
P1    C42   1.835769 S    
C16   H35   1.112074 S    
C1    H3    1.120344 S    
C21   C28   1.316520 D    
C62   C63   1.412768 A    
C45   C46   1.423327 A    
O3    Ba1   2.733427 S    
C35   C39   1.418590 A    
P2    O7    1.519867 D    
C40   C44   1.358768 D    
P3    O8    1.752447 S    
N4    O31   1.309281 A    
Ba1   O13   2.748373 S    
C3    H7    1.110537 S    
Ba2   O20   2.762421 S    
C14   H30   1.111003 S    
C38   O28   1.222124 D    
C43   H47   1.082039 S    
N1    C18   1.390126 Am   
C29   H50   1.085864 S    
C18   C27   1.418417 A    
N6    O35   1.307745 A    
C20   C28   1.509862 S    
C31   C50   1.417972 A    
C54   C55   1.405889 A    
C32   C36   1.437870 A    
P8    O23   1.544386 D    
C7    H15   1.115787 S    
C64   C65   1.214037 T    
C11   C12   1.526948 S    
C3    H26   1.113507 S    
C27   C49   1.401092 A    
C6    N3    1.456797 S    
C5    H12   1.110845 S    
C49   C52   1.393682 A    
O7    Ba1   2.808482 S    
C51   H46   1.084020 S    
Ba2   O21   2.808782 S    
C37   C51   1.400782 A    
C4    H9    1.111192 S    
C31   C32   1.423326 A    
C40   H39   1.085481 S    
O5    C6    1.396924 S    
C24   C46   1.437946 A    
C47   C52   1.417251 A    
C17   N1    1.388433 Am   
C29   C41   1.505485 S    
C46   C47   1.424245 A    
C33   H41   1.075789 S    
C62   H53   1.083005 S    
C42   C43   1.335844 D    
P2    O10   1.748008 S    
C8    H17   1.108846 S    
C15   O24   1.401627 S    
C50   C51   1.394436 A    
C53   H55   1.082069 S    
C5    H11   1.105276 S    
C9    H20   1.110743 S    
C1    C10   1.542015 S    
C56   C65   1.453157 S    
O2    Ba1   2.935722 S    
H52   C57   1.083194 S    
C4    O15   1.393708 S    
N3    O29   1.295425 A    
C66   H56   1.081680 S    
C19   C23   1.361288 D    
C15   C16   1.520601 S    
O10   C8    1.392482 S    
P4    Ba2   3.384363 S    
P8    O24   1.751209 S    
P3    O9    1.548643 D    
C63   C64   1.452795 S    
C3    H6    1.116086 S    
C16   H36   1.111615 S    
C1    N6    1.469358 S    
C13   H28   1.109001 S    
C7    H14   1.116555 S    
C34   H40   1.083896 S    
C61   C62   1.407307 A    
C35   C36   1.408329 A    
O6    C10   1.413260 S    
C30   C33   1.417217 A    
C39   O26   1.222033 D    
C17   C25   1.420610 A    
