data_mof_unit_58212.cif
_audit_creation_date              2012-12-11T16:53:31-0500
_audit_creation_method            fapswitch 2.2
_symmetry_space_group_name_H-M    P1
_symmetry_Int_Tables_number       1
_space_group_crystal_system       triclinic
_cell_length_a                    14.863206
_cell_length_b                    14.800523
_cell_length_c                    16.998495
_cell_angle_alpha                 108.49602
_cell_angle_beta                  105.929599
_cell_angle_gamma                 108.143216
_cell_volume                      3067.3041922

loop_
_atom_site_label
_atom_site_type_symbol
_atom_type_description
_atom_site_fract_x
_atom_site_fract_y
_atom_site_fract_z
_atom_type_partial_charge
C1    C     C_R   0.089041 0.283650 0.071017 -0.152081
C2    C     C_R   0.064184 0.484616 0.254972 -0.189814
C3    C     C_R   0.268440 0.792709 0.180176 -0.238719
C4    C     C_R   0.940947 0.446773 0.737761 -0.179646
C5    C     C_R   0.741898 0.469752 0.052418 0.532667
C6    C     C_R   0.316924 0.794044 0.261924 -0.094783
C7    C     C_R   0.720935 0.551729 0.043233 -0.081912
C8    C     C_R   0.974634 0.420988 0.256712 -0.026317
C9    C     C_R   0.003501 0.824578 0.981037 0.035781
C10   C     C_R   0.518509 0.646580 0.034208 0.163702
C11   C     C_R   0.470034 0.595116 0.077743 0.034563
C12   C     C_R   0.034580 0.463463 0.729213 0.105265
C13   C     C_R   0.529585 0.571433 0.141125 -0.244880
C14   C     C_R   0.624897 0.574350 0.141987 -0.162013
C15   C     C_R   0.657203 0.596973 0.077125 0.049306
C16   C     C_R   0.723218 0.213767 0.826652 0.464649
C17   C     C_R   0.610771 0.646902 0.033242 0.156144
C18   C     C_3   0.578235 0.632470 0.936575 -0.503349
C19   C     C_3   0.477736 0.633115 0.938289 -0.549979
C20   C     C_R   0.970204 0.385374 0.328362 0.109971
C21   C     C_R   0.046171 0.420301 0.643504 0.108028
C22   C     C_R   0.152781 0.443034 0.557492 0.536511
C23   C     C_R   0.665573 0.216667 0.749452 -0.186114
C24   C     C_R   0.144161 0.453237 0.640613 -0.398733
C25   C     C_R   0.956955 0.359932 0.562011 -0.278291
C26   C     C_R   0.962542 0.355166 0.481043 0.128050
C27   C     C_R   0.060101 0.399289 0.478410 0.037010
C28   C     C_R   0.299868 0.592894 0.001002 -0.152137
C29   C     C_R   0.062430 0.408572 0.399309 -0.235298
C30   C     C_R   0.874700 0.339782 0.332781 -0.155083
C31   C     C_R   0.870626 0.319777 0.406060 -0.192960
C32   C     C_R   0.580083 0.130692 0.669095 0.125799
C33   C     C_R   0.401801 0.881098 0.340805 0.163919
C34   C     C_R   0.358242 0.556454 0.048553 0.082397
C35   C     C_R   0.566120 0.938380 0.461714 -0.229706
C36   C     C_R   0.496661 0.876108 0.371298 -0.138159
C37   C     C_R   0.376639 0.950186 0.397583 -0.274958
C38   C     C_R   0.443490 0.009703 0.488590 0.183568
C39   C     C_R   0.538544 0.002814 0.521015 0.189489
C40   C     C_R   0.723934 0.309277 0.749297 0.271652
C41   C     C_R   0.605288 0.062041 0.611920 -0.285741
C42   C     C_R   0.485133 0.135595 0.638774 -0.173080
C43   C     C_R   0.415869 0.073897 0.548122 -0.216363
C44   C     C_R   0.080165 0.127300 0.154040 -0.007866
C45   C     C_R   0.264914 0.697094 0.257899 0.547562
C46   C     C_R   0.999596 0.107092 0.074764 0.000270
C47   C     C_R   0.908515 0.010954 0.034849 -0.148088
C48   C     C_R   0.893271 0.947338 0.081001 -0.172796
C49   C     C_R   0.968334 0.978458 0.167378 0.055487
C50   C     C_R   0.063710 0.064657 0.199839 0.062362
C51   C     C_3   0.125174 0.155681 0.292443 -0.619284
C52   C     C_R   0.294118 0.492258 0.073887 -0.165820
C53   C     C_3   0.143686 0.225430 0.243572 0.460881
C54   C     C_R   0.112993 0.536716 0.814273 -0.122306
C55   C     C_R   0.917243 0.198502 0.994212 -0.085283
C56   C     C_R   0.757943 0.571994 0.982081 -0.288285
C57   C     C_R   0.003614 0.188316 0.040663 0.030546
C58   C     C_3   0.800524 0.283424 0.123526 -0.984901
C59   C     C_3   0.778206 0.618070 0.800048 0.228845
C60   C     C_3   0.684392 0.614949 0.732358 -0.910056
C61   C     C_3   0.593359 0.327472 0.011896 0.246468
C62   C     C_3   0.524291 0.272175 0.049898 -0.921262
C63   C     C_3   0.331530 0.558914 0.631157 0.275082
C64   C     C_3   0.420832 0.610916 0.609169 -0.899888
C65   C     C_3   0.589837 0.073719 0.823066 0.265155
C66   C     C_3   0.566416 0.020663 0.883136 -0.943973
C67   C     C_R   0.893606 0.389659 0.174054 0.365356
C68   C     C_3   0.303074 0.222706 0.237331 0.323259
C69   C     C_3   0.320355 0.228390 0.154403 -1.006449
C70   C     C_3   0.682478 0.349644 0.683673 -1.037423
C71   C     C_3   0.330778 0.588147 0.291789 0.195313
C72   C     C_3   0.378523 0.562799 0.368444 -0.821491
C73   C     C_R   0.086255 0.806485 0.019876 -0.254055
C74   C     C_R   0.917769 0.726615 0.938466 0.479817
H1    H     H_    0.166577 0.310032 0.120089 0.148090
H2    H     H_    0.566290 0.554542 0.887552 0.202391
H3    H     H_    0.469239 0.703821 0.934479 0.192324
H4    H     H_    0.409016 0.555929 0.890410 0.200917
H5    H     H_    0.136721 0.442530 0.396966 0.168032
H6    H     H_    0.802623 0.326398 0.284117 0.137645
H7    H     H_    0.795587 0.287519 0.408295 0.123866
H8    H     H_    0.212780 0.491022 0.703540 0.116010
H9    H     H_    0.880872 0.327701 0.561745 0.127226
H10   H     H_    0.680726 0.061775 0.636834 0.131826
H11   H     H_    0.468055 0.191702 0.683775 0.122182
H12   H     H_    0.756300 0.632745 0.961901 0.197538
H13   H     H_    0.638873 0.933036 0.485969 0.131145
H14   H     H_    0.343069 0.079178 0.523958 0.130733
H15   H     H_    0.513597 0.819475 0.326653 0.115830
H16   H     H_    0.301078 0.950181 0.372597 0.130103
H17   H     H_    0.845972 0.988397 0.971214 0.137237
H18   H     H_    0.820416 0.877577 0.052352 0.138382
H19   H     H_    0.075983 0.169535 0.329487 0.189758
H20   H     H_    0.195798 0.151879 0.332249 0.197317
H21   H     H_    0.104471 0.278390 0.253066 0.062371
H22   H     H_    0.328401 0.658525 0.985206 0.102224
H23   H     H_    0.167091 0.862741 0.050958 0.133519
H24   H     H_    0.317131 0.458866 0.119501 0.086930
H25   H     H_    0.195702 0.567850 0.833265 0.091994
H26   H     H_    0.837945 0.146274 0.975532 0.164308
H27   H     H_    0.821763 0.222314 0.136586 0.230689
H28   H     H_    0.736420 0.285863 0.143428 0.270935
H29   H     H_    0.770896 0.259128 0.049214 0.277791
H30   H     H_    0.750600 0.549411 0.814729 0.132747
H31   H     H_    0.834417 0.613680 0.768660 0.105331
H32   H     H_    0.708713 0.684316 0.717437 0.266010
H33   H     H_    0.648279 0.541395 0.667796 0.222586
H34   H     H_    0.142515 0.510549 0.301418 0.167225
H35   H     H_    0.625784 0.616500 0.760968 0.255806
H36   H     H_    0.603632 0.267441 0.960879 0.115344
H37   H     H_    0.551450 0.363990 0.976818 0.098142
H38   H     H_    0.515948 0.331482 0.103288 0.264270
H39   H     H_    0.446018 0.215940 0.994351 0.221486
H40   H     H_    0.557755 0.227109 0.079583 0.246692
H41   H     H_    0.359676 0.526521 0.678501 0.104655
H42   H     H_    0.309473 0.621326 0.664714 0.088863
H43   H     H_    0.396596 0.647708 0.564668 0.263378
H44   H     H_    0.488572 0.673555 0.673118 0.215549
H45   H     H_    0.295104 0.852643 0.157769 0.131483
H46   H     H_    0.444301 0.551121 0.573948 0.268285
H47   H     H_    0.571091 0.010683 0.756073 0.127500
H48   H     H_    0.539709 0.115478 0.815129 0.084328
H49   H     H_    0.584248 0.081137 0.951076 0.261910
H50   H     H_    0.482875 0.963873 0.851026 0.219295
H51   H     H_    0.614324 0.977103 0.892049 0.259183
H52   H     H_    0.264736 0.138462 0.223568 0.081046
H53   H     H_    0.380469 0.257853 0.294600 0.115008
H54   H     H_    0.358608 0.312327 0.167244 0.260336
H55   H     H_    0.370984 0.189687 0.140212 0.233655
H56   H     H_    0.498387 0.539690 0.182116 0.129184
H57   H     H_    0.245015 0.186660 0.093681 0.259653
H58   H     H_    0.658208 0.291262 0.612888 0.261551
H59   H     H_    0.614035 0.360695 0.690555 0.255458
H60   H     H_    0.740407 0.425259 0.694945 0.230224
H61   H     H_    0.391883 0.618457 0.268339 0.087744
H62   H     H_    0.264800 0.513654 0.235583 0.105869
H63   H     H_    0.319297 0.529452 0.392206 0.268703
H64   H     H_    0.407655 0.503670 0.343622 0.227456
H65   H     H_    0.444559 0.635817 0.426287 0.247396
H66   H     H_    0.664885 0.545534 0.184267 0.177797
H67   H     H_    0.626976 0.702375 0.931029 0.209255
H68   H     H_    0.865829 0.388859 0.686208 0.131482
N1    N     N_R   0.055640 0.348550 0.045600 -0.044757
N2    N     N_R   0.811290 0.303400 0.871650 -0.097473
N3    N     N_R   0.205180 0.552990 0.997660 -0.033365
N4    N     N_R   0.814810 0.361830 0.823710 -0.086702
N5    N     N_R   0.201660 0.494570 0.045600 -0.043930
N6    N     N_R   0.068420 0.560530 0.871650 -0.038350
N7    N     N_R   0.948050 0.295860 0.997660 -0.038270
N8    N     N_R   0.185190 0.638170 0.176290 -0.103073
N9    N     N_R   0.798340 0.505430 0.954400 -0.075738
N10   N     N_R   0.931580 0.439470 0.128350 -0.066289
N11   N     N_R   0.051950 0.704140 0.002340 -0.055137
N12   N     N_R   0.944360 0.651450 0.954400 -0.105291
N13   N     N_R   0.039170 0.492150 0.176290 -0.062732
N14   N     N_R   0.188710 0.696600 0.128350 -0.053799
N15   N     N_R   0.794820 0.447010 0.002340 -0.101837
N16   N     N_R   0.960830 0.507850 0.823710 -0.052135
Ni1   Ni    Ni4+2 0.119330 0.493420 0.109950 0.204013
Ni2   Ni    Ni4+2 0.880670 0.506580 0.890050 0.180926
Ni3   Ni    Ni4+2 0.872590 0.372590 0.000000 0.230006
Ni4   Ni    Ni4+2 0.127410 0.627410 0.000000 0.197976
O1    O     O_3   0.823005 0.712026 0.880444 -0.658737
O2    O     O_3   0.691355 0.403283 0.083466 -0.656944
O3    O     O_3   0.247593 0.476056 0.549708 -0.639685
O4    O     O_3   0.696328 0.144588 0.864752 -0.668704
O5    O     O_3   0.250269 0.284060 0.263583 -0.637101
O6    O     O_3   0.295321 0.664311 0.324045 -0.639604

loop_
_geom_bond_atom_site_label_1
_geom_bond_atom_site_label_2
_ccdc_geom_bond_type
C36   H15   S    
C2    N13   A    
C6    C45   A    
N15   Ni3   S    
N2    Ni3   S    
C53   H21   S    
C61   O2    S    
C35   C36   A    
C3    C6    A    
N5    Ni1   S    
C39   C41   A    
C20   C30   A    
C73   H23   S    
C28   N3    A    
C59   H31   S    
C40   C70   S    
C37   H16   S    
C8    C20   S    
C59   H30   S    
N9    N15   A    
C16   N2    A    
C62   H40   S    
C71   H61   S    
C74   O1    S    
C27   C29   A    
N3    Ni4   S    
C10   C17   A    
C23   C40   A    
C33   C36   A    
C64   H44   S    
C74   N12   A    
C45   N8    A    
C52   H24   S    
C19   H3    S    
C24   H8    S    
C60   H35   S    
C22   O3    S    
C35   H13   S    
C44   C53   S    
C53   O5    S    
C72   H65   S    
C4    N16   A    
C69   H54   S    
C16   O4    S    
C68   C69   S    
C55   H26   S    
C70   H59   S    
C13   H56   S    
C58   H28   S    
C65   H47   S    
C4    C12   A    
N10   Ni3   S    
N14   Ni4   S    
C28   H22   S    
C63   H41   S    
C72   H64   S    
C28   C34   A    
C59   C60   S    
N8    N14   A    
C13   C14   A    
N16   Ni2   S    
C9    C73   A    
C7    C56   A    
C61   H36   S    
N3    N5    A    
C44   C46   A    
C55   N7    A    
C20   C29   A    
C11   C34   S    
N8    Ni1   S    
N13   Ni1   S    
C1    H1    S    
C5    O2    S    
C62   H39   S    
N2    N4    A    
C42   H11   S    
C71   H62   S    
C5    C7    A    
C18   C19   S    
C7    C15   S    
C50   C51   S    
C25   C26   A    
C41   H10   S    
C65   O4    S    
C33   C37   A    
C64   H43   S    
C51   C53   S    
C19   H4    S    
C35   C39   A    
N12   Ni2   S    
C37   C38   A    
C1    N1    A    
C1    C57   A    
C56   H12   S    
C47   C48   A    
C29   H5    S    
N10   N13   A    
C63   O3    S    
C10   C19   S    
C69   H57   S    
C38   C43   A    
C70   H58   S    
C17   C18   S    
C26   C27   A    
C62   H38   S    
C58   H27   S    
N6    N16   A    
C65   H48   S    
C56   N9    A    
C70   H60   S    
C68   H53   S    
C60   H33   S    
C3    H45   S    
C51   H19   S    
C63   H42   S    
C48   C49   A    
C14   H66   S    
C49   C50   A    
C16   C23   A    
C5    N15   A    
C71   O6    S    
C55   C57   A    
C46   C57   S    
C48   H18   S    
C66   H50   S    
C54   H25   S    
N7    Ni3   S    
C42   C43   A    
C43   H14   S    
C32   C41   A    
C61   H37   S    
C68   H52   S    
C60   H32   S    
C54   N6    A    
C44   C50   A    
C15   C17   A    
C21   C25   A    
C46   C47   A    
C72   H63   S    
C18   H2    S    
C67   N10   A    
C14   C15   A    
C47   H17   S    
C18   H67   S    
C2    C8    A    
C31   H7    S    
C66   H51   S    
N1    Ni1   S    
C52   N5    A    
C34   C52   A    
C64   H46   S    
C6    C33   S    
C40   N4    A    
N11   Ni4   S    
C22   C27   A    
N6    Ni4   S    
C23   C32   S    
C30   H6    S    
C71   C72   S    
N9    Ni2   S    
C4    H68   S    
C11   C13   A    
C30   C31   A    
C38   C39   A    
C12   C21   S    
C2    H34   S    
C3    N14   A    
C22   C24   A    
C61   C62   S    
C45   O6    S    
C59   O1    S    
C10   C11   A    
C51   H20   S    
N1    N7    A    
C63   C64   S    
C68   O5    S    
C58   C67   S    
C26   C31   A    
N4    Ni2   S    
C8    C67   A    
C69   H55   S    
C65   C66   S    
C9    C74   A    
C21   C24   A    
C73   N11   A    
C25   H9    S    
C32   C42   A    
C66   H49   S    
C58   H29   S    
N11   N12   A    
C12   C54   A    
