data_mof_unit_61701.cif
_audit_creation_date              2012-12-10T17:51:37-0500
_audit_creation_method            fapswitch 2.2
_symmetry_space_group_name_H-M    P1
_symmetry_Int_Tables_number       1
_space_group_crystal_system       triclinic
_cell_length_a                    18.717854
_cell_length_b                    18.832781
_cell_length_c                    18.702098
_cell_angle_alpha                 109.337019
_cell_angle_beta                  109.423647
_cell_angle_gamma                 109.641389
_cell_volume                      5075.73222741

loop_
_atom_site_label
_atom_site_type_symbol
_atom_type_description
_atom_site_fract_x
_atom_site_fract_y
_atom_site_fract_z
_atom_type_partial_charge
C1    C     C_R   0.620444 0.119894 0.999695 0.934522
C2    C     C_R   0.511040 0.764338 0.686497 -0.160600
C3    C     C_R   0.509161 0.826790 0.749166 -0.255159
C4    C     C_R   0.499708 0.118818 0.120570 0.785223
C5    C     C_R   0.497603 0.813261 0.814437 -0.054555
C6    C     C_R   0.334446 0.800133 0.071452 -0.158855
C7    C     C_R   0.271623 0.736627 0.072622 0.431173
C8    C     C_R   0.185740 0.685389 0.999614 -0.253550
C9    C     C_R   0.163771 0.698411 0.926720 0.417270
C10   C     C_R   0.228480 0.762239 0.927662 -0.155806
C11   C     C_R   0.313123 0.812904 0.999579 -0.225975
C12   C     C_R   0.827017 0.251165 0.010462 -0.319858
C13   C     C_R   0.620028 0.501747 0.621460 0.918162
C14   C     C_R   0.496245 0.384226 0.379492 0.891727
C15   C     C_R   0.379605 0.503988 0.383639 0.906819
C16   C     C_R   0.379558 0.879500 0.999820 0.941890
C17   C     C_R   0.499806 0.622550 0.622626 0.899092
C18   C     C_R   0.879447 0.500460 0.880028 0.894882
C19   C     C_R   0.878449 0.380099 0.998698 0.856993
C20   C     C_R   0.119323 0.498832 0.119409 0.914359
C21   C     C_R   0.119907 0.619784 0.999796 0.857194
C22   C     C_R   0.740498 0.574380 0.768982 0.503103
C23   C     C_R   0.811080 0.314354 0.997445 -0.192950
C24   C     C_R   0.804811 0.574360 0.832654 -0.255056
C25   C     C_R   0.812986 0.500244 0.813521 -0.196597
C26   C     C_R   0.757988 0.426064 0.730678 -0.149949
C27   C     C_R   0.694307 0.425082 0.665557 0.397310
C28   C     C_R   0.499260 0.880140 0.880413 0.940077
C29   C     C_R   0.686071 0.500170 0.685536 -0.259833
C30   C     C_R   0.330881 0.525363 0.257960 -0.287312
C31   C     C_R   0.265929 0.522189 0.191238 0.425212
C32   C     C_R   0.183745 0.497371 0.185439 -0.187097
C33   C     C_R   0.165002 0.473635 0.244038 0.376846
C34   C     C_R   0.732089 0.313743 0.984355 0.469728
C35   C     C_R   0.230671 0.477215 0.309642 -0.167451
C36   C     C_R   0.312934 0.502893 0.316507 -0.165265
C37   C     C_2   0.422250 0.239665 0.252604 -0.109256
C38   C     C_2   0.487988 0.321945 0.302778 -0.226476
C39   C     C_2   0.424045 0.179071 0.180749 -0.200348
C40   C     C_2   0.499388 0.180942 0.191471 0.295836
C41   C     C_R   0.766021 0.187852 0.014258 0.539333
C42   C     C_3   0.683595 0.649515 0.828674 -0.295225
C43   C     C_3   0.848046 0.157078 0.107141 -0.237004
C44   C     C_R   0.670737 0.249400 0.986254 -0.247874
C45   C     C_R   0.686966 0.186538 0.000151 -0.234482
C46   C     C_R   0.485912 0.736905 0.817304 0.453365
C47   C     C_R   0.485656 0.673261 0.752496 -0.312661
C48   C     C_R   0.499010 0.687788 0.688261 -0.057714
H1    H     H_    0.367645 0.216874 0.263796 0.163281
H2    H     H_    0.394776 0.544156 0.263511 0.166022
H3    H     H_    0.217196 0.459573 0.355235 0.187949
H4    H     H_    0.362660 0.130196 0.120337 0.129924
H5    H     H_    0.887135 0.251446 0.018068 0.173459
H6    H     H_    0.609734 0.248153 0.976189 0.197172
H7    H     H_    0.249473 0.677042 0.137974 0.360559
H8    H     H_    0.037826 0.614835 0.864115 0.334058
H9    H     H_    0.716994 0.654684 0.893266 0.168808
H10   H     H_    0.616809 0.591097 0.786857 0.149436
H11   H     H_    0.675900 0.707541 0.840536 0.205343
H12   H     H_    0.476533 0.613421 0.752823 0.145906
H13   H     H_    0.608166 0.361141 0.540575 0.342057
H14   H     H_    0.342358 0.560418 0.145959 0.346032
H15   H     H_    0.039443 0.432408 0.182703 0.327068
H16   H     H_    0.624785 0.232586 0.268341 0.344746
H17   H     H_    0.837994 0.195631 0.158720 0.161617
H18   H     H_    0.912296 0.197276 0.115139 0.160933
H19   H     H_    0.850000 0.102564 0.116736 0.189906
H20   H     H_    0.750927 0.403428 0.950792 0.333860
H21   H     H_    0.466250 0.668448 0.874374 0.335293
H22   H     H_    0.520676 0.775102 0.636164 0.165566
H23   H     H_    0.518346 0.886266 0.747923 0.168522
H24   H     H_    0.400201 0.839914 0.127387 0.194874
H25   H     H_    0.212277 0.772217 0.871832 0.194731
H26   H     H_    0.848479 0.632352 0.896546 0.186913
H27   H     H_    0.764580 0.368667 0.716292 0.192532
H28   H     H_    0.536956 0.346031 0.284879 0.189952
O1    O     O_R   0.539900 0.091920 0.948590 -0.630639
O2    O     O_R   0.908310 0.551980 0.960300 -0.626535
O3    O     O_R   0.908280 0.357000 0.948510 -0.619530
O4    O     O_R   0.643340 0.091290 0.051390 -0.592988
O5    O     O_R   0.908310 0.459790 0.051330 -0.611727
O6    O     O_R   0.091510 0.448020 0.039520 -0.587149
O7    O     O_R   0.091540 0.550800 0.142340 -0.619510
O8    O     O_R   0.091520 0.540220 0.948490 -0.590396
O9    O     O_R   0.091540 0.643000 0.051310 -0.617621
O10   O     O_R   0.448270 0.091350 0.039630 -0.631954
O11   O     O_R   0.551710 0.090720 0.142430 -0.619021
O12   O     O_R   0.643360 0.554400 0.594170 -0.575474
O13   O     O_R   0.356660 0.908710 0.948610 -0.628886
O14   O     O_R   0.460100 0.908080 0.051410 -0.610227
O15   O     O_R   0.448290 0.909280 0.857570 -0.634674
O16   O     O_R   0.551730 0.908650 0.960370 -0.575109
O17   O     O_R   0.539910 0.450960 0.594180 -0.627088
O18   O     O_3   0.297646 0.727155 0.145732 -0.732159
O19   O     O_3   0.080832 0.651846 0.854183 -0.742741
O20   O     O_3   0.733719 0.648492 0.786731 -0.586491
O21   O     O_3   0.643351 0.350613 0.584235 -0.729411
O22   O     O_3   0.281186 0.543947 0.131932 -0.750455
O23   O     O_R   0.448310 0.360490 0.412110 -0.616562
O24   O     O_3   0.084250 0.445677 0.239219 -0.755306
O25   O     O_3   0.573962 0.233071 0.273626 -0.745364
O26   O     O_3   0.778892 0.122018 0.022391 -0.596560
O27   O     O_3   0.711048 0.372260 0.967366 -0.749827
O28   O     O_3   0.473501 0.725707 0.882501 -0.763052
O29   O     O_R   0.551750 0.463920 0.412090 -0.625636
O30   O     O_R   0.356690 0.452080 0.412090 -0.631002
O31   O     O_R   0.460130 0.555510 0.412070 -0.625441
O32   O     O_R   0.448290 0.542560 0.594160 -0.626151
O33   O     O_R   0.551730 0.645990 0.594150 -0.610854
O34   O     O_R   0.908290 0.449200 0.857490 -0.625669
Zn1   Zn    Zn3+2 0.430930 0.000420 0.931360 0.982638
Zn2   Zn    Zn3+2 0.569070 0.999580 0.068640 1.021048
Zn3   Zn    Zn3+2 0.430950 0.434180 0.503140 0.981072
Zn4   Zn    Zn3+2 0.569090 0.572300 0.503120 1.008817
Zn5   Zn    Zn3+2 0.999890 0.431370 0.931260 1.014649
Zn6   Zn    Zn3+2 0.999930 0.568630 0.068560 1.003253

loop_
_geom_bond_atom_site_label_1
_geom_bond_atom_site_label_2
_ccdc_geom_bond_type
H8    O19   S    
C16   O14   A    
C22   C29   A    
O3    Zn5   S    
C27   C29   A    
C1    O1    A    
C19   C23   S    
C35   C36   A    
H20   O27   S    
O14   Zn2   S    
C24   H26   S    
C42   H10   S    
C7    C8    A    
C4    O11   A    
C38   H28   S    
C6    H24   S    
C12   C23   A    
C26   C27   A    
C12   C41   A    
C42   O20   S    
C15   O30   A    
C13   C29   S    
O6    Zn5   S    
C20   O6    A    
C30   C31   A    
C10   H25   S    
C4    O10   A    
C15   O31   A    
C41   O26   S    
C13   O12   A    
C31   O22   S    
O15   Zn1   S    
O1    Zn1   S    
C40   O25   S    
H14   O22   S    
C14   O29   A    
C4    C40   S    
C8    C9    A    
C17   C48   S    
C9    C10   A    
C9    O19   S    
C12   H5    S    
C43   H17   S    
C39   H4    S    
C30   H2    S    
C16   O13   A    
C18   C25   S    
H7    O18   S    
C42   H9    S    
C8    C21   S    
O9    Zn6   S    
H16   O25   S    
C21   O9    A    
O30   Zn3   S    
O29   Zn4   S    
C14   O23   A    
C34   C44   A    
C24   C25   A    
C17   O32   A    
C6    C11   A    
O16   Zn2   S    
O11   Zn2   S    
H15   O24   S    
C2    C48   A    
C25   C26   A    
C46   O28   S    
C13   O17   A    
O32   Zn3   S    
C3    H23   S    
O31   Zn4   S    
C37   C38   D    
C14   C38   S    
C5    C28   S    
C37   H1    S    
C11   C16   S    
C47   C48   A    
C21   O8    A    
C18   O2    A    
C23   C34   A    
O4    Zn2   S    
C26   H27   S    
H13   O21   S    
C28   O16   A    
O17   Zn3   S    
C19   O3    A    
O33   Zn4   S    
O8    Zn5   S    
C35   H3    S    
C22   C24   A    
C15   C36   S    
C47   H12   S    
C44   C45   A    
C20   C32   S    
H21   O28   S    
C7    O18   S    
C46   C47   A    
C27   O21   S    
C22   O20   S    
O7    Zn6   S    
C31   C32   A    
O2    Zn6   S    
C18   O34   A    
C3    C5    A    
C17   O33   A    
C42   H11   S    
O23   Zn3   S    
C6    C7    A    
C5    C46   A    
O13   Zn1   S    
C34   O27   S    
C30   C36   A    
C33   O24   S    
C32   C33   A    
C2    C3    A    
C43   O26   S    
C37   C39   S    
C19   O5    A    
C1    C45   S    
C43   H18   S    
O5    Zn6   S    
C33   C35   A    
O10   Zn1   S    
C28   O15   A    
O12   Zn4   S    
C10   C11   A    
C39   C40   D    
C44   H6    S    
C43   H19   S    
C20   O7    A    
C1    O4    A    
C41   C45   A    
C2    H22   S    
O34   Zn5   S    
