data_mof_unit_12408.cif
_audit_creation_date              2012-12-11T14:56:09-0500
_audit_creation_method            fapswitch 2.2
_symmetry_space_group_name_H-M    P1
_symmetry_Int_Tables_number       1
_space_group_crystal_system       triclinic
_cell_length_a                    28.250774
_cell_length_b                    17.430226
_cell_length_c                    18.331793
_cell_angle_alpha                 90.165375
_cell_angle_beta                  138.741914
_cell_angle_gamma                 89.877675
_cell_volume                      5952.77732077

loop_
_atom_site_label
_atom_site_type_symbol
_atom_type_description
_atom_site_fract_x
_atom_site_fract_y
_atom_site_fract_z
_atom_type_partial_charge
C1    C     C_R   0.686457 0.899591 0.806149 -0.106774
C2    C     C_R   0.331141 0.077935 0.182858 -0.101996
C3    C     C_R   0.313652 0.899744 0.193529 -0.105965
C4    C     C_R   0.667771 0.077412 0.816799 -0.102430
C5    C     C_R   0.186457 0.399592 0.806149 -0.106774
C6    C     C_R   0.831141 0.577935 0.182858 -0.101998
C7    C     C_R   0.813652 0.399744 0.193529 -0.105969
C8    C     C_R   0.167771 0.577412 0.816799 -0.102426
C9    C     C_3   0.729869 0.296527 0.978340 -0.005479
C10   C     C_3   0.234320 0.659651 0.046652 0.018730
C11   C     C_3   0.269492 0.296862 0.021226 -0.005095
C12   C     C_3   0.765093 0.659541 0.953088 0.018886
C13   C     C_3   0.229867 0.796528 0.978338 -0.005476
C14   C     C_3   0.734317 0.159652 0.046652 0.018733
C15   C     C_3   0.769489 0.796862 0.021225 -0.005096
C16   C     C_3   0.265091 0.159541 0.953087 0.018887
C17   C     C_R   0.729042 0.769553 0.639102 0.182230
C18   C     C_R   0.311335 0.209883 0.485791 0.085204
C19   C     C_R   0.271606 0.770373 0.363909 0.182042
C20   C     C_R   0.689851 0.210300 0.517803 0.086225
C21   C     C_R   0.229042 0.269553 0.639101 0.182230
C22   C     C_R   0.811336 0.709883 0.485792 0.085204
C23   C     C_R   0.771606 0.270373 0.363909 0.182042
C24   C     C_R   0.189851 0.710300 0.517803 0.086225
C25   C     C_R   0.310455 0.320814 0.562708 -0.198744
C26   C     C_R   0.749008 0.651283 0.596775 -0.311136
C27   C     C_R   0.692043 0.321829 0.443918 -0.198686
C28   C     C_R   0.251077 0.652164 0.404767 -0.311388
C29   C     C_R   0.810455 0.820814 0.562709 -0.198742
C30   C     C_R   0.249007 0.151283 0.596774 -0.311137
C31   C     C_R   0.192043 0.821829 0.443917 -0.198687
C32   C     C_R   0.751076 0.152164 0.404766 -0.311388
C33   C     C_R   0.314798 0.290245 0.497765 -0.045900
C34   C     C_R   0.722063 0.688938 0.627363 -0.050008
C35   C     C_R   0.687062 0.290733 0.507680 -0.044910
C36   C     C_R   0.277849 0.689692 0.374072 -0.049013
C37   C     C_R   0.814798 0.790244 0.497766 -0.045901
C38   C     C_R   0.222062 0.188938 0.627362 -0.050009
C39   C     C_R   0.187062 0.790733 0.507679 -0.044909
C40   C     C_R   0.777849 0.189692 0.374071 -0.049010
C41   C     C_R   0.290832 0.162998 0.520672 -0.173099
C42   C     C_R   0.778940 0.805780 0.651480 -0.229199
C43   C     C_R   0.710009 0.163648 0.482006 -0.172252
C44   C     C_R   0.223174 0.807343 0.354511 -0.227983
C45   C     C_R   0.790833 0.662998 0.520674 -0.173099
C46   C     C_R   0.278940 0.305780 0.651480 -0.229199
C47   C     C_R   0.210009 0.663648 0.482007 -0.172252
C48   C     C_R   0.723174 0.307344 0.354511 -0.227984
C49   C     C_R   0.277990 0.195029 0.573317 0.178994
C50   C     C_R   0.792590 0.773318 0.600613 0.089230
C51   C     C_R   0.723020 0.195992 0.429944 0.178813
C52   C     C_R   0.209385 0.774560 0.404813 0.089699
C53   C     C_R   0.777990 0.695029 0.573318 0.178994
C54   C     C_R   0.292590 0.273318 0.600612 0.089231
C55   C     C_R   0.223020 0.695992 0.429944 0.178813
C56   C     C_R   0.709385 0.274560 0.404814 0.089699
C57   C     C_R   0.330240 0.097461 0.425032 0.696689
C58   C     C_R   0.677154 0.898027 0.607847 0.653646
C59   C     C_R   0.670096 0.097607 0.576164 0.696778
C60   C     C_R   0.322907 0.898069 0.392343 0.652307
C61   C     C_R   0.830240 0.597461 0.425032 0.696689
C62   C     C_R   0.177154 0.398027 0.607847 0.653646
C63   C     C_R   0.170096 0.597607 0.576164 0.696777
C64   C     C_R   0.822907 0.398069 0.392343 0.652307
C65   C     C_R   0.403468 0.804584 0.486031 0.675247
C66   C     C_R   0.588903 0.191281 0.488871 0.617887
C67   C     C_R   0.596628 0.804468 0.514246 0.677214
C68   C     C_R   0.411402 0.191154 0.512299 0.619581
C69   C     C_R   0.903468 0.304584 0.486031 0.675247
C70   C     C_R   0.088903 0.691281 0.488871 0.617886
C71   C     C_R   0.096628 0.304468 0.514246 0.677214
C72   C     C_R   0.911402 0.691154 0.512299 0.619582
C73   C     C_R   0.584454 0.170045 0.726282 -0.105010
C74   C     C_R   0.398783 0.809432 0.282619 -0.025352
C75   C     C_R   0.414959 0.169830 0.273222 -0.102698
C76   C     C_R   0.601204 0.809579 0.717245 -0.023694
C77   C     C_R   0.084454 0.670045 0.726282 -0.105017
C78   C     C_R   0.898782 0.309431 0.282619 -0.025352
C79   C     C_R   0.914958 0.669830 0.273222 -0.102695
C80   C     C_R   0.101204 0.309579 0.717246 -0.023693
C81   C     C_R   0.671465 0.826622 0.812495 -0.008923
C82   C     C_R   0.356590 0.138231 0.171115 0.038968
C83   C     C_R   0.328624 0.826684 0.187080 -0.009807
C84   C     C_R   0.642103 0.137912 0.828306 0.039844
C85   C     C_R   0.171465 0.326622 0.812496 -0.008923
C86   C     C_R   0.856590 0.638232 0.171115 0.038969
C87   C     C_R   0.828624 0.326684 0.187081 -0.009806
C88   C     C_R   0.142103 0.637912 0.828306 0.039844
C89   C     C_R   0.344908 0.171818 0.463488 -0.377119
C90   C     C_R   0.669572 0.819872 0.591974 -0.312968
C91   C     C_R   0.655689 0.172059 0.538661 -0.379322
C92   C     C_R   0.330584 0.820066 0.408622 -0.311738
C93   C     C_R   0.844909 0.671818 0.463489 -0.377121
C94   C     C_R   0.169572 0.319872 0.591974 -0.312968
C95   C     C_R   0.155689 0.672059 0.538661 -0.379321
C96   C     C_R   0.830584 0.320066 0.408622 -0.311737
C97   C     C_3   0.665429 0.257997 0.940985 -0.148696
C98   C     C_3   0.298889 0.698540 0.084414 -0.224877
C99   C     C_3   0.334075 0.257822 0.059287 -0.148237
C100  C     C_3   0.700378 0.698923 0.914615 -0.224221
C101  C     C_3   0.165429 0.757995 0.940987 -0.148695
C102  C     C_3   0.798889 0.198537 0.084417 -0.224872
C103  C     C_3   0.834074 0.757823 0.059289 -0.148237
C104  C     C_3   0.200378 0.198925 0.914617 -0.224224
C105  C     C_3   0.213866 0.735147 0.062563 -0.094066
C106  C     C_3   0.750997 0.222053 0.964145 -0.231550
C107  C     C_3   0.786077 0.734673 0.937864 -0.094709
C108  C     C_3   0.247847 0.222728 0.034766 -0.231655
C109  C     C_3   0.713863 0.235149 0.062560 -0.094071
C110  C     C_3   0.250995 0.722056 0.964140 -0.231553
C111  C     C_3   0.286076 0.234671 0.937862 -0.094707
C112  C     C_3   0.747846 0.722726 0.034763 -0.231657
C113  C     C_3   0.277382 0.773882 0.097404 0.102404
C114  C     C_3   0.687083 0.182765 0.927900 0.106981
C115  C     C_3   0.722411 0.773938 0.902299 0.102430
C116  C     C_3   0.311881 0.182943 0.071687 0.106776
C117  C     C_3   0.777382 0.273882 0.097405 0.102402
C118  C     C_3   0.187083 0.682765 0.927900 0.106980
C119  C     C_3   0.222411 0.273939 0.902299 0.102429
C120  C     C_3   0.811881 0.682943 0.071687 0.106777
H1    H     H_    0.738939 0.925431 0.861441 0.160136
H2    H     H_    0.282096 0.046211 0.117402 0.116102
H3    H     H_    0.261171 0.925597 0.138279 0.159169
H4    H     H_    0.716556 0.045456 0.882486 0.115649
H5    H     H_    0.238939 0.425431 0.861441 0.160136
H6    H     H_    0.782096 0.546211 0.117402 0.116100
H7    H     H_    0.761171 0.425597 0.138279 0.159166
H8    H     H_    0.216556 0.545456 0.882486 0.115648
H9    H     H_    0.815781 0.882226 0.577025 0.180620
H10   H     H_    0.241756 0.089874 0.582094 0.160193
H11   H     H_    0.187308 0.883358 0.431060 0.179328
H12   H     H_    0.757668 0.090636 0.418033 0.160098
H13   H     H_    0.315781 0.382226 0.577024 0.180620
H14   H     H_    0.741756 0.589874 0.582095 0.160193
H15   H     H_    0.687308 0.383358 0.431061 0.179328
H16   H     H_    0.257669 0.590636 0.418034 0.160098
H17   H     H_    0.558046 0.223039 0.709329 0.199262
H18   H     H_    0.424441 0.753882 0.309525 0.189044
H19   H     H_    0.442296 0.221968 0.290425 0.196926
H20   H     H_    0.575051 0.754379 0.690701 0.188760
H21   H     H_    0.058046 0.723039 0.709329 0.199262
H22   H     H_    0.924441 0.253881 0.309526 0.189044
H23   H     H_    0.942295 0.721968 0.290426 0.196925
H24   H     H_    0.075051 0.254379 0.690701 0.188759
H25   H     H_    0.200537 0.741758 0.105838 0.158301
H26   H     H_    0.765291 0.216489 0.922084 0.152248
H27   H     H_    0.799876 0.740793 0.895233 0.157119
H28   H     H_    0.233113 0.217599 0.076208 0.152414
H29   H     H_    0.700533 0.241762 0.105832 0.158300
H30   H     H_    0.265287 0.716494 0.922077 0.152247
H31   H     H_    0.299873 0.240790 0.895228 0.157120
H32   H     H_    0.733110 0.717596 0.076204 0.152414
H33   H     H_    0.610177 0.281413 0.881326 0.167251
H34   H     H_    0.353846 0.674372 0.143690 0.159613
H35   H     H_    0.389407 0.281070 0.119401 0.166796
H36   H     H_    0.645352 0.674889 0.854891 0.159668
H37   H     H_    0.110176 0.781410 0.881330 0.167251
H38   H     H_    0.853845 0.174368 0.143696 0.159615
H39   H     H_    0.889406 0.781073 0.119403 0.166796
H40   H     H_    0.145352 0.174891 0.854894 0.159668
H41   H     H_    0.791414 0.866003 0.671532 0.212722
H42   H     H_    0.286774 0.101290 0.510042 0.168882
H43   H     H_    0.211742 0.867886 0.336552 0.210347
H44   H     H_    0.713421 0.101846 0.491138 0.168179
H45   H     H_    0.291413 0.366002 0.671532 0.212723
H46   H     H_    0.786775 0.601289 0.510043 0.168882
H47   H     H_    0.711742 0.367887 0.336553 0.210346
H48   H     H_    0.213422 0.601846 0.491139 0.168180
N1    N     N_R   0.625380 0.928280 0.709340 -0.053882
N2    N     N_R   0.374620 0.071720 0.290660 -0.050961
N3    N     N_R   0.374620 0.928280 0.290660 -0.053825
N4    N     N_R   0.625380 0.071720 0.709340 -0.050861
N5    N     N_R   0.125380 0.428280 0.709340 -0.053882
N6    N     N_R   0.874620 0.571720 0.290660 -0.050961
N7    N     N_R   0.874620 0.428280 0.290660 -0.053824
N8    N     N_R   0.125380 0.571720 0.709340 -0.050862
N9    N     N_R   0.386100 0.070250 0.452470 -0.152219
N10   N     N_R   0.613900 0.929750 0.547530 -0.153905
N11   N     N_R   0.613900 0.070250 0.547530 -0.152558
N12   N     N_R   0.386100 0.929750 0.452470 -0.154759
N13   N     N_R   0.886100 0.570250 0.452470 -0.152219
N14   N     N_R   0.113900 0.429750 0.547530 -0.153905
N15   N     N_R   0.113900 0.570250 0.547530 -0.152558
N16   N     N_R   0.886100 0.429750 0.452470 -0.154759
N17   N     N_R   0.437800 0.869550 0.507970 -0.159528
N18   N     N_R   0.562200 0.130450 0.492030 -0.146062
N19   N     N_R   0.562200 0.869550 0.492030 -0.159112
N20   N     N_R   0.437800 0.130450 0.507970 -0.145629
N21   N     N_R   0.937800 0.369550 0.507970 -0.159528
N22   N     N_R   0.062200 0.630450 0.492030 -0.146062
N23   N     N_R   0.062200 0.369550 0.492030 -0.159112
N24   N     N_R   0.937800 0.630450 0.507970 -0.145629
N25   N     N_R   0.573690 0.128980 0.653840 -0.053222
N26   N     N_R   0.426310 0.871020 0.346160 -0.067223
N27   N     N_R   0.426310 0.128980 0.346160 -0.052758
N28   N     N_R   0.573690 0.871020 0.653840 -0.067531
N29   N     N_R   0.073690 0.628980 0.653840 -0.053221
N30   N     N_R   0.926310 0.371020 0.346160 -0.067224
N31   N     N_R   0.926310 0.628980 0.346160 -0.052758
N32   N     N_R   0.073690 0.371020 0.653840 -0.067531
Ni1   Ni    Ni4+2 0.616560 1.000000 0.627280 0.280116
Ni2   Ni    Ni4+2 0.383440 0.000000 0.372720 0.279864
Ni3   Ni    Ni4+2 0.116560 0.500000 0.627280 0.280116
Ni4   Ni    Ni4+2 0.883440 0.500000 0.372720 0.279863
Ni5   Ni    Ni4+2 0.497990 0.870580 0.500000 0.288948
Ni6   Ni    Ni4+2 0.502010 0.129420 0.500000 0.286674
Ni7   Ni    Ni4+2 0.997990 0.370580 0.500000 0.288948
Ni8   Ni    Ni4+2 0.002010 0.629420 0.500000 0.286674
F1    F     F_    0.266114 0.061776 0.357689 -0.642055
F2    F     F_    0.738490 0.930817 0.703760 -0.650156
F3    F     F_    0.734259 0.061917 0.643763 -0.641383
F4    F     F_    0.261321 0.930560 0.296592 -0.648424
F5    F     F_    0.766114 0.561775 0.357690 -0.642055
F6    F     F_    0.238490 0.430817 0.703760 -0.650155
F7    F     F_    0.234259 0.561918 0.643764 -0.641383
F8    F     F_    0.761321 0.430560 0.296592 -0.648424
F9    F     F_    0.434656 0.734478 0.519507 -0.678559
F10   F     F_    0.558060 0.261623 0.453574 -0.697688
F11   F     F_    0.565460 0.734388 0.481140 -0.678556
F12   F     F_    0.442164 0.261527 0.547672 -0.698395
F13   F     F_    0.934656 0.234478 0.519507 -0.678558
F14   F     F_    0.058060 0.761623 0.453574 -0.697689
F15   F     F_    0.065460 0.234388 0.481140 -0.678556
F16   F     F_    0.942165 0.761527 0.547672 -0.698395
C121  C     C_2   0.728757 0.373313 0.940659 0.480418
H49   H     H_    0.777393 0.395849 0.972620 0.040552
O1    O     O_2   0.673471 0.410733 0.874393 -0.561380
C122  C     C_2   0.235254 0.582034 0.082102 0.505921
H50   H     H_    0.285335 0.550756 0.144708 0.084332
O2    O     O_2   0.179992 0.554180 0.041936 -0.585475
C123  C     C_2   0.270595 0.373938 0.058758 0.480386
H51   H     H_    0.221856 0.396855 0.026257 0.039984
O3    O     O_2   0.325991 0.411168 0.125499 -0.561677
C124  C     C_2   0.764146 0.581657 0.917738 0.506218
H52   H     H_    0.714033 0.550414 0.854997 0.084273
O4    O     O_2   0.819447 0.553508 0.958212 -0.585311
C125  C     C_2   0.228751 0.873315 0.940655 0.480414
H53   H     H_    0.277384 0.895851 0.972606 0.040556
O5    O     O_2   0.173466 0.910738 0.874402 -0.561382
C126  C     C_2   0.735247 0.082036 0.082099 0.505920
H54   H     H_    0.785327 0.050756 0.144706 0.084331
O6    O     O_2   0.679984 0.054184 0.041929 -0.585473
C127  C     C_2   0.770590 0.873936 0.058755 0.480390
H55   H     H_    0.721850 0.896853 0.026252 0.039980
O7    O     O_2   0.825986 0.911168 0.125499 -0.561678
C128  C     C_2   0.264141 0.081655 0.917736 0.506221
H56   H     H_    0.214028 0.050414 0.854995 0.084270
O8    O     O_2   0.319441 0.053505 0.958208 -0.585315
C129  C     C_2   0.687973 0.643382 0.646358 0.673786
H57   H     H_    0.677126 0.582819 0.625318 0.048783
O9    O     O_2   0.673292 0.672288 0.688207 -0.598721
C130  C     C_2   0.319649 0.342066 0.439394 0.695148
H58   H     H_    0.314204 0.319076 0.378278 0.025578
O10   O     O_2   0.328849 0.411006 0.457695 -0.589238
C131  C     C_2   0.311107 0.643908 0.353513 0.673553
H59   H     H_    0.321468 0.583221 0.373474 0.046489
O11   O     O_2   0.325629 0.672764 0.311574 -0.599516
C132  C     C_2   0.681916 0.342015 0.566364 0.694927
H60   H     H_    0.686500 0.318479 0.626226 0.024675
O12   O     O_2   0.673405 0.411109 0.549703 -0.590978
C133  C     C_2   0.187973 0.143381 0.646357 0.673787
H61   H     H_    0.177126 0.082819 0.625317 0.048783
O13   O     O_2   0.173292 0.172288 0.688206 -0.598721
C134  C     C_2   0.819649 0.842065 0.439394 0.695148
H62   H     H_    0.814204 0.819075 0.378279 0.025580
O14   O     O_2   0.828849 0.911006 0.457694 -0.589237
C135  C     C_2   0.811106 0.143908 0.353511 0.673548
H63   H     H_    0.821467 0.083221 0.373471 0.046489
O15   O     O_2   0.825628 0.172765 0.311573 -0.599516
C136  C     C_2   0.181916 0.842015 0.566363 0.694926
H64   H     H_    0.186500 0.818479 0.626225 0.024672
O16   O     O_2   0.173404 0.911109 0.549700 -0.590978

loop_
_geom_bond_atom_site_label_1
_geom_bond_atom_site_label_2
_ccdc_geom_bond_type
C78   C87   A    
C65   C92   A    
C14   C126  S    
C131  O11   D    
C65   N17   A    
C98   C110  S    
C46   H45   S    
C73   N25   A    
C14   C109  S    
C9    C117  S    
C83   C113  S    
C109  H29   S    
C103  C120  S    
N8    Ni3   S    
C32   H12   S    
C31   C52   A    
C69   C96   A    
C3    N3    A    
C102  H38   S    
C74   N26   A    
C42   H41   S    
C109  C117  S    
N7    N30   A    
N11   N18   A    
C26   H14   S    
C112  C120  S    
C12   C124  S    
C74   H18   S    
N20   Ni6   S    
C129  H57   S    
C13   C110  S    
N9    N20   A    
C124  O4    D    
C27   C35   A    
C106  C114  S    
N16   Ni4   S    
C101  C118  S    
C105  C113  S    
C68   F12   S    
N7    Ni4   S    
C87   C117  S    
N12   Ni2   S    
C19   C36   A    
C78   H22   S    
C62   C94   A    
C133  H61   S    
N13   N24   A    
C61   C93   A    
C14   C102  S    
C29   C37   A    
C21   C94   S    
C58   F2    S    
C1    C81   A    
C49   C54   A    
C72   F16   S    
C63   C95   A    
C24   C39   A    
C97   C109  S    
C23   C96   S    
C4    H4    S    
C111  C119  S    
C51   C56   A    
C1    N1    A    
N28   Ni5   S    
C85   C119  S    
C17   C42   A    
N31   Ni8   S    
C31   H11   S    
C19   C92   S    
C76   N28   A    
C70   F14   S    
C12   C120  S    
C20   C35   A    
C8    H8    S    
C29   H9    S    
C21   C38   A    
N11   Ni1   S    
C77   C88   A    
C3    H3    S    
C134  H62   S    
C59   F3    S    
C7    N7    A    
C127  H55   S    
N29   Ni8   S    
C9    C97   S    
C112  H32   S    
C77   N29   A    
N25   Ni6   S    
C44   H43   S    
C97   H33   S    
C34   C129  S    
C25   H13   S    
C45   H46   S    
C74   C83   A    
C73   C84   A    
C69   F13   S    
C39   C136  S    
C75   N27   A    
C105  H25   S    
C104  C119  S    
C5    C85   A    
C43   H44   S    
C100  H36   S    
C76   H20   S    
C11   C119  S    
C41   H42   S    
N5    N32   A    
C10   C122  S    
N24   Ni8   S    
C35   C132  S    
C46   C54   A    
N4    N25   A    
C100  C115  S    
C61   F5    S    
C104  H40   S    
N3    N26   A    
C16   C116  S    
C41   C49   A    
C122  H50   S    
C28   C55   A    
C67   N19   A    
C68   C89   A    
N1    N28   A    
C57   F1    S    
C29   C50   A    
C2    H2    S    
C101  C105  S    
C20   C91   S    
C128  O8    D    
C27   H15   S    
C129  O9    D    
C50   C53   A    
C71   F15   S    
C62   F6    S    
C68   N20   A    
N14   Ni3   S    
C36   C131  S    
N17   Ni5   S    
C63   N15   A    
C25   C54   A    
C6    H6    S    
C127  O7    D    
C18   C41   A    
C69   N21   A    
C99   C116  S    
C133  O13   D    
C15   C127  S    
N18   Ni6   S    
C27   C56   A    
C98   C113  S    
C13   C125  S    
C6    N6    A    
C80   H24   S    
C9    C106  S    
C14   C114  S    
C22   C37   A    
N1    Ni1   S    
C67   C90   A    
C132  H60   S    
C12   C100  S    
C99   H35   S    
C8    C88   A    
C8    N8    A    
C33   C130  S    
C132  O12   D    
C32   C51   A    
C80   C85   A    
C10   C118  S    
C79   H23   S    
C47   H48   S    
C62   N14   A    
C107  H27   S    
C130  O10   D    
C71   C94   A    
C11   C123  S    
C4    C84   A    
C135  H63   S    
C99   C111  S    
C81   C115  S    
C126  O6    D    
C121  H49   S    
N6    N31   A    
C58   N10   A    
N23   Ni7   S    
C110  C118  S    
C58   C90   A    
C107  C115  S    
C102  C117  S    
C57   C89   A    
C42   C50   A    
N10   N19   A    
N22   Ni8   S    
C123  H51   S    
C30   C49   A    
C2    N2    A    
C100  C112  S    
N32   Ni7   S    
C16   C104  S    
C125  O5    D    
C108  C116  S    
C3    C83   A    
C122  O2    D    
C22   C93   S    
C136  O16   D    
C38   C133  S    
N13   Ni4   S    
C124  H52   S    
C72   C93   A    
N16   N21   A    
C88   C118  S    
C131  H59   S    
N15   N22   A    
C6    C86   A    
C104  C108  S    
C20   C43   A    
N9    Ni2   S    
C19   C44   A    
C70   N22   A    
C103  H39   S    
C47   C55   A    
C21   C46   A    
C59   C91   A    
N6    Ni4   S    
C48   C56   A    
N26   Ni5   S    
C128  H56   S    
C71   N23   A    
C84   C114  S    
C23   C48   A    
C4    N4    A    
C79   N31   A    
C26   C34   A    
N30   Ni7   S    
C28   H16   S    
C18   C89   S    
C5    N5    A    
C15   C112  S    
C64   F8    S    
C60   F4    S    
C17   C90   S    
C110  H30   S    
C75   H19   S    
C111  H31   S    
C76   C81   A    
C12   C107  S    
C9    C121  S    
N19   Ni5   S    
C52   C55   A    
C75   C82   A    
C66   C91   A    
C44   C52   A    
C16   C128  S    
C60   N12   A    
C10   C98   S    
C26   C53   A    
C61   N13   A    
C106  H26   S    
N8    N29   A    
N5    Ni3   S    
C103  C107  S    
C63   F7    S    
C24   C47   A    
N3    Ni2   S    
C67   F11   S    
C70   C95   A    
C37   C134  S    
C82   C116  S    
C66   F10   S    
C66   N18   A    
C30   H10   S    
C24   C95   S    
C57   N9    A    
C98   H34   S    
C135  O15   D    
N27   Ni6   S    
C43   C51   A    
C17   C34   A    
N2    N27   A    
C48   H47   S    
C73   H17   S    
N21   Ni7   S    
C11   C99   S    
C59   N11   A    
C126  H54   S    
C121  O1    D    
C31   C39   A    
C102  C106  S    
C64   C96   A    
C15   C115  S    
C32   C40   A    
N4    Ni1   S    
C18   C33   A    
C1    H1    S    
N2    Ni2   S    
C2    C82   A    
N12   N17   A    
C123  O3    D    
C45   C53   A    
C64   N16   A    
C40   C135  S    
C15   C103  S    
C13   C113  S    
C22   C45   A    
C7    C87   A    
C28   C36   A    
C77   H21   S    
C134  O14   D    
N14   N23   A    
N10   Ni1   S    
C5    H5    S    
C11   C108  S    
C136  H64   S    
C10   C105  S    
C86   C120  S    
N15   Ni3   S    
C78   N30   A    
C30   C38   A    
C7    H7    S    
C97   C114  S    
C125  H53   S    
C60   C92   A    
C13   C101  S    
C65   F9    S    
C72   N24   A    
C79   C86   A    
C101  H37   S    
C23   C40   A    
C16   C111  S    
C25   C33   A    
C130  H58   S    
C108  H28   S    
C80   N32   A    
