data_mof_unit_43856.cif
_audit_creation_date              2012-12-10T20:53:10-0500
_audit_creation_method            fapswitch 2.2
_symmetry_space_group_name_H-M    P1
_symmetry_Int_Tables_number       1
_space_group_crystal_system       triclinic
_cell_length_a                    18.334356
_cell_length_b                    18.333084
_cell_length_c                    18.334267
_cell_angle_alpha                 59.824518
_cell_angle_beta                  59.820257
_cell_angle_gamma                 59.821915
_cell_volume                      4340.04096488

loop_
_atom_site_label
_atom_site_type_symbol
_atom_type_description
_atom_site_fract_x
_atom_site_fract_y
_atom_site_fract_z
_atom_type_partial_charge
C1    C     C_R   0.389929 0.110184 0.110155 0.788128
C2    C     C_R   0.448064 0.748183 0.708458 -0.147378
C3    C     C_R   0.039597 0.518799 0.905929 0.072921
C4    C     C_R   0.464793 0.960432 0.094175 0.074166
C5    C     C_R   0.535212 0.039569 0.905823 0.074151
C6    C     C_R   0.945940 0.945938 0.553852 -0.151899
C7    C     C_R   0.054060 0.054062 0.446148 -0.151895
C8    C     C_R   0.945939 0.553859 0.945940 -0.151904
C9    C     C_R   0.054062 0.446140 0.054059 -0.151902
C10   C     C_R   0.553871 0.945938 0.945938 -0.151775
C11   C     C_R   0.446129 0.054063 0.054061 -0.151776
C12   C     C_3   0.084122 0.649244 0.492055 -0.770163
C13   C     C_R   0.251267 0.291188 0.552428 -0.147061
C14   C     C_3   0.915920 0.350763 0.507869 -0.770112
C15   C     C_3   0.649423 0.491607 0.084174 -0.770318
C16   C     C_3   0.350580 0.508391 0.915824 -0.770321
C17   C     C_3   0.491124 0.084096 0.649778 -0.770300
C18   C     C_3   0.508886 0.915909 0.350211 -0.770303
C19   C     C_R   0.748733 0.708817 0.447556 -0.147049
C20   C     C_R   0.225391 0.524682 0.331846 -0.162645
C21   C     C_R   0.774601 0.475325 0.668136 -0.162595
C22   C     C_R   0.524400 0.331610 0.225380 -0.162507
C23   C     C_R   0.475601 0.668392 0.774618 -0.162503
C24   C     C_R   0.331182 0.225165 0.524802 -0.162434
C25   C     C_R   0.668819 0.774839 0.475188 -0.162436
C26   C     C_R   0.137014 0.557104 0.334149 0.166313
C27   C     C_R   0.610071 0.889816 0.889844 0.788126
C28   C     C_R   0.862974 0.442906 0.665844 0.166264
C29   C     C_R   0.557172 0.334064 0.136893 0.166946
C30   C     C_R   0.442828 0.665937 0.863106 0.166944
C31   C     C_R   0.333847 0.136627 0.557391 0.167132
C32   C     C_R   0.666155 0.863375 0.442607 0.167133
C33   C     C_R   0.115816 0.616866 0.255593 -0.119859
C34   C     C_R   0.884166 0.383146 0.744404 -0.119854
C35   C     C_R   0.617241 0.255618 0.115563 -0.120471
C36   C     C_R   0.382758 0.744382 0.884438 -0.120473
C37   C     C_R   0.255487 0.115111 0.617368 -0.120629
C38   C     C_R   0.110187 0.110151 0.389933 0.788012
C39   C     C_R   0.744514 0.884892 0.382634 -0.120614
C40   C     C_R   0.182458 0.643438 0.175729 -0.113124
C41   C     C_R   0.817520 0.356576 0.824265 -0.113123
C42   C     C_R   0.643819 0.175725 0.182172 -0.113428
C43   C     C_R   0.356180 0.824277 0.817829 -0.113428
C44   C     C_R   0.175472 0.181583 0.644035 -0.113421
C45   C     C_R   0.824528 0.818421 0.355962 -0.113439
C46   C     C_R   0.270233 0.611289 0.174054 -0.085095
C47   C     C_R   0.729748 0.388724 0.825930 -0.085114
C48   C     C_R   0.611339 0.173908 0.270052 -0.084652
C49   C     C_R   0.889813 0.889849 0.610067 0.788011
C50   C     C_R   0.388662 0.826095 0.729947 -0.084649
C51   C     C_R   0.173442 0.269515 0.611733 -0.084388
C52   C     C_R   0.826558 0.730491 0.388255 -0.084404
C53   C     C_R   0.013352 0.580420 0.474258 0.151668
C54   C     C_R   0.986639 0.419586 0.525736 0.151693
C55   C     C_R   0.580493 0.474171 0.013247 0.151638
C56   C     C_R   0.419507 0.525829 0.986752 0.151637
C57   C     C_R   0.474067 0.013138 0.580584 0.151595
C58   C     C_R   0.525934 0.986863 0.419415 0.151596
C59   C     C_R   0.946404 0.552962 0.554630 -0.121042
C60   C     C_R   0.110153 0.389933 0.110183 0.788080
C61   C     C_R   0.053592 0.447040 0.445367 -0.121012
C62   C     C_R   0.552979 0.554612 0.946390 -0.121179
C63   C     C_R   0.447021 0.445388 0.053609 -0.121182
C64   C     C_R   0.554612 0.946400 0.552978 -0.121274
C65   C     C_R   0.445389 0.053601 0.447021 -0.121273
C66   C     C_R   0.933614 0.472002 0.581382 -0.137351
C67   C     C_R   0.066380 0.528002 0.418614 -0.137324
C68   C     C_R   0.471951 0.581443 0.933699 -0.137151
C69   C     C_R   0.528049 0.418558 0.066300 -0.137153
C70   C     C_R   0.581541 0.933822 0.471857 -0.137213
C71   C     C_R   0.889848 0.610066 0.889816 0.788082
C72   C     C_R   0.418459 0.066179 0.528142 -0.137211
C73   C     C_R   0.110430 0.390205 0.389858 0.845650
C74   C     C_R   0.889571 0.609795 0.610142 0.845687
C75   C     C_R   0.390201 0.389864 0.110422 0.845765
C76   C     C_R   0.609799 0.610136 0.889578 0.845765
C77   C     C_R   0.389864 0.110412 0.390202 0.845510
C78   C     C_R   0.610136 0.889588 0.609798 0.845511
C79   C     C_R   0.187807 0.919701 0.463301 -0.147012
C80   C     C_R   0.812194 0.080297 0.536693 -0.147017
C81   C     C_R   0.919609 0.462418 0.187907 -0.147036
C82   C     C_R   0.291576 0.552237 0.252088 -0.147631
C83   C     C_R   0.080392 0.537580 0.812093 -0.147044
C84   C     C_R   0.430513 0.919741 0.188055 -0.157150
C85   C     C_R   0.569506 0.080260 0.811944 -0.157142
C86   C     C_R   0.226218 0.827223 0.498467 -0.144537
C87   C     C_R   0.773782 0.172776 0.501531 -0.144548
C88   C     C_R   0.827089 0.497181 0.226367 -0.144654
C89   C     C_R   0.172913 0.502815 0.773633 -0.144658
C90   C     C_R   0.450344 0.827206 0.226699 -0.141825
C91   C     C_R   0.549692 0.172798 0.773298 -0.141806
C92   C     C_R   0.172459 0.773585 0.552380 -0.141452
C93   C     C_R   0.708411 0.447773 0.747891 -0.147641
C94   C     C_R   0.827541 0.226414 0.447629 -0.141453
C95   C     C_R   0.773456 0.551136 0.172609 -0.141538
C96   C     C_R   0.226545 0.448859 0.827390 -0.141535
C97   C     C_R   0.504343 0.773440 0.173062 -0.144217
C98   C     C_R   0.495690 0.226566 0.826933 -0.144219
C99   C     C_R   0.080037 0.812134 0.571256 -0.156754
C100  C     C_R   0.919962 0.187866 0.428758 -0.156746
C101  C     C_R   0.812050 0.570446 0.080139 -0.156877
C102  C     C_R   0.187951 0.429550 0.919860 -0.156877
C103  C     C_R   0.538623 0.811957 0.080490 -0.146807
C104  C     C_R   0.551938 0.251821 0.291540 -0.147381
C105  C     C_R   0.461391 0.188046 0.919507 -0.146798
C106  C     C_R   0.039449 0.905926 0.536130 0.073995
C107  C     C_R   0.960551 0.094074 0.463875 0.074000
C108  C     C_R   0.905881 0.535705 0.039502 0.074100
C109  C     C_R   0.094120 0.464294 0.960497 0.074100
C110  C     C_R   0.519324 0.905858 0.039651 0.072828
C111  C     C_R   0.480680 0.094144 0.960347 0.072818
C112  C     C_R   0.094018 0.960452 0.481645 0.072873
C113  C     C_R   0.905982 0.039548 0.518354 0.072876
C114  C     C_R   0.960404 0.481200 0.094070 0.072919
H1    H     H_    0.797549 0.298234 0.420443 0.128486
H2    H     H_    0.041434 0.579395 0.767540 0.110438
H3    H     H_    0.388476 0.958788 0.232531 0.117870
H4    H     H_    0.611545 0.041212 0.767468 0.117872
H5    H     H_    0.298015 0.797094 0.483722 0.122701
H6    H     H_    0.701985 0.202904 0.516271 0.122703
H7    H     H_    0.796925 0.482102 0.298200 0.122601
H8    H     H_    0.203077 0.517893 0.701799 0.122600
H9    H     H_    0.423819 0.797136 0.298589 0.128473
H10   H     H_    0.576233 0.202868 0.701407 0.128470
H11   H     H_    0.041007 0.767645 0.613223 0.118024
H12   H     H_    0.202450 0.701765 0.579571 0.128486
H13   H     H_    0.958992 0.232355 0.386801 0.118015
H14   H     H_    0.767570 0.612447 0.041106 0.117873
H15   H     H_    0.232431 0.387549 0.958894 0.117874
H16   H     H_    0.580471 0.767403 0.041524 0.110257
H17   H     H_    0.419542 0.232601 0.958473 0.110257
H18   H     H_    0.321686 0.632221 0.112410 0.117777
H19   H     H_    0.678291 0.367793 0.887571 0.117785
H20   H     H_    0.632272 0.112246 0.321482 0.117566
H21   H     H_    0.367730 0.887758 0.678517 0.117566
H22   H     H_    0.111681 0.320841 0.632729 0.117528
H23   H     H_    0.298396 0.421967 0.797362 0.128218
H24   H     H_    0.888318 0.679167 0.367254 0.117524
H25   H     H_    0.359329 0.528221 0.250793 0.115464
H26   H     H_    0.640660 0.471788 0.749179 0.115462
H27   H     H_    0.527631 0.250406 0.359389 0.115242
H28   H     H_    0.472373 0.749599 0.640608 0.115240
H29   H     H_    0.249683 0.359077 0.528262 0.115260
H30   H     H_    0.750317 0.640930 0.471715 0.115253
H31   H     H_    0.242775 0.478783 0.391720 0.105736
H32   H     H_    0.757222 0.521221 0.608258 0.105734
H33   H     H_    0.478228 0.391392 0.242869 0.105719
H34   H     H_    0.701605 0.578025 0.202639 0.128213
H35   H     H_    0.521774 0.608611 0.757128 0.105720
H36   H     H_    0.390892 0.242802 0.478698 0.105510
H37   H     H_    0.609109 0.757201 0.521289 0.105509
H38   H     H_    0.048000 0.642171 0.256223 0.110644
H39   H     H_    0.951979 0.357841 0.743781 0.110656
H40   H     H_    0.642802 0.256362 0.047663 0.110519
H41   H     H_    0.357195 0.743637 0.952338 0.110517
H42   H     H_    0.256385 0.047176 0.642778 0.110471
H43   H     H_    0.743617 0.952825 0.357230 0.110471
H44   H     H_    0.166061 0.689063 0.115188 0.119529
H45   H     H_    0.480225 0.298449 0.796732 0.122399
H46   H     H_    0.833912 0.310952 0.884809 0.119529
H47   H     H_    0.689705 0.115272 0.165667 0.119537
H48   H     H_    0.310293 0.884730 0.834334 0.119537
H49   H     H_    0.115088 0.164933 0.689845 0.119693
H50   H     H_    0.884912 0.835071 0.310154 0.119686
H51   H     H_    0.044103 0.697458 0.383603 0.227930
H52   H     H_    0.087606 0.715322 0.473779 0.243853
H53   H     H_    0.152928 0.603647 0.468367 0.226459
H54   H     H_    0.056017 0.621755 0.566141 0.219190
H55   H     H_    0.955821 0.302577 0.616394 0.227933
H56   H     H_    0.519820 0.701558 0.203262 0.122404
H57   H     H_    0.912353 0.284703 0.526224 0.243830
H58   H     H_    0.944137 0.378126 0.433782 0.219178
H59   H     H_    0.847135 0.396463 0.531419 0.226417
H60   H     H_    0.697662 0.383453 0.043689 0.227808
H61   H     H_    0.715548 0.473331 0.087548 0.243971
H62   H     H_    0.603975 0.467661 0.152995 0.226584
H63   H     H_    0.621783 0.565714 0.056340 0.219262
H64   H     H_    0.302339 0.616546 0.956308 0.227808
H65   H     H_    0.284455 0.526667 0.912449 0.243972
H66   H     H_    0.378219 0.434284 0.943659 0.219262
H67   H     H_    0.232364 0.958660 0.421517 0.110646
H68   H     H_    0.396028 0.532337 0.847003 0.226583
H69   H     H_    0.383228 0.043297 0.697878 0.227795
H70   H     H_    0.472687 0.087458 0.715954 0.244167
H71   H     H_    0.467113 0.152910 0.604360 0.226520
H72   H     H_    0.565248 0.056388 0.622187 0.219141
H73   H     H_    0.616776 0.956714 0.302118 0.227797
H74   H     H_    0.527328 0.912550 0.284033 0.244171
H75   H     H_    0.434763 0.943614 0.377799 0.219143
H76   H     H_    0.532898 0.847094 0.395628 0.226520
H77   H     H_    0.767637 0.041339 0.578470 0.110649
H78   H     H_    0.958567 0.420603 0.232460 0.110435
N1    N     N_2   0.027982 0.660229 0.450785 -0.269791
N2    N     N_2   0.971997 0.339783 0.549206 -0.269798
N3    N     N_2   0.660361 0.450623 0.027800 -0.269793
N4    N     N_2   0.339640 0.549376 0.972198 -0.269792
N5    N     N_2   0.450394 0.027584 0.660555 -0.269639
N6    N     N_2   0.549610 0.972422 0.339441 -0.269639
O1    O     O_3   0.250000 0.250000 0.250000 -0.496344
O2    O     O_R   0.865800 0.694910 0.573470 -0.605795
O3    O     O_R   0.305090 0.426530 0.134200 -0.605889
O4    O     O_R   0.694910 0.573470 0.865800 -0.605891
O5    O     O_R   0.426530 0.134200 0.305090 -0.605790
O6    O     O_R   0.573470 0.865800 0.694910 -0.605791
O7    O     O_R   0.134190 0.426530 0.134200 -0.635906
O8    O     O_R   0.865810 0.573470 0.865800 -0.635907
O9    O     O_R   0.426530 0.134200 0.134190 -0.635848
O10   O     O_R   0.573470 0.865800 0.865810 -0.635847
O11   O     O_R   0.134200 0.134190 0.426530 -0.635871
O12   O     O_3   0.750000 0.750000 0.750000 -0.496343
O13   O     O_R   0.865800 0.865810 0.573470 -0.635877
O14   O     O_R   0.426530 0.305080 0.134210 -0.646633
O15   O     O_R   0.573470 0.694920 0.865790 -0.646632
O16   O     O_R   0.305080 0.134210 0.426530 -0.646650
O17   O     O_R   0.694920 0.865790 0.573470 -0.646656
O18   O     O_R   0.134210 0.426530 0.305080 -0.646797
O19   O     O_R   0.865790 0.573470 0.694920 -0.646799
O20   O     O_R   0.305080 0.134200 0.134200 -0.634793
O21   O     O_R   0.694920 0.865800 0.865800 -0.634794
O22   O     O_R   0.134200 0.134200 0.305080 -0.634807
O23   O     O_R   0.865800 0.865800 0.694920 -0.634807
O24   O     O_R   0.134200 0.305080 0.134200 -0.634837
O25   O     O_R   0.865800 0.694920 0.865800 -0.634837
O26   O     O_R   0.134200 0.305090 0.426530 -0.605794
Zn1   Zn    Zn3+2 0.206620 0.206630 0.380140 0.971971
Zn2   Zn    Zn3+2 0.793380 0.793370 0.619860 0.971974
Zn3   Zn    Zn3+2 0.206630 0.380140 0.206620 0.971853
Zn4   Zn    Zn3+2 0.793370 0.619860 0.793380 0.971858
Zn5   Zn    Zn3+2 0.380140 0.206620 0.206630 0.972016
Zn6   Zn    Zn3+2 0.619860 0.793380 0.793370 0.972017
Zn7   Zn    Zn3+2 0.206620 0.206620 0.206620 0.961295
Zn8   Zn    Zn3+2 0.793380 0.793380 0.793380 0.961299

loop_
_geom_bond_atom_site_label_1
_geom_bond_atom_site_label_2
_ccdc_geom_bond_type
C10   C27   S    
C55   N3    S    
C55   C62   A    
C18   H75   S    
C27   O21   A    
C19   H30   S    
C54   N2    S    
C22   C29   A    
C20   C82   A    
C100  H13   S    
C53   N1    S    
C12   N1    S    
C10   C110  A    
C1    C11   S    
C102  H15   S    
O21   Zn8   S    
O26   Zn1   S    
C12   H53   S    
C75   O3    A    
C42   H47   S    
C99   H11   S    
C106  C112  A    
C40   C46   A    
H69   N5    S    
C98   C105  A    
O11   Zn1   S    
C15   H62   S    
C103  C110  A    
C26   C67   S    
C40   H44   S    
C45   H50   S    
C78   O6    A    
C19   C52   A    
C80   C87   A    
C96   C102  A    
C50   H21   S    
C59   C66   A    
C46   H18   S    
C16   H68   S    
C60   O7    A    
C89   H8    S    
C48   C104  A    
C87   C94   A    
C77   O5    A    
C101  H14   S    
C22   C104  A    
C7    C112  A    
C105  H17   S    
C27   O10   A    
C90   H9    S    
C32   C39   A    
C108  C114  A    
C35   C42   A    
O16   Zn1   S    
O1    Zn7   S    
C107  C113  A    
C2    C50   A    
O23   Zn8   S    
C56   N4    S    
C76   O15   A    
C71   O8    A    
C58   N6    S    
C63   C69   A    
C17   H71   S    
C84   H3    S    
C8    C71   S    
O13   Zn2   S    
C81   C114  A    
C18   N6    S    
C52   H24   S    
C35   H40   S    
C73   O18   A    
C17   N5    S    
C1    O20   A    
C44   H49   S    
C64   C70   A    
C90   C97   A    
O22   Zn7   S    
C16   H65   S    
C39   C45   A    
C5    C85   A    
C101  C108  A    
C23   H35   S    
C88   C95   A    
C28   C34   A    
H60   N3    S    
C38   O11   A    
C13   C51   A    
C39   H43   S    
C9    C109  A    
O12   Zn2   S    
C37   H42   S    
C62   C76   S    
C55   C69   A    
C34   C41   A    
C84   C90   A    
C19   C25   A    
C8    C108  A    
C41   C47   A    
C77   O16   A    
C29   C69   S    
C31   C37   A    
C53   C59   A    
C83   C89   A    
C75   O14   A    
C33   C40   A    
C71   O25   A    
C92   C99   A    
H73   N6    S    
C11   C111  A    
O18   Zn3   S    
C23   C30   A    
C46   C82   A    
C65   C77   S    
C102  C109  A    
C14   H58   S    
C3    C8    A    
C96   H23   S    
O5    Zn5   S    
C32   C70   S    
C57   C72   A    
O9    Zn5   S    
C42   C48   A    
C5    C111  A    
C45   C52   A    
C61   C73   S    
C56   C68   A    
H64   N4    S    
C97   H56   S    
C79   H67   S    
C13   C24   A    
C60   O24   A    
C28   C66   S    
C6    C113  A    
C82   H25   S    
C16   N4    S    
C38   O22   A    
C97   C103  A    
C41   H46   S    
C51   H22   S    
C61   C67   A    
C58   C65   A    
C4    C84   A    
C94   C100  A    
C17   H72   S    
C49   O13   A    
C88   H7    S    
C6    C106  A    
C56   C63   A    
H51   N1    S    
O2    Zn2   S    
C22   H33   S    
C4    C11   A    
O1    Zn1   S    
C59   C74   S    
C86   H5    S    
C24   H36   S    
C79   C112  A    
C44   C51   A    
C31   C72   S    
C21   C28   A    
C74   O2    A    
O24   Zn7   S    
C91   H10   S    
C15   H63   S    
O8    Zn4   S    
C91   C98   A    
C2    H28   S    
C80   H77   S    
C7    C107  A    
C98   H45   S    
C9    C114  A    
C14   N2    S    
C85   C91   A    
C81   H78   S    
C64   C78   S    
O25   Zn8   S    
C63   C75   S    
C57   C64   A    
C34   H39   S    
C48   H20   S    
O3    Zn3   S    
C99   C106  A    
C4    C110  A    
C18   H76   S    
C100  C107  A    
C47   C93   A    
C73   O26   A    
C49   O23   A    
C104  H27   S    
O12   Zn4   S    
C83   H2    S    
C58   C70   A    
C95   H34   S    
C14   H57   S    
C20   C26   A    
C33   H38   S    
C92   H12   S    
C78   O17   A    
C12   H54   S    
O4    Zn4   S    
C94   H1    S    
C43   C50   A    
H55   N2    S    
C54   C66   A    
C54   C61   A    
C15   H61   S    
C14   H59   S    
C65   C72   A    
C29   C35   A    
C30   C36   A    
C25   H37   S    
O17   Zn2   S    
C3    C109  A    
C21   H32   S    
C9    C60   S    
C37   C44   A    
O1    Zn5   S    
C24   C31   A    
C15   N3    S    
C5    C10   A    
C93   H26   S    
C86   C92   A    
C53   C67   A    
C12   H52   S    
O14   Zn5   S    
C17   H70   S    
C21   C93   A    
C25   C32   A    
C74   O19   A    
C18   H74   S    
C7    C38   S    
O7    Zn3   S    
C76   O4    A    
C62   C68   A    
C13   H29   S    
C6    C49   S    
O6    Zn6   S    
C85   H4    S    
C1    O9    A    
C103  H16   S    
C30   C68   S    
O20   Zn7   S    
O12   Zn6   S    
C81   C88   A    
O19   Zn4   S    
C57   N5    S    
C105  C111  A    
C43   H48   S    
C95   C101  A    
C87   H6    S    
C3    C83   A    
C80   C113  A    
C36   H41   S    
C2    C23   A    
O12   Zn8   S    
C20   H31   S    
C36   C43   A    
C89   C96   A    
O1    Zn3   S    
C79   C86   A    
C47   H19   S    
O15   Zn6   S    
C16   H66   S    
C26   C33   A    
O10   Zn6   S    
