data_mof_unit_44020.cif
_audit_creation_date              2013-03-05T16:01:06-0500
_audit_creation_method            fapswitch 2.2
_symmetry_space_group_name_H-M    P1
_symmetry_Int_Tables_number       1
_space_group_crystal_system       triclinic
_cell_length_a                    14.834275
_cell_length_b                    14.714174
_cell_length_c                    15.872234
_cell_angle_alpha                 74.859702
_cell_angle_beta                  102.181867
_cell_angle_gamma                 115.837011
_cell_volume                      2991.05070232

loop_
_atom_site_label
_atom_site_type_symbol
_atom_site_description
_atom_site_fract_x
_atom_site_fract_y
_atom_site_fract_z
_atom_type_partial_charge
O1    O     O_R   0.977900 0.338120 0.529810 -0.550093
O2    O     O_R   0.022100 0.661880 0.470190 -0.541482
O3    O     O_R   0.839850 0.379180 0.491620 -0.564396
O4    O     O_R   0.160150 0.620820 0.508380 -0.541943
C1    C     C_R   0.880132 0.311190 0.516103 0.834537
C2    C     C_R   0.119621 0.688873 0.484625 0.847202
O5    O     O_R   0.069010 0.479460 0.640020 -0.601934
O6    O     O_R   0.930990 0.520540 0.359980 -0.605942
O7    O     O_R   0.930960 0.520530 0.601820 -0.495883
O8    O     O_R   0.069040 0.479470 0.398180 -0.523728
C3    C     C_R   0.999530 0.499726 0.659681 0.829900
C4    C     C_R   0.000494 0.500329 0.340304 0.828247
Cu1   Cu    Cu3+1 0.081740 0.475690 0.522610 1.048291
Cu2   Cu    Cu3+1 0.918260 0.524310 0.477390 1.053255
C5    C     C_3   0.988980 0.408896 0.048008 0.154208
C6    C     C_3   0.010931 0.591636 0.951794 0.159026
C7    C     C_3   0.909694 0.427129 0.972568 -0.296938
C8    C     C_3   0.090216 0.573403 0.027241 -0.310505
H1    H     H_    0.836414 0.367785 0.951094 0.182390
H2    H     H_    0.163502 0.632751 0.048699 0.178242
C9    C     C_1   0.998562 0.499333 0.749067 -0.078190
C10   C     C_1   0.001465 0.500877 0.250866 -0.107593
C11   C     C_3   0.074672 0.478587 0.991408 0.158735
C12   C     C_3   0.925238 0.521947 0.008406 0.160768
C13   C     C_3   0.997578 0.498599 0.915930 0.085983
C14   C     C_3   0.002334 0.501926 0.083885 0.087857
C15   C     C_1   0.997895 0.498944 0.824436 0.037528
C16   C     C_1   0.002072 0.501433 0.175436 0.024211
C17   C     C_R   0.811481 0.200886 0.537426 -0.198783
C18   C     C_R   0.186102 0.800148 0.476661 -0.239943
C19   C     C_R   0.768177 0.031533 0.632332 0.268989
C20   C     C_R   0.218255 0.982375 0.429103 0.271621
C21   C     C_R   0.841389 0.128073 0.599361 0.259443
C22   C     C_R   0.150453 0.878350 0.438359 0.261238
C23   C     C_R   0.709802 0.172428 0.504790 -0.255784
C24   C     C_R   0.288011 0.828175 0.508224 -0.175390
C25   C     C_R   0.634100 0.082341 0.544287 0.054006
C26   C     C_R   0.355191 0.931247 0.507752 0.053516
C27   C     C_R   0.664585 0.009056 0.605861 -0.045521
C28   C     C_R   0.320891 0.008800 0.462709 -0.085906
C29   C     C_R   0.529069 0.061580 0.522176 0.018361
C30   C     C_R   0.457206 0.958832 0.546808 0.087412
C31   C     C_R   0.489135 0.889394 0.613094 0.140194
C32   C     C_R   0.491400 0.139204 0.481433 0.123372
C33   C     C_R   0.591263 0.914661 0.640354 -0.156705
C34   C     C_R   0.389025 0.111617 0.454355 -0.093742
H3    H     H_    0.612051 0.858610 0.689669 0.202072
H4    H     H_    0.363412 0.172934 0.426728 0.206022
H5    H     H_    0.315027 0.768120 0.530427 0.246538
H6    H     H_    0.691242 0.222987 0.448468 0.175497
N1    N     N_R   0.795440 0.560790 0.443380 -0.253886
N2    N     N_R   0.204560 0.439210 0.556620 -0.265471
C35   C     C_R   0.696517 0.626531 0.325882 0.236987
C36   C     C_R   0.277084 0.327631 0.652770 0.242978
C37   C     C_R   0.786189 0.615480 0.361526 0.011501
C38   C     C_R   0.198022 0.359516 0.624611 0.012923
C39   C     C_R   0.718567 0.517902 0.496026 0.460854
C40   C     C_R   0.288870 0.491124 0.512575 0.449277
C41   C     C_R   0.622313 0.521174 0.462319 -0.146299
C42   C     C_R   0.365866 0.453275 0.530197 -0.134926
C43   C     C_R   0.613922 0.579487 0.376248 -0.022620
C44   C     C_R   0.361308 0.373986 0.604627 -0.023888
C45   C     C_R   0.534445 0.469935 0.509993 0.120611
C46   C     C_R   0.448051 0.492944 0.477724 0.121978
C47   C     C_R   0.442325 0.546834 0.390855 -0.127707
C48   C     C_R   0.525023 0.389662 0.583900 -0.132354
C49   C     C_R   0.523252 0.590093 0.341944 -0.095610
C50   C     C_R   0.439950 0.341125 0.628183 -0.105205
H7    H     H_    0.513605 0.633067 0.276656 0.202604
H8    H     H_    0.436792 0.276821 0.681309 0.200703
H9    H     H_    0.132388 0.323738 0.659826 0.214105
H10   H     H_    0.848230 0.647798 0.322154 0.200514
H11   H     H_    0.373188 0.551694 0.357056 0.193038
H12   H     H_    0.578082 0.355487 0.605917 0.201284
N3    N     N_R   0.308214 0.592820 0.462143 0.110074
O9    O     O_R   0.391026 0.669151 0.482449 -0.391145
O10   O     O_R   0.254088 0.607132 0.388112 -0.361147
N4    N     N_R   0.740284 0.481664 0.587488 0.117686
O11   O     O_R   0.743405 0.532529 0.644668 -0.321683
O12   O     O_R   0.748792 0.393969 0.614701 -0.399300
N5    N     N_R   0.689731 0.681647 0.237240 0.123816
O13   O     O_R   0.763787 0.768251 0.211670 -0.267489
O14   O     O_R   0.621261 0.635862 0.178272 -0.340887
N6    N     N_R   0.270922 0.249581 0.730414 0.124549
O15   O     O_R   0.186829 0.169039 0.742712 -0.238374
O16   O     O_R   0.342398 0.267376 0.795364 -0.329712
N7    N     N_3   0.980094 0.309426 0.102035 -0.516741
H13   H     H_    0.970180 0.261280 0.059672 0.264502
H14   H     H_    0.913622 0.278623 0.131564 0.230350
N8    N     N_3   0.019811 0.691092 0.897736 -0.502419
H15   H     H_    0.029804 0.739288 0.940079 0.264724
H16   H     H_    0.086237 0.721846 0.868145 0.229519
N9    N     N_3   0.845033 0.548951 0.018139 -0.517935
H17   H     H_    0.803951 0.556055 0.956425 0.265047
H18   H     H_    0.796540 0.486289 0.058851 0.227748
N10   N     N_3   0.154896 0.451611 0.981678 -0.527022
H19   H     H_    0.195968 0.444501 0.043396 0.256001
H20   H     H_    0.203392 0.514297 0.940985 0.224806
N11   N     N_R   0.047001 0.853515 0.403689 0.158061
O17   O     O_R   0.980660 0.832928 0.455658 -0.270781
O18   O     O_R   0.022106 0.866757 0.319146 -0.281380
N12   N     N_R   0.945263 0.151915 0.631455 0.143932
O19   O     O_R   0.005791 0.155797 0.580769 -0.278726
O20   O     O_R   0.974487 0.150522 0.714866 -0.281331
N13   N     N_R   0.799930 0.957743 0.694361 0.145810
O21   O     O_R   0.859904 0.926093 0.673067 -0.234445
O22   O     O_R   0.780717 0.933546 0.775485 -0.302400
N14   N     N_R   0.182123 0.060625 0.384846 0.137513
O23   O     O_R   0.109486 0.066987 0.413464 -0.246117
O24   O     O_R   0.215009 0.119042 0.311216 -0.316619
N15   N     N_3   0.418525 0.798487 0.661514 -0.596528
H21   H     H_    0.432100 0.805432 0.727403 0.243250
H22   H     H_    0.431926 0.735432 0.658120 0.250733
N16   N     N_3   0.549642 0.246892 0.479891 -0.615831
H23   H     H_    0.606962 0.259248 0.531911 0.261110
H24   H     H_    0.576847 0.283113 0.418911 0.229132

loop_
_geom_bond_atom_site_label_1
_geom_bond_atom_site_label_2
_geom_bond_distance
_ccdc_geom_bond_type
C48   C50   1.386813 A    
N7    H13   1.044939 S    
C6    N8    1.455637 S    
N9    H17   1.044956 S    
C17   C21   1.411086 A    
C29   C30   1.427349 A    
C35   C37   1.392426 A    
N15   H21   1.045812 S    
C8    C14   1.555523 S    
O7    Cu2   1.932321 S    
C36   N6    1.436232 S    
N5    O13   1.301240 A    
C11   N10   1.455663 S    
O5    C3    1.304178 A    
N13   O22   1.301125 A    
O1    C1    1.311002 A    
C35   N5    1.436203 S    
C23   C25   1.405966 A    
C12   C14   1.536592 S    
C26   C30   1.428032 A    
N4    O12   1.302051 A    
C39   C41   1.432269 A    
C40   C42   1.425206 A    
C48   H12   1.063782 S    
C4    C10   1.420573 S    
C47   H11   1.075386 S    
N14   O23   1.301095 A    
C42   C44   1.416452 A    
O4    Cu1   1.912612 S    
C35   C43   1.415806 A    
N11   O17   1.301125 A    
N14   O24   1.301149 A    
C47   C49   1.384982 A    
N10   H20   1.044987 S    
C19   C21   1.406432 A    
N1    C39   1.377068 A    
N1    C37   1.352491 A    
C37   H10   1.081522 S    
C27   C33   1.396166 A    
C5    C11   1.529390 S    
C9    C15   1.196901 T    
C45   C48   1.411470 A    
C32   N16   1.432913 S    
C6    C12   1.529514 S    
C10   C16   1.197032 T    
Cu1   Cu2   2.723508 S    
C19   N13   1.435870 S    
O2    C2    1.307627 A    
C31   N15   1.434760 S    
N5    O14   1.301255 A    
C32   C34   1.390741 A    
C40   N3    1.434979 S    
N16   H23   1.041714 S    
C1    C17   1.484493 S    
C33   H3    1.081916 S    
N2    C40   1.376137 A    
C36   C38   1.394374 A    
C41   C43   1.423749 A    
C7    C12   1.549846 S    
C18   C22   1.415126 A    
C8    C11   1.549776 S    
N6    O15   1.300799 A    
O4    C2    1.318395 A    
N4    O11   1.301091 A    
C5    C14   1.536406 S    
C36   C44   1.413499 A    
C3    C9    1.420322 S    
C21   N12   1.431022 S    
C49   H7    1.080812 S    
C20   C22   1.406804 A    
C28   C34   1.395310 A    
N3    O9    1.301475 A    
Cu1   N2    2.045728 S    
C31   C33   1.391792 A    
C43   C49   1.399791 A    
N8    H16   1.044971 S    
Cu2   N1    2.045728 S    
O6    C4    1.304103 A    
C38   H9    1.080134 S    
N10   H19   1.044956 S    
C23   H6    1.075010 S    
C22   N11   1.432237 S    
N15   H22   1.046242 S    
N12   O20   1.300943 A    
N3    O10   1.299875 A    
O3    Cu2   1.912610 S    
O8    C4    1.304818 A    
C50   H8    1.081557 S    
C2    C18   1.485414 S    
O7    C3    1.304649 A    
C29   C32   1.432823 A    
O1    Cu1   1.928472 S    
C30   C31   1.423091 A    
C5    N7    1.455618 S    
C6    C13   1.536382 S    
C5    C7    1.549825 S    
O6    Cu2   1.929568 S    
N11   O18   1.300762 A    
C14   C16   1.452061 S    
C39   N4    1.429534 S    
N6    O16   1.301256 A    
O3    C1    1.314873 A    
O8    Cu1   1.932321 S    
N16   H24   1.044818 S    
C18   C24   1.396889 A    
C13   C15   1.451899 S    
N13   O21   1.301106 A    
C17   C23   1.397076 A    
C41   C45   1.449724 A    
C44   C50   1.395590 A    
C42   C46   1.440495 A    
C7    C13   1.555458 S    
C46   C47   1.405425 A    
N7    H14   1.044965 S    
C25   C27   1.417909 A    
C12   N9    1.455679 S    
C26   C28   1.413716 A    
N8    H15   1.044936 S    
N9    H18   1.044980 S    
C24   C26   1.404689 A    
C7    H1    1.109988 S    
C19   C27   1.415806 A    
C8    H2    1.109982 S    
C20   C28   1.415421 A    
C25   C29   1.433326 A    
N12   O19   1.301089 A    
O2    Cu2   1.928471 S    
C45   C46   1.424801 A    
C34   H4    1.082813 S    
O5    Cu1   1.929569 S    
C11   C13   1.536507 S    
C6    C8    1.549878 S    
C20   N14   1.436290 S    
C24   H5    1.073347 S    
N2    C38   1.353915 A    
