data_mof_unit_29875.cif
_audit_creation_date              2012-12-10T19:27:32-0500
_audit_creation_method            fapswitch 2.2
_symmetry_space_group_name_H-M    P1
_symmetry_Int_Tables_number       1
_space_group_crystal_system       triclinic
_cell_length_a                    23.240466
_cell_length_b                    10.520054
_cell_length_c                    9.821257
_cell_angle_alpha                 90.197531
_cell_angle_beta                  88.702514
_cell_angle_gamma                 89.150073
_cell_volume                      2400.31155454

loop_
_atom_site_label
_atom_site_type_symbol
_atom_type_description
_atom_site_fract_x
_atom_site_fract_y
_atom_site_fract_z
_atom_type_partial_charge
C1    C     C_R   0.502512 0.258085 0.499264 0.942669
C2    C     C_R   0.691554 0.620738 0.582803 -0.209873
C3    C     C_R   0.240896 0.461058 0.648661 -0.078746
C4    C     C_R   0.749752 0.639341 0.598737 -0.077390
C5    C     C_R   0.205771 0.508046 0.546823 0.218023
C6    C     C_R   0.789867 0.562349 0.528696 0.224064
C7    C     C_3   0.522445 0.038065 0.612038 0.090220
C8    C     C_3   0.474573 0.961270 0.386244 0.110860
C9    C     C_3   0.552248 0.948482 0.507041 -0.276400
C10   C     C_3   0.444875 0.051369 0.490624 -0.260098
C11   C     C_3   0.495064 0.876199 0.501162 -0.087302
C12   C     C_R   0.496288 0.741640 0.500439 0.951243
C13   C     C_3   0.502088 0.123472 0.496819 -0.085003
C14   C     C_3   0.466087 0.965082 0.607304 -0.039229
C15   C     C_3   0.530821 0.034349 0.390126 -0.029300
C16   C     C_R   0.389069 0.501153 0.501602 0.894495
C17   C     C_R   0.610521 0.501688 0.499077 0.903390
C18   C     C_3   0.479648 0.396825 0.047811 0.176920
C19   C     C_3   0.520408 0.603039 0.952311 0.163605
C20   C     C_3   0.531244 0.405176 0.948300 -0.171675
C21   C     C_3   0.468802 0.594731 0.051672 -0.203220
C22   C     C_3   0.449099 0.489403 0.955849 0.128473
C23   C     C_R   0.230029 0.546633 0.420276 -0.054341
C24   C     C_3   0.550901 0.510462 0.044045 0.153210
C25   C     C_R   0.880042 0.674396 0.541338 0.565569
C26   C     C_R   0.113611 0.417059 0.606403 0.568426
C27   C     C_R   0.873504 0.461200 0.622395 0.529316
C28   C     C_R   0.120337 0.640811 0.569971 0.535999
C29   C     C_R   0.933009 0.452068 0.633926 -0.010225
C30   C     C_R   0.060514 0.654749 0.576320 -0.019252
C31   C     C_R   0.966532 0.558471 0.601748 -0.043460
C32   C     C_R   0.026922 0.547308 0.603155 -0.049587
C33   C     C_R   0.939772 0.674518 0.563849 -0.027859
C34   C     C_R   0.771570 0.468678 0.435700 -0.050250
C35   C     C_R   0.053638 0.427884 0.627103 -0.011156
C36   C     C_R   0.959497 0.337129 0.670609 -0.195288
C37   C     C_R   0.033892 0.772689 0.551963 -0.180497
C38   C     C_R   0.019337 0.323290 0.665484 0.117487
C39   C     C_R   0.973919 0.783719 0.543570 0.121552
C40   C     C_2   0.191558 0.586444 0.308451 0.974003
C41   C     C_2   0.815391 0.393152 0.356108 0.965935
C42   C     C_2   0.316666 0.607003 0.280278 0.992676
C43   C     C_2   0.692348 0.328277 0.357149 0.986577
C44   C     C_2   0.428082 0.932490 0.727374 0.896646
C45   C     C_R   0.290691 0.548933 0.403484 -0.117714
C46   C     C_2   0.565412 0.061344 0.262595 0.889187
C47   C     C_R   0.712136 0.443976 0.426743 -0.137475
C48   C     C_R   0.325683 0.501586 0.508974 -0.126219
C49   C     C_R   0.672409 0.521832 0.500389 -0.102502
C50   C     C_R   0.299763 0.454146 0.628247 -0.202067
H1    H     H_    0.933898 0.255313 0.697654 0.191276
H2    H     H_    0.401464 0.095649 0.481416 0.172350
H3    H     H_    0.442881 0.224518 0.024564 0.196522
H4    H     H_    0.418850 0.306721 0.161850 0.197429
H5    H     H_    0.564342 0.766595 0.975467 0.204653
H6    H     H_    0.511281 0.775805 0.864251 0.202296
H7    H     H_    0.365471 0.439711 0.981122 0.215387
H8    H     H_    0.376123 0.564456 0.878192 0.219919
H9    H     H_    0.635987 0.542188 0.013152 0.194709
H10   H     H_    0.620684 0.437640 0.135922 0.236501
H11   H     H_    0.031128 0.179698 0.798687 0.197204
H12   H     H_    0.059810 0.856099 0.534530 0.194286
H13   H     H_    0.028614 0.134077 0.633731 0.182889
H14   H     H_    0.979255 0.970629 0.484285 0.176612
H15   H     H_    0.929678 0.940045 0.606263 0.204429
H16   H     H_    0.172809 0.714848 0.163296 0.356446
H17   H     H_    0.845324 0.220560 0.295538 0.361075
H18   H     H_    0.360129 0.754333 0.201348 0.340056
H19   H     H_    0.658665 0.154542 0.381625 0.359566
H20   H     H_    0.561850 0.001214 0.790254 0.190225
H21   H     H_    0.518530 0.129754 0.794813 0.213716
H22   H     H_    0.435393 0.997957 0.207690 0.195740
H23   H     H_    0.557646 0.327325 0.901171 0.151906
H24   H     H_    0.478466 0.868949 0.203873 0.205155
H25   H     H_    0.382730 0.799643 0.828644 0.338112
H26   H     H_    0.596059 0.190355 0.129274 0.346193
H27   H     H_    0.443294 0.673831 0.098144 0.146609
H28   H     H_    0.325199 0.412846 0.707930 0.190935
H29   H     H_    0.661136 0.680968 0.639330 0.161473
H30   H     H_    0.222374 0.430405 0.745060 0.173301
H31   H     H_    0.763796 0.710556 0.670093 0.166583
H32   H     H_    0.595718 0.904404 0.516032 0.171377
N1    N     N_R   0.849002 0.567229 0.566503 -0.353756
N2    N     N_3   0.948052 0.905470 0.515036 -0.362169
N3    N     N_3   0.549816 0.081885 0.735377 -0.411917
N4    N     N_3   0.447248 0.917386 0.262958 -0.411571
N5    N     N_R   0.145219 0.522311 0.575686 -0.352455
N6    N     N_3   0.499960 0.500030 0.863290 -0.084885
N7    N     N_3   0.500040 0.499970 0.136710 -0.085686
N8    N     N_3   0.455938 0.281066 0.105564 -0.403167
N9    N     N_3   0.545314 0.717999 0.895596 -0.432227
N10   N     N_3   0.391836 0.474007 0.902499 -0.424485
N11   N     N_3   0.608390 0.525589 0.096468 -0.399725
N12   N     N_3   0.044573 0.202710 0.699599 -0.364221
O1    O     O_R   0.500000 0.313960 0.616610 -0.618075
O2    O     O_2   0.140153 0.302365 0.612508 -0.507355
O3    O     O_2   0.840259 0.363112 0.661787 -0.528507
O4    O     O_2   0.153526 0.744257 0.554499 -0.527477
O5    O     O_2   0.149772 0.522386 0.281693 -0.614428
O6    O     O_R   0.202283 0.698065 0.235871 -0.746630
O7    O     O_2   0.855029 0.447358 0.297786 -0.609930
O8    O     O_R   0.812576 0.260527 0.351478 -0.736295
O9    O     O_2   0.307728 0.562039 0.167971 -0.657851
O10   O     O_R   0.349350 0.716540 0.292955 -0.760231
O11   O     O_2   0.704813 0.309070 0.237149 -0.609190
O12   O     O_R   0.500000 0.686040 0.383390 -0.607159
O13   O     O_R   0.662180 0.237672 0.432630 -0.780023
O14   O     O_2   0.413600 0.015730 0.808770 -0.646494
O15   O     O_R   0.408021 0.808902 0.743912 -0.787998
O16   O     O_2   0.587164 0.972737 0.198047 -0.636400
O17   O     O_R   0.572334 0.185805 0.216969 -0.770271
O18   O     O_R   0.500030 0.313950 0.383350 -0.572846
O19   O     O_R   0.499970 0.686050 0.616650 -0.598043
O20   O     O_R   0.416140 0.499970 0.616650 -0.588031
O21   O     O_R   0.583860 0.500030 0.383350 -0.599592
O22   O     O_R   0.416170 0.499960 0.383400 -0.623375
O23   O     O_R   0.583830 0.500040 0.616600 -0.604238
O24   O     O_2   0.853372 0.777908 0.490329 -0.508654
Zn1   Zn    Zn3+2 0.499980 0.500010 0.655740 1.003863
Zn2   Zn    Zn3+2 0.500020 0.499990 0.344260 1.012145

loop_
_geom_bond_atom_site_label_1
_geom_bond_atom_site_label_2
_ccdc_geom_bond_type
C30   C32   A    
C23   C45   A    
H7    N10   S    
C27   C29   A    
C10   H2    S    
C42   O9    D    
C16   C48   S    
C40   O5    D    
C37   H12   S    
H19   O13   S    
C47   C49   A    
C21   N7    S    
H13   N12   S    
C33   C39   A    
C19   C21   S    
C39   N2    S    
H4    N8    S    
O23   Zn1   S    
C1    O18   A    
C11   C14   S    
C23   C40   S    
C16   O22   A    
C41   O8    S    
C43   O11   D    
H16   O6    S    
H14   N2    S    
H5    N9    S    
C2    H29   S    
H21   N3    S    
C7    C14   S    
C4    H31   S    
C20   C24   S    
C26   N5    A    
H6    N9    S    
C31   C33   A    
C22   N6    S    
C8    N4    S    
O20   Zn1   S    
C17   O23   A    
C9    H32   S    
C44   O15   S    
C48   C50   A    
O19   Zn1   S    
C21   C22   S    
C24   N7    S    
C34   C41   S    
C3    H30   S    
C50   H28   S    
C25   O24   S    
C3    C50   A    
C44   O14   D    
C26   O2    S    
H25   O15   S    
C18   N8    S    
C32   C35   A    
C35   C38   A    
C4    C6    A    
C19   N6    S    
C10   C14   S    
C17   C49   S    
O18   Zn2   S    
H11   N12   S    
H15   N2    S    
O1    Zn1   S    
O22   Zn2   S    
C30   C37   A    
C42   O10   S    
C42   C45   S    
C2    C4    A    
C2    C49   A    
C31   C32   A    
C5    C23   A    
N7    Zn2   S    
C8    C11   S    
C1    O1    A    
C38   N12   S    
C28   N5    A    
C43   O13   S    
H24   N4    S    
N6    Zn1   S    
C9    C11   S    
C36   H1    S    
C8    C10   S    
C8    C15   S    
C13   C15   S    
C1    C13   S    
C17   O21   A    
C14   C44   S    
C12   O19   A    
C45   C48   A    
C28   O4    S    
C7    C9    S    
C27   O3    S    
C6    N1    S    
O12   Zn2   S    
C18   C22   S    
C18   N7    S    
C29   C36   A    
H18   O10   S    
C3    C5    A    
C10   C13   S    
C16   O20   A    
C40   O6    S    
H22   N4    S    
C11   C12   S    
C46   O16   D    
C19   C24   S    
C9    C15   S    
C28   C30   A    
C29   C31   A    
C24   N11   S    
H10   N11   S    
C12   O12   A    
C7    N3    S    
C43   C47   S    
H26   O17   S    
C20   N6    S    
C36   C38   A    
C41   O7    D    
C20   H23   S    
C18   C20   S    
C19   N9    S    
C27   N1    A    
C5    N5    S    
C6    C34   A    
C26   C35   A    
C7    C13   S    
C37   C39   A    
O21   Zn2   S    
C21   H27   S    
H3    N8    S    
C25   N1    A    
C22   N10   S    
C34   C47   A    
H9    N11   S    
C15   C46   S    
C46   O17   S    
H20   N3    S    
H8    N10   S    
H17   O8    S    
C25   C33   A    
