data_mof_unit_55339.cif
_audit_creation_date              2012-12-10T17:47:17-0500
_audit_creation_method            fapswitch 2.2
_symmetry_space_group_name_H-M    P1
_symmetry_Int_Tables_number       1
_space_group_crystal_system       triclinic
_cell_length_a                    11.702683
_cell_length_b                    14.737542
_cell_length_c                    14.652147
_cell_angle_alpha                 64.988201
_cell_angle_beta                  103.06553
_cell_angle_gamma                 102.981021
_cell_volume                      2206.80490263

loop_
_atom_site_label
_atom_site_type_symbol
_atom_type_description
_atom_site_fract_x
_atom_site_fract_y
_atom_site_fract_z
_atom_type_partial_charge
C1    C     C_R   0.483583 0.119708 0.312033 0.795544
C2    C     C_R   0.631055 0.611205 0.098795 0.457851
C3    C     C_R   0.719240 0.301533 0.639446 -0.272928
C4    C     C_R   0.294971 0.714625 0.336450 -0.288675
C5    C     C_R   0.678661 0.212772 0.623601 0.083880
C6    C     C_R   0.330855 0.796688 0.364482 0.079817
C7    C     C_R   0.508013 0.280145 0.515417 0.038473
C8    C     C_R   0.486295 0.716098 0.486371 0.078436
C9    C     C_R   0.545228 0.374808 0.525799 -0.004680
C10   C     C_R   0.460754 0.633595 0.455162 -0.011884
C11   C     C_R   0.654658 0.383242 0.589290 0.114553
C12   C     C_R   0.521039 0.880213 0.687987 0.790311
C13   C     C_R   0.358534 0.632455 0.382739 0.069779
C14   C     C_R   0.481699 0.461033 0.475571 -0.105602
C15   C     C_R   0.529357 0.551510 0.495597 -0.095584
C16   C     C_R   0.284130 0.000141 0.499994 0.827630
C17   C     C_R   0.715882 0.999737 0.500174 0.825459
C18   C     C_R   0.645909 0.559848 0.550686 0.447092
C19   C     C_R   0.375833 0.463892 0.402828 0.430566
C20   C     C_R   0.704166 0.474328 0.598683 -0.271053
C21   C     C_R   0.318276 0.549006 0.357788 -0.267264
C22   C     C_1   0.162489 0.000202 0.500193 -0.178227
C23   C     C_R   0.480212 0.321195 0.998741 0.063573
C24   C     C_1   0.837514 0.999373 0.500299 -0.181032
C25   C     C_1   0.059943 0.999888 0.500311 0.001722
C26   C     C_1   0.940040 0.999461 0.500359 -0.003908
C27   C     C_R   0.483181 0.187215 0.203942 -0.052693
C28   C     C_R   0.543580 0.812332 0.795845 -0.047889
C29   C     C_R   0.444486 0.216430 0.025313 -0.154261
C30   C     C_R   0.625153 0.783037 0.971304 -0.157709
C31   C     C_R   0.445119 0.150221 0.126933 -0.218940
C32   C     C_R   0.597274 0.849765 0.870947 -0.215487
C33   C     C_R   0.523881 0.290392 0.178333 -0.235912
C34   C     C_R   0.602974 0.677715 0.997655 0.054816
C35   C     C_R   0.517445 0.707823 0.822369 -0.226790
C36   C     C_R   0.521911 0.359506 0.076416 0.048367
C37   C     C_R   0.551742 0.638889 0.921519 0.046192
C38   C     C_3   0.364586 0.397692 0.738577 -0.318545
C39   C     C_3   0.612521 0.627134 0.242928 -0.311121
C40   C     C_3   0.791422 0.661477 0.624463 0.051840
C41   C     C_3   0.736772 0.623900 0.722689 -0.412539
C42   C     C_3   0.828561 0.638905 0.809272 -0.866016
C43   C     C_3   0.338914 0.401775 0.277129 0.013760
C44   C     C_3   0.218901 0.385871 0.213691 -0.311206
C45   C     C_R   0.554731 0.465641 0.050194 -0.003447
C46   C     C_3   0.233400 0.395977 0.108698 -0.911251
C47   C     C_R   0.533934 0.532676 0.946809 -0.001568
C48   C     C_R   0.500640 0.491942 0.871263 -0.312724
C49   C     C_R   0.608605 0.506877 0.123812 -0.311092
C50   C     C_R   0.472830 0.387390 0.895882 0.468166
Cu1   Cu    Cu3+1 0.469550 0.918260 0.475690 0.941980
Cu2   Cu    Cu3+1 0.530450 0.081740 0.524310 0.941561
H1    H     H_    0.468364 0.681826 0.764188 0.145316
H2    H     H_    0.237991 0.548195 0.303793 0.158134
H3    H     H_    0.552228 0.717784 0.549894 0.163672
H4    H     H_    0.426934 0.262478 0.471873 0.199922
H5    H     H_    0.283065 0.860941 0.328029 0.129756
H6    H     H_    0.730533 0.151121 0.659232 0.125293
H7    H     H_    0.802904 0.307408 0.688256 0.134809
H8    H     H_    0.217855 0.715299 0.279084 0.144863
H9    H     H_    0.410442 0.466090 0.682656 0.165465
H10   H     H_    0.293192 0.417379 0.762988 0.152531
H11   H     H_    0.321373 0.346505 0.698846 0.200951
H12   H     H_    0.553169 0.315387 0.239890 0.145195
H13   H     H_    0.601320 0.545303 0.292983 0.157432
H14   H     H_    0.524696 0.652198 0.204740 0.149948
H15   H     H_    0.653243 0.669173 0.292529 0.218810
H16   H     H_    0.827921 0.742758 0.604931 0.181792
H17   H     H_    0.869252 0.624665 0.635646 0.138182
H18   H     H_    0.663598 0.666768 0.708770 0.217310
H19   H     H_    0.700546 0.542228 0.747071 0.228767
H20   H     H_    0.903000 0.596331 0.825656 0.250107
H21   H     H_    0.786704 0.610537 0.879058 0.267623
H22   H     H_    0.863527 0.720532 0.788881 0.252553
H23   H     H_    0.618295 0.930460 0.852160 0.158455
H24   H     H_    0.393051 0.345922 0.283965 0.165681
H25   H     H_    0.386465 0.478602 0.235715 0.126708
H26   H     H_    0.171366 0.309226 0.253970 0.231110
H27   H     H_    0.164370 0.442846 0.204235 0.212157
H28   H     H_    0.284580 0.470637 0.068109 0.259041
H29   H     H_    0.144720 0.389464 0.062814 0.254263
H30   H     H_    0.279806 0.334726 0.116173 0.266362
H31   H     H_    0.414802 0.070335 0.145061 0.157835
H32   H     H_    0.412929 0.185360 0.967541 0.183981
H33   H     H_    0.665175 0.814348 0.027984 0.183171
H34   H     H_    0.501185 0.540001 0.792126 0.140184
H35   H     H_    0.639504 0.460410 0.201318 0.159848
H36   H     H_    0.792250 0.478452 0.640928 0.135176
N1    N     N_R   0.576230 0.204580 0.560790 -0.197340
N2    N     N_R   0.423770 0.795420 0.439210 -0.194970
O1    O     O_R   0.459870 0.022090 0.338120 -0.584537
O2    O     O_3   0.688859 0.648895 0.171970 -0.582077
O3    O     O_3   0.707089 0.656224 0.539598 -0.629713
O4    O     O_3   0.321765 0.383059 0.376701 -0.634793
O5    O     O_R   0.540130 0.977910 0.661880 -0.580966
O6    O     O_R   0.511290 0.160150 0.379180 -0.594933
O7    O     O_R   0.488710 0.839850 0.620820 -0.599115
O8    O     O_R   0.311490 0.930960 0.479480 -0.579849
O9    O     O_R   0.688510 0.069040 0.520520 -0.580744
O10   O     O_R   0.362910 0.069020 0.520540 -0.574045
O11   O     O_R   0.637090 0.930980 0.479460 -0.563437
O12   O     O_3   0.447147 0.347104 0.821662 -0.587228

loop_
_geom_bond_atom_site_label_1
_geom_bond_atom_site_label_2
_ccdc_geom_bond_type
Cu1   O7    S    
C15   C18   A    
C46   H28   S    
C35   H1    S    
C34   C37   A    
C41   C42   S    
C49   H35   S    
C40   O3    S    
C43   C44   S    
C33   C36   A    
C32   H23   S    
C27   C33   A    
C5    H6    S    
C12   C28   S    
C23   C29   A    
C19   C21   A    
C24   C26   T    
C10   C15   A    
C1    O6    A    
Cu1   N2    S    
C21   H2    S    
C7    N1    A    
C43   O4    S    
C31   H31   S    
Cu2   O5    S    
C4    C13   A    
C17   O11   A    
Cu1   O1    S    
C46   H30   S    
C28   C35   A    
C22   C25   T    
C12   O5    A    
C37   C47   A    
C41   H19   S    
C38   H9    S    
C2    C34   A    
Cu1   O8    S    
C48   C50   A    
C1    O1    A    
C39   H13   S    
C6    H5    S    
Cu2   N1    S    
C7    H4    S    
C8    H3    S    
C44   C46   S    
C45   C47   A    
C11   C20   A    
C42   H22   S    
C17   C24   S    
C40   H17   S    
C30   C34   A    
C27   C31   A    
Cu1   Cu2   S    
C28   C32   A    
C29   H32   S    
C4    C6    A    
C16   O10   A    
C23   C50   A    
C25   C26   S    
C6    N2    A    
Cu2   O10   S    
C9    C14   A    
C2    C49   A    
C46   H29   S    
C17   O9    A    
C47   C48   A    
C45   C49   A    
C4    H8    S    
C42   H20   S    
C13   C21   A    
C36   C45   A    
C30   H33   S    
C2    O2    S    
C9    C11   A    
C12   O7    A    
C19   O4    S    
C8    C10   A    
C40   C41   S    
C50   O12   S    
C39   H14   S    
C48   H34   S    
C8    N2    A    
C39   O2    S    
C38   H11   S    
C43   H24   S    
C7    C9    A    
C42   H21   S    
C16   C22   S    
C35   C37   A    
C39   H15   S    
C14   C19   A    
C44   H27   S    
C3    C5    A    
C10   C13   A    
C43   H25   S    
Cu2   O9    S    
C44   H26   S    
C29   C31   A    
C30   C32   A    
C16   O8    A    
C33   H12   S    
C20   H36   S    
Cu2   O6    S    
C18   C20   A    
C3    C11   A    
C38   O12   S    
C23   C36   A    
C40   H16   S    
C1    C27   S    
C18   O3    S    
C14   C15   A    
C5    N1    A    
Cu1   O11   S    
C41   H18   S    
C38   H10   S    
C3    H7    S    
