data_mof_unit_66139.cif
_audit_creation_date              2012-12-10T19:09:00-0500
_audit_creation_method            fapswitch 2.2
_symmetry_space_group_name_H-M    P1
_symmetry_Int_Tables_number       1
_space_group_crystal_system       monoclinic
_cell_length_a                    30.257672
_cell_length_b                    30.257672
_cell_length_c                    18.253221
_cell_angle_alpha                 90.0
_cell_angle_beta                  90.000022
_cell_angle_gamma                 90.0
_cell_volume                      16711.3114577

loop_
_atom_site_label
_atom_site_type_symbol
_atom_type_description
_atom_site_fract_x
_atom_site_fract_y
_atom_site_fract_z
_atom_type_partial_charge
C1    C     C_R   0.226350 0.000000 0.500000 -0.205161
C2    C     C_R   0.000000 0.226350 0.500000 -0.205160
C3    C     C_R   0.773649 0.000000 0.500000 -0.205160
C4    C     C_R   0.000000 0.773649 0.500000 -0.205160
C5    C     C_R   0.726350 0.500000 0.000000 -0.205160
C6    C     C_R   0.500000 0.726350 1.000000 -0.205160
C7    C     C_R   0.273649 0.500000 1.000000 -0.205160
C8    C     C_R   0.500000 0.273649 0.000000 -0.205160
C9    C     C_R   0.203462 0.031630 0.457489 -0.057340
C10   C     C_R   0.968370 0.203462 0.457489 -0.057341
C11   C     C_R   0.796538 0.968370 0.457489 -0.057340
C12   C     C_R   0.031630 0.796538 0.457490 -0.057340
C13   C     C_R   0.796538 0.031630 0.542511 -0.057340
C14   C     C_R   0.031630 0.203462 0.542511 -0.057340
C15   C     C_R   0.203462 0.968370 0.542511 -0.057340
C16   C     C_R   0.968370 0.796538 0.542510 -0.057340
C17   C     C_R   0.703462 0.531630 0.957489 -0.057339
C18   C     C_R   0.468370 0.703462 0.957489 -0.057340
C19   C     C_R   0.296538 0.468370 0.957489 -0.057340
C20   C     C_R   0.531630 0.296538 0.957489 -0.057340
C21   C     C_R   0.296538 0.531630 0.042510 -0.057340
C22   C     C_R   0.531630 0.703462 0.042511 -0.057341
C23   C     C_R   0.703462 0.468370 0.042511 -0.057341
C24   C     C_R   0.468370 0.296538 0.042511 -0.057340
C25   C     C_R   0.157271 0.032357 0.459014 0.379590
C26   C     C_R   0.967643 0.157271 0.459014 0.379590
C27   C     C_R   0.842729 0.967643 0.459014 0.379590
C28   C     C_R   0.032357 0.842729 0.459015 0.379590
C29   C     C_R   0.842729 0.032357 0.540985 0.379590
C30   C     C_R   0.032357 0.157271 0.540985 0.379589
C31   C     C_R   0.157271 0.967643 0.540986 0.379590
C32   C     C_R   0.967643 0.842729 0.540985 0.379590
C33   C     C_R   0.657271 0.532357 0.959014 0.379590
C34   C     C_R   0.467643 0.657271 0.959014 0.379591
C35   C     C_R   0.342729 0.467643 0.959014 0.379590
C36   C     C_R   0.532357 0.342729 0.959014 0.379590
C37   C     C_R   0.342729 0.532357 0.040985 0.379590
C38   C     C_R   0.532357 0.657271 0.040986 0.379590
C39   C     C_R   0.657271 0.467643 0.040986 0.379590
C40   C     C_R   0.467643 0.342729 0.040986 0.379591
C41   C     C_R   0.134240 0.000000 0.500000 -0.285428
C42   C     C_R   0.000000 0.134240 0.500000 -0.285429
C43   C     C_R   0.865760 0.000000 0.500000 -0.285428
C44   C     C_R   0.000000 0.865760 0.500000 -0.285428
C45   C     C_R   0.634239 0.500000 0.000000 -0.285429
C46   C     C_R   0.500000 0.634239 0.000000 -0.285428
C47   C     C_R   0.365760 0.500000 1.000000 -0.285428
C48   C     C_R   0.500000 0.365760 0.000000 -0.285428
C49   C     C_R   0.413946 0.000000 0.500000 0.825661
C50   C     C_R   1.000000 0.413946 0.500000 0.825660
C51   C     C_R   0.586054 0.000000 0.500000 0.825660
C52   C     C_R   0.000000 0.586054 0.500000 0.825659
C53   C     C_R   0.913945 0.500000 0.000000 0.825661
C54   C     C_R   0.500000 0.913945 0.000000 0.825661
C55   C     C_R   0.086054 0.500000 0.000000 0.825660
C56   C     C_R   0.500000 0.086054 0.000000 0.825660
C57   C     C_R   0.500000 0.000000 0.358956 0.889636
C58   C     C_R   0.000000 0.500000 0.358956 0.889636
C59   C     C_R   0.500000 0.000000 0.641044 0.889636
C60   C     C_R   1.000000 0.500000 0.641044 0.889636
C61   C     C_R   0.000000 0.500000 0.858956 0.889636
C62   C     C_R   0.500000 0.000000 0.858956 0.889636
C63   C     C_R   0.000000 0.500000 0.141044 0.889636
C64   C     C_R   0.500000 0.000000 0.141044 0.889636
C65   C     C_R   1.000000 0.913718 0.500000 0.825147
C66   C     C_R   0.086282 0.000000 0.500000 0.825147
C67   C     C_R   0.000000 0.086282 0.500000 0.825147
C68   C     C_R   0.913718 0.000000 0.500000 0.825147
C69   C     C_R   0.500000 0.413718 0.000000 0.825147
C70   C     C_R   0.586282 0.500000 0.000000 0.825147
C71   C     C_R   0.500000 0.586282 0.000000 0.825147
C72   C     C_R   0.413718 0.500000 1.000000 0.825147
C73   C     C_1   0.500000 0.000000 0.282419 -0.132768
C74   C     C_1   1.000000 0.500000 0.282419 -0.132768
C75   C     C_1   0.500000 0.000000 0.717581 -0.132768
C76   C     C_1   0.000000 0.500000 0.717581 -0.132768
C77   C     C_1   0.000000 0.500000 0.782419 -0.132768
C78   C     C_1   0.500000 0.000000 0.782419 -0.132768
C79   C     C_1   1.000000 0.500000 0.217581 -0.132768
C80   C     C_1   0.500000 0.000000 0.217581 -0.132768
C81   C     C_R   0.297092 0.016774 0.560358 -0.065118
C82   C     C_R   0.983226 0.297092 0.560358 -0.065118
C83   C     C_R   0.702908 0.983226 0.560358 -0.065118
C84   C     C_R   0.016773 0.702908 0.560358 -0.065118
C85   C     C_R   0.702908 0.016774 0.439642 -0.065118
C86   C     C_R   0.016774 0.297092 0.439642 -0.065118
C87   C     C_R   0.297092 0.983226 0.439642 -0.065118
C88   C     C_R   0.983227 0.702908 0.439641 -0.065118
C89   C     C_R   0.797092 0.516774 0.060358 -0.065119
C90   C     C_R   0.483226 0.797092 0.060358 -0.065119
C91   C     C_R   0.202908 0.483226 0.060358 -0.065118
C92   C     C_R   0.516774 0.202908 0.060358 -0.065118
C93   C     C_R   0.202908 0.516774 0.939641 -0.065118
C94   C     C_R   0.516774 0.797092 0.939642 -0.065119
C95   C     C_R   0.797092 0.483226 0.939642 -0.065118
C96   C     C_R   0.483226 0.202908 0.939642 -0.065119
C97   C     C_R   0.342931 0.016653 0.561675 0.426723
C98   C     C_R   0.983347 0.342931 0.561675 0.426722
C99   C     C_R   0.657069 0.983347 0.561675 0.426723
C100  C     C_R   0.016653 0.657069 0.561675 0.426723
C101  C     C_R   0.657069 0.016653 0.438325 0.426723
C102  C     C_R   0.016653 0.342931 0.438325 0.426723
C103  C     C_R   0.342930 0.983347 0.438325 0.426723
C104  C     C_R   0.983347 0.657069 0.438325 0.426723
C105  C     C_R   0.842931 0.516653 0.061675 0.426724
C106  C     C_R   0.483347 0.842930 0.061675 0.426723
C107  C     C_R   0.157070 0.483347 0.061675 0.426723
C108  C     C_R   0.516653 0.157069 0.061675 0.426723
C109  C     C_R   0.157069 0.516653 0.938325 0.426723
C110  C     C_R   0.516653 0.842930 0.938325 0.426723
C111  C     C_R   0.842930 0.483347 0.938325 0.426723
C112  C     C_R   0.483347 0.157070 0.938325 0.426723
C113  C     C_R   0.366193 0.000000 0.500000 -0.263893
C114  C     C_R   1.000000 0.366193 0.500000 -0.263893
C115  C     C_R   0.633807 0.000000 0.500000 -0.263893
C116  C     C_R   0.000000 0.633807 0.500000 -0.263892
C117  C     C_R   0.866193 0.500000 0.000000 -0.263893
C118  C     C_R   0.500000 0.866193 0.000000 -0.263893
C119  C     C_R   0.133806 0.500000 1.000000 -0.263893
C120  C     C_R   0.500000 0.133806 0.000000 -0.263892
C121  C     C_R   0.274455 0.000000 0.500000 -0.008797
C122  C     C_R   0.000000 0.274455 0.500000 -0.008797
C123  C     C_R   0.725545 0.000000 0.500000 -0.008797
C124  C     C_R   0.000000 0.725545 0.500000 -0.008797
C125  C     C_R   0.774455 0.500000 0.000000 -0.008797
C126  C     C_R   0.500000 0.774455 1.000000 -0.008797
C127  C     C_R   0.225545 0.500000 1.000000 -0.008797
C128  C     C_R   0.500000 0.225545 0.000000 -0.008797
H1    H     H_    0.278925 0.029546 0.606966 0.179524
H2    H     H_    0.970454 0.278925 0.606966 0.179524
H3    H     H_    0.721075 0.970454 0.606966 0.179524
H4    H     H_    0.029545 0.721075 0.606967 0.179524
H5    H     H_    0.721075 0.029546 0.393033 0.179524
H6    H     H_    0.029546 0.278925 0.393034 0.179524
H7    H     H_    0.278925 0.970453 0.393034 0.179524
H8    H     H_    0.970455 0.721075 0.393033 0.179524
H9    H     H_    0.778925 0.529546 0.106966 0.179524
H10   H     H_    0.470454 0.778925 0.106966 0.179524
H11   H     H_    0.221075 0.470454 0.106966 0.179524
H12   H     H_    0.529546 0.221075 0.106966 0.179524
H13   H     H_    0.221075 0.529546 0.893033 0.179524
H14   H     H_    0.529546 0.778925 0.893034 0.179524
H15   H     H_    0.778925 0.470454 0.893034 0.179524
H16   H     H_    0.470454 0.221075 0.893034 0.179524
O1    O     O_R   0.434530 0.036970 0.500000 -0.596570
O2    O     O_R   0.963030 0.434530 0.500000 -0.596570
O3    O     O_R   0.565470 0.963030 0.500000 -0.596570
O4    O     O_R   0.036970 0.565470 0.500000 -0.596571
O5    O     O_R   0.565470 0.036970 0.500000 -0.596571
O6    O     O_R   0.036970 0.434530 0.500000 -0.596571
O7    O     O_R   0.434530 0.963030 0.500000 -0.596570
O8    O     O_R   0.963030 0.565470 0.500000 -0.596570
O9    O     O_R   0.934530 0.536970 0.000000 -0.596571
O10   O     O_R   0.463030 0.934530 0.000000 -0.596570
O11   O     O_R   0.065470 0.463030 0.000000 -0.596570
O12   O     O_R   0.536970 0.065470 0.000000 -0.596571
O13   O     O_R   0.065470 0.536970 0.000000 -0.596571
O14   O     O_R   0.536970 0.934530 0.000000 -0.596571
O15   O     O_R   0.934530 0.463030 0.000000 -0.596570
O16   O     O_R   0.463030 0.065470 0.000000 -0.596570
O17   O     O_R   0.500010 0.036970 0.392670 -0.606306
O18   O     O_R   0.963030 0.500010 0.392670 -0.606305
O19   O     O_R   0.499990 0.963030 0.392670 -0.606305
O20   O     O_R   0.036970 0.499990 0.392670 -0.606306
O21   O     O_R   0.499990 0.036970 0.607330 -0.606306
O22   O     O_R   0.036970 0.500010 0.607330 -0.606306
O23   O     O_R   0.500010 0.963030 0.607330 -0.606305
O24   O     O_R   0.963030 0.499990 0.607330 -0.606305
O25   O     O_R   0.000010 0.536970 0.892670 -0.606306
O26   O     O_R   0.463030 0.000010 0.892670 -0.606305
O27   O     O_R   0.999990 0.463030 0.892670 -0.606305
O28   O     O_R   0.536970 0.999990 0.892670 -0.606306
O29   O     O_R   0.999990 0.536970 0.107330 -0.606306
O30   O     O_R   0.536970 0.000010 0.107330 -0.606306
O31   O     O_R   0.000010 0.463030 0.107330 -0.606305
O32   O     O_R   0.463030 0.999990 0.107330 -0.606305
O33   O     O_R   0.999990 0.934550 0.439420 -0.591672
O34   O     O_R   0.065450 0.999990 0.439420 -0.591672
O35   O     O_R   0.000010 0.065450 0.439420 -0.591673
O36   O     O_R   0.934550 0.000010 0.439420 -0.591673
O37   O     O_R   0.000010 0.934550 0.560580 -0.591673
O38   O     O_R   0.934550 0.999990 0.560580 -0.591672
O39   O     O_R   0.999990 0.065450 0.560580 -0.591673
O40   O     O_R   0.065450 0.000010 0.560580 -0.591673
O41   O     O_R   0.499990 0.434550 0.939420 -0.591672
O42   O     O_R   0.565450 0.499990 0.939420 -0.591673
O43   O     O_R   0.500010 0.565450 0.939420 -0.591673
O44   O     O_R   0.434550 0.500010 0.939420 -0.591673
O45   O     O_R   0.500010 0.434550 0.060580 -0.591673
O46   O     O_R   0.434550 0.499990 0.060580 -0.591672
O47   O     O_R   0.499990 0.565450 0.060580 -0.591673
O48   O     O_R   0.565450 0.500010 0.060580 -0.591673
Zn1   Zn    Zn3+2 0.500000 0.049360 0.500000 1.062045
Zn2   Zn    Zn3+2 0.950640 0.500000 0.500000 1.062045
Zn3   Zn    Zn3+2 0.500000 0.950640 0.500000 1.062045
Zn4   Zn    Zn3+2 0.049360 0.500000 0.500000 1.062045
Zn5   Zn    Zn3+2 0.000000 0.549360 0.000000 1.062045
Zn6   Zn    Zn3+2 0.450640 0.000000 0.000000 1.062045
Zn7   Zn    Zn3+2 0.000000 0.450640 0.000000 1.062045
Zn8   Zn    Zn3+2 0.549360 0.000000 0.000000 1.062045
Zn9   Zn    Zn3+2 0.000000 0.000000 0.419090 1.087156
Zn10  Zn    Zn3+2 0.000000 0.000000 0.580910 1.087156
Zn11  Zn    Zn3+2 0.500000 0.500000 0.919090 1.087156
Zn12  Zn    Zn3+2 0.500000 0.500000 0.080910 1.087156
O49   O     O_3   0.363140 0.032492 0.624371 -0.721035
H17   H     H_    0.395042 0.025521 0.623758 0.337191
O50   O     O_3   0.967509 0.363140 0.624372 -0.721035
H18   H     H_    0.974479 0.395042 0.623759 0.337190
O51   O     O_3   0.636861 0.967509 0.624372 -0.721035
H19   H     H_    0.604958 0.974479 0.623759 0.337190
O52   O     O_3   0.032490 0.636860 0.624372 -0.721036
H20   H     H_    0.025521 0.604958 0.623759 0.337190
O53   O     O_3   0.636860 0.032491 0.375628 -0.721035
H21   H     H_    0.604958 0.025521 0.376241 0.337190
O54   O     O_3   0.032491 0.363140 0.375628 -0.721036
H22   H     H_    0.025521 0.395042 0.376241 0.337191
O55   O     O_3   0.363139 0.967508 0.375628 -0.721035
H23   H     H_    0.395042 0.974479 0.376242 0.337191
O56   O     O_3   0.967510 0.636860 0.375627 -0.721036
H24   H     H_    0.974479 0.604958 0.376241 0.337190
O57   O     O_3   0.863140 0.532491 0.124372 -0.721035
H25   H     H_    0.895042 0.525521 0.123759 0.337190
O58   O     O_3   0.467508 0.863139 0.124372 -0.721035
H26   H     H_    0.474479 0.895042 0.123758 0.337191
O59   O     O_3   0.136861 0.467509 0.124372 -0.721035
H27   H     H_    0.104958 0.474479 0.123759 0.337190
O60   O     O_3   0.532491 0.136860 0.124372 -0.721036
H28   H     H_    0.525521 0.104958 0.123759 0.337191
O61   O     O_3   0.136860 0.532491 0.875628 -0.721035
H29   H     H_    0.104958 0.525521 0.876241 0.337190
O62   O     O_3   0.532492 0.863139 0.875628 -0.721035
H30   H     H_    0.525521 0.895042 0.876241 0.337191
O63   O     O_3   0.863139 0.467509 0.875628 -0.721035
H31   H     H_    0.895042 0.474479 0.876241 0.337190
O64   O     O_3   0.467509 0.136860 0.875628 -0.721036
H32   H     H_    0.474479 0.104958 0.876241 0.337191
C129  C     C_2   0.227252 0.065475 0.413006 1.011123
O65   O     O_2   0.260440 0.083473 0.436940 -0.612941
O66   O     O_R   0.211199 0.077131 0.343802 -0.711518
H33   H     H_    0.229987 0.100508 0.319028 0.357814
C130  C     C_2   0.934525 0.227252 0.413007 1.011123
O67   O     O_2   0.916527 0.260440 0.436941 -0.612941
O68   O     O_R   0.922868 0.211199 0.343803 -0.711517
H34   H     H_    0.899491 0.229987 0.319029 0.357813
C131  C     C_2   0.772748 0.934525 0.413007 1.011122
O69   O     O_2   0.739560 0.916527 0.436941 -0.612940
O70   O     O_R   0.788801 0.922869 0.343803 -0.711517
H35   H     H_    0.770013 0.899491 0.319028 0.357814
C132  C     C_2   0.065476 0.772748 0.413008 1.011123
O71   O     O_2   0.083474 0.739560 0.436942 -0.612941
O72   O     O_R   0.077132 0.788801 0.343804 -0.711518
H36   H     H_    0.100510 0.770013 0.319030 0.357814
C133  C     C_2   0.772748 0.065475 0.586993 1.011124
O73   O     O_2   0.739560 0.083473 0.563059 -0.612941
O74   O     O_R   0.788801 0.077131 0.656197 -0.711518
H37   H     H_    0.770013 0.100509 0.680971 0.357814
C134  C     C_2   0.065475 0.227252 0.586993 1.011123
O75   O     O_2   0.083473 0.260440 0.563059 -0.612941
O76   O     O_R   0.077131 0.211199 0.656197 -0.711518
H38   H     H_    0.100509 0.229987 0.680971 0.357814
C135  C     C_2   0.227252 0.934525 0.586994 1.011123
O77   O     O_2   0.260440 0.916527 0.563060 -0.612941
O78   O     O_R   0.211199 0.922869 0.656198 -0.711518
H39   H     H_    0.229987 0.899492 0.680972 0.357814
C136  C     C_2   0.934524 0.772748 0.586992 1.011123
O79   O     O_2   0.916526 0.739560 0.563058 -0.612941
O80   O     O_R   0.922868 0.788801 0.656196 -0.711518
H40   H     H_    0.899490 0.770013 0.680970 0.357814
C137  C     C_2   0.727252 0.565475 0.913007 1.011123
O81   O     O_2   0.760440 0.583473 0.936941 -0.612941
O82   O     O_R   0.711199 0.577131 0.843803 -0.711518
H41   H     H_    0.729986 0.600509 0.819028 0.357814
C138  C     C_2   0.434525 0.727252 0.913007 1.011123
O83   O     O_2   0.416527 0.760440 0.936940 -0.612941
O84   O     O_R   0.422869 0.711199 0.843802 -0.711518
H42   H     H_    0.399491 0.729986 0.819028 0.357814
C139  C     C_2   0.272748 0.434525 0.913007 1.011124
O85   O     O_2   0.239560 0.416526 0.936941 -0.612941
O86   O     O_R   0.288801 0.422868 0.843803 -0.711518
H43   H     H_    0.270013 0.399491 0.819029 0.357814
C140  C     C_2   0.565475 0.272748 0.913007 1.011122
O87   O     O_2   0.583473 0.239560 0.936941 -0.612940
O88   O     O_R   0.577131 0.288801 0.843803 -0.711517
H44   H     H_    0.600509 0.270013 0.819028 0.357814
C141  C     C_2   0.272748 0.565475 0.086993 1.011123
O89   O     O_2   0.239560 0.583474 0.063059 -0.612940
O90   O     O_R   0.288801 0.577132 0.156197 -0.711517
H45   H     H_    0.270013 0.600509 0.180971 0.357814
C142  C     C_2   0.565475 0.727252 0.086993 1.011123
O91   O     O_2   0.583473 0.760440 0.063060 -0.612940
O92   O     O_R   0.577131 0.711199 0.156197 -0.711518
H46   H     H_    0.600508 0.729987 0.180972 0.357814
C143  C     C_2   0.727252 0.434525 0.086993 1.011123
O93   O     O_2   0.760440 0.416527 0.063059 -0.612940
O94   O     O_R   0.711199 0.422869 0.156197 -0.711518
H47   H     H_    0.729987 0.399491 0.180972 0.357814
C144  C     C_2   0.434525 0.272748 0.086993 1.011123
O95   O     O_2   0.416527 0.239560 0.063059 -0.612940
O96   O     O_R   0.422869 0.288801 0.156197 -0.711518
H48   H     H_    0.399491 0.270013 0.180972 0.357814
O97   O     O_3   0.135878 0.066078 0.421878 -0.685333
H49   H     H_    0.106476 0.071444 0.443766 0.330860
O98   O     O_3   0.933922 0.135878 0.421879 -0.685333
H50   H     H_    0.928556 0.106476 0.443766 0.330860
O99   O     O_3   0.864122 0.933922 0.421879 -0.685332
H51   H     H_    0.893524 0.928556 0.443766 0.330860
O100  O     O_3   0.066078 0.864122 0.421880 -0.685333
H52   H     H_    0.071444 0.893524 0.443767 0.330859
O101  O     O_3   0.864122 0.066078 0.578121 -0.685333
H53   H     H_    0.893524 0.071444 0.556234 0.330860
O102  O     O_3   0.066078 0.135878 0.578121 -0.685332
H54   H     H_    0.071444 0.106476 0.556233 0.330859
O103  O     O_3   0.135878 0.933922 0.578122 -0.685333
H55   H     H_    0.106476 0.928556 0.556234 0.330860
O104  O     O_3   0.933922 0.864122 0.578120 -0.685333
H56   H     H_    0.928556 0.893524 0.556233 0.330860
O105  O     O_3   0.635878 0.566078 0.921879 -0.685333
H57   H     H_    0.606476 0.571444 0.943766 0.330859
O106  O     O_3   0.433922 0.635878 0.921879 -0.685333
H58   H     H_    0.428556 0.606476 0.943766 0.330860
O107  O     O_3   0.364122 0.433922 0.921879 -0.685333
H59   H     H_    0.393524 0.428556 0.943766 0.330860
O108  O     O_3   0.566078 0.364122 0.921879 -0.685332
H60   H     H_    0.571444 0.393524 0.943766 0.330860
O109  O     O_3   0.364122 0.566078 0.078121 -0.685333
H61   H     H_    0.393524 0.571444 0.056233 0.330860
O110  O     O_3   0.566078 0.635878 0.078121 -0.685333
H62   H     H_    0.571444 0.606476 0.056234 0.330860
O111  O     O_3   0.635878 0.433922 0.078121 -0.685333
H63   H     H_    0.606476 0.428556 0.056234 0.330860
O112  O     O_3   0.433922 0.364122 0.078121 -0.685333
H64   H     H_    0.428556 0.393524 0.056234 0.330860

loop_
_geom_bond_atom_site_label_1
_geom_bond_atom_site_label_2
_ccdc_geom_bond_type
C49   C113  S    
C33   C45   A    
C108  C120  A    
O92   H46   S    
C58   O20   A    
C110  C118  A    
C70   O48   A    
C89   C125  A    
O97   H49   S    
C68   O38   A    
C91   C127  A    
C98   C114  A    
O82   H41   S    
C22   C38   A    
C90   H10   S    
C104  C116  A    
C86   H6    S    
O58   H26   S    
C101  O53   S    
C43   C68   S    
O14   Zn8   S    
C1    C15   A    
O2    Zn2   S    
C3    C13   A    
C18   C138  S    
C35   C47   A    
C131  O69   D    
C106  C118  A    
C82   C98   A    
C3    C123  S    
C63   O29   A    
C39   O111  S    
C62   O26   A    
C53   O15   A    
C49   O7    A    
O108  H60   S    
C11   C131  S    
C91   C107  A    
O72   H36   S    
C17   C137  S    
O36   Zn9   S    
C25   C41   A    
C112  C120  A    
C55   C119  S    
C28   C44   A    
C12   C132  S    
C81   C121  A    
C50   C114  S    
O54   H22   S    
C83   H3    S    
O61   H29   S    
C102  C114  A    
C96   H16   S    
C81   H1    S    
O60   H28   S    
C11   C27   A    
C90   C126  A    
C36   O108  S    
C87   C103  A    
C7    C19   A    
C74   C79   T    
C137  O82   S    
C101  C115  A    
C61   O25   A    
C20   C140  S    
C64   O30   A    
C58   O18   A    
C69   O41   A    
C59   O23   A    
C133  O74   S    
C40   C48   A    
O23   Zn3   S    
C71   O43   A    
C14   C134  S    
C54   O10   A    
C63   C79   S    
C112  O64   S    
O8    Zn2   S    
C141  O90   S    
C19   C35   A    
O46   Zn12  S    
C85   C123  A    
C2    C14   A    
C3    C11   A    
C57   O17   A    
O107  H59   S    
C67   O35   A    
C134  O76   S    
C82   C122  A    
C53   O9    A    
C88   C124  A    
C55   O11   A    
C132  O71   D    
O57   H25   S    
O22   Zn4   S    
C135  O77   D    
O10   Zn6   S    
C4    C124  S    
C130  O67   D    
C57   C73   S    
C50   O6    A    
O5    Zn1   S    
C92   C108  A    
C61   C77   S    
C5    C23   A    
C34   C46   A    
C64   O32   A    
C30   O102  S    
C16   C136  S    
C59   O21   A    
C40   O112  S    
C39   C45   A    
C52   O4    A    
C129  O65   D    
C144  O96   S    
C44   C65   S    
C10   C130  S    
C72   O46   A    
C34   O106  S    
C88   C104  A    
O59   H27   S    
O29   Zn5   S    
C94   H14   S    
O55   H23   S    
C84   H4    S    
C4    C16   A    
C104  O56   S    
C143  O93   D    
C15   C135  S    
C106  O58   S    
C57   O19   A    
O64   H32   S    
O51   H19   S    
O17   Zn1   S    
C136  O80   S    
O31   Zn7   S    
C67   O39   A    
C9    C129  S    
C42   C67   S    
O33   Zn9   S    
C4    C12   A    
C86   C102  A    
O11   Zn7   S    
C58   C74   S    
O25   Zn5   S    
C99   O51   S    
C31   C41   A    
C62   C78   S    
O32   Zn6   S    
O80   H40   S    
O20   Zn4   S    
C15   C31   A    
C41   C66   S    
C140  O88   S    
C100  O52   S    
C111  C117  A    
C97   O49   S    
C139  O86   S    
C24   C144  S    
C65   O33   A    
C105  O57   S    
C107  O59   S    
O15   Zn7   S    
C138  O84   S    
O42   Zn11  S    
O28   Zn8   S    
C1    C121  S    
C38   C46   A    
C110  O62   S    
C70   O42   A    
O34   Zn9   S    
C5    C125  S    
O88   H44   S    
C7    C127  S    
C97   C113  A    
O76   H38   S    
C93   C109  A    
C95   H15   S    
O66   H33   S    
C100  C116  A    
C9    C25   A    
O78   H39   S    
O53   H21   S    
C26   C42   A    
C29   O101  S    
C26   O98   S    
C12   C28   A    
C13   C29   A    
C99   C115  A    
C5    C17   A    
O68   H34   S    
C6    C22   A    
O43   Zn11  S    
C96   C128  A    
C144  O95   D    
O7    Zn3   S    
C22   C142  S    
C38   O110  S    
C109  O61   S    
O35   Zn9   S    
C86   C122  A    
O86   H43   S    
O1    Zn1   S    
C56   O12   A    
C50   O2    A    
C2    C122  S    
O104  H56   S    
C83   C99   A    
C137  O81   D    
C29   C43   A    
C64   C80   S    
C105  C117  A    
C17   C33   A    
C107  C119  A    
C52   C116  S    
O45   Zn12  S    
O50   H18   S    
C87   H7    S    
C1    C9    A    
C88   H8    S    
C33   O105  S    
O56   H24   S    
C87   C121  A    
O16   Zn6   S    
O49   H17   S    
C94   C110  A    
C51   C115  S    
O100  H52   S    
C84   C100  A    
O96   H48   S    
C141  O89   D    
C37   O109  S    
C66   O34   A    
O52   H20   S    
O19   Zn3   S    
C52   O8    A    
C49   O1    A    
C8    C20   A    
C6    C126  S    
C46   C71   S    
C91   H11   S    
C19   C139  S    
C89   H9    S    
C131  O70   S    
C98   O50   S    
C16   C32   A    
O47   Zn12  S    
C92   H12   S    
O94   H47   S    
C93   H13   S    
C109  C119  A    
C45   C70   S    
O38   Zn10  S    
O39   Zn10  S    
C108  O60   S    
O30   Zn8   S    
O41   Zn11  S    
O110  H62   S    
C7    C21   A    
O103  H55   S    
C133  O73   D    
C111  O63   S    
C60   C76   S    
O13   Zn5   S    
O109  H61   S    
C60   O22   A    
C47   C72   S    
C90   C106  A    
O106  H58   S    
C20   C36   A    
C27   C43   A    
C55   O13   A    
C21   C37   A    
C51   O5    A    
C56   O16   A    
O99   H51   S    
C30   C42   A    
C83   C123  A    
C23   C143  S    
C21   C141  S    
C85   H5    S    
O102  H54   S    
O111  H63   S    
O37   Zn10  S    
C48   C69   S    
O112  H64   S    
C65   O37   A    
O101  H53   S    
C96   C112  A    
C60   O24   A    
C103  C113  A    
C134  O75   D    
C53   C117  S    
O9    Zn5   S    
C25   O97   S    
C72   O44   A    
O27   Zn7   S    
C8    C24   A    
O4    Zn4   S    
O98   H50   S    
C36   C48   A    
C82   H2    S    
C136  O79   D    
C31   O103  S    
O24   Zn2   S    
C56   C120  S    
O12   Zn8   S    
C14   C30   A    
C92   C128  A    
C142  O92   S    
C8    C128  S    
C94   C126  A    
O48   Zn12  S    
C6    C18   A    
C132  O72   S    
O40   Zn10  S    
C76   C77   T    
C69   O45   A    
C135  O78   S    
C32   O104  S    
C140  O87   D    
C68   O36   A    
C27   O99   S    
C130  O68   S    
C93   C127  A    
C54   O14   A    
C95   C125  A    
C51   O3    A    
C13   C133  S    
O18   Zn2   S    
C138  O83   D    
C32   C44   A    
O3    Zn3   S    
C18   C34   A    
O6    Zn4   S    
C103  O55   S    
C61   O27   A    
O84   H42   S    
C129  O66   S    
O90   H45   S    
C28   O100  S    
C37   C47   A    
C35   O107  S    
C89   C105  A    
O74   H37   S    
C2    C10   A    
C54   C118  S    
C59   C75   S    
O26   Zn6   S    
C85   C101  A    
C142  O91   D    
O63   H31   S    
C66   O40   A    
O21   Zn1   S    
O70   H35   S    
C63   O31   A    
C84   C124  A    
C62   O28   A    
O44   Zn11  S    
C71   O47   A    
C143  O94   S    
C95   C111  A    
C10   C26   A    
C81   C97   A    
C23   C39   A    
C24   C40   A    
C73   C80   T    
O105  H57   S    
C75   C78   T    
C102  O54   S    
O62   H30   S    
C139  O85   D    
