data_mof_unit_22650.cif
_audit_creation_date              2012-12-11T18:06:58-0500
_audit_creation_method            fapswitch 2.2
_symmetry_space_group_name_H-M    P1
_symmetry_Int_Tables_number       1
_space_group_crystal_system       triclinic
_cell_length_a                    8.351754
_cell_length_b                    12.77562
_cell_length_c                    26.926452
_cell_angle_alpha                 96.752316
_cell_angle_beta                  92.366642
_cell_angle_gamma                 81.219679
_cell_volume                      2818.85928569

loop_
_atom_site_label
_atom_site_type_symbol
_atom_type_description
_atom_site_fract_x
_atom_site_fract_y
_atom_site_fract_z
_atom_type_partial_charge
Ba1   Ba    Ba6+2 0.859560 0.448380 0.523550 1.647081
Ba2   Ba    Ba6+2 0.330270 0.551530 0.476440 1.656210
C1    C     C_3   0.580689 0.101658 0.673220 -0.321727
C2    C     C_3   0.582512 0.202335 0.648117 0.440174
C3    C     C_3   0.465742 0.734549 0.629073 0.316601
C4    C     C_3   0.472040 0.774100 0.684983 -0.180064
C5    C     C_3   0.954203 0.832719 0.341139 0.473072
C6    C     C_3   0.846020 0.933033 0.325694 -0.070200
C7    C     C_3   0.477594 0.815245 0.321143 0.411542
C8    C     C_3   0.389140 0.891402 0.286187 -0.234098
C9    C     C_R   0.035181 0.411168 0.178278 0.604054
C10   C     C_R   0.911906 0.593224 0.178539 0.611682
C11   C     C_2   0.753676 0.553305 0.269544 -0.123288
C12   C     C_3   0.013967 0.156217 0.646300 0.368233
C13   C     C_3   0.727005 0.600213 0.322792 -0.056039
C14   C     C_1   0.981210 0.486538 0.345348 0.016820
C15   C     C_2   0.023455 0.472326 0.297033 -0.159196
C16   C     C_2   0.904369 0.506830 0.255848 0.208741
C17   C     C_R   0.031623 0.498611 0.101610 -0.083654
C18   C     C_R   0.076581 0.408062 0.127234 -0.040797
C19   C     C_R   0.160296 0.315935 0.101040 -0.050182
C20   C     C_R   0.949223 0.591618 0.127759 -0.030715
C21   C     C_2   0.846851 0.552729 0.360278 -0.050522
C22   C     C_2   0.360937 0.495704 0.640030 -0.293629
C23   C     C_3   0.034015 0.140140 0.702271 0.085148
C24   C     C_R   0.196385 0.402325 0.972606 0.019550
C25   C     C_R   0.049145 0.584937 0.972487 0.021393
C26   C     C_R   0.140966 0.492931 0.946974 0.050616
C27   C     C_R   0.291190 0.314134 0.945607 -0.099578
C28   C     C_R   0.328366 0.314530 0.895527 -0.055728
C29   C     C_R   0.272642 0.402607 0.869660 -0.030557
C30   C     C_R   0.177918 0.491778 0.895269 -0.079167
C31   C     C_R   0.120527 0.580091 0.869211 -0.033535
C32   C     C_R   0.159562 0.578779 0.818429 0.587679
C33   C     C_R   0.310512 0.403544 0.818790 0.596032
C34   C     C_3   0.287911 0.216977 0.377363 0.351371
C35   C     C_2   0.455780 0.484998 0.729367 -0.053386
C36   C     C_3   0.502711 0.497256 0.676502 -0.002196
C37   C     C_1   0.211611 0.524510 0.655740 0.083811
C38   C     C_2   0.170093 0.513389 0.701742 -0.105440
C39   C     C_2   0.298174 0.493567 0.741811 0.207026
C40   C     C_R   0.156015 0.403017 0.024009 0.019940
C41   C     C_R   0.068769 0.496468 0.049846 0.052765
C42   C     C_R   0.018093 0.588079 0.024517 0.018948
C43   C     C_R   0.199399 0.313356 0.050848 -0.100691
C44   C     C_R   0.905482 0.682270 0.102774 -0.041390
C45   C     C_3   0.354705 0.208405 0.324288 -0.234494
C46   C     C_R   0.990203 0.670905 0.944681 -0.099506
C47   C     C_R   0.025438 0.668451 0.894455 -0.063583
C48   C     C_R   0.938967 0.680767 0.052554 -0.102839
C49   C     C_R   0.763435 0.824256 0.483671 -0.241295
C50   C     C_R   0.417554 0.185616 0.510544 -0.283537
C51   C     C_R   0.399763 0.008869 0.530040 -0.086154
C52   C     C_R   0.332242 0.115090 0.529852 0.051175
C53   C     C_R   0.568005 0.150396 0.488990 0.045199
C54   C     C_R   0.633610 0.040275 0.485113 -0.033918
C55   C     C_R   0.548355 0.969159 0.506965 -0.058038
C56   C     C_3   0.935119 0.783353 0.596317 0.401238
C57   C     C_R   0.615493 0.860534 0.505711 0.053628
C58   C     C_R   0.846998 0.891089 0.461115 0.026188
C59   C     C_R   0.782005 0.998862 0.461229 -0.086468
C60   C     C_3   0.844644 0.877996 0.628329 -0.302552
C61   C     C_3   0.693665 0.324261 0.378132 0.288540
C62   C     C_3   0.738137 0.301359 0.323207 -0.416020
H1    H     H_    0.648288 0.178677 0.612449 0.016862
H2    H     H_    0.380391 0.287343 0.316353 0.083368
H3    H     H_    0.470156 0.152123 0.322630 0.090170
H4    H     H_    0.846072 0.733946 0.578429 0.042116
H5    H     H_    0.777219 0.850228 0.657644 0.116743
H6    H     H_    0.759729 0.927703 0.604675 0.076265
H7    H     H_    0.931969 0.927335 0.647226 0.128309
H8    H     H_    0.789448 0.363489 0.399100 0.058792
H9    H     H_    0.577877 0.379331 0.381086 0.089162
H10   H     H_    0.518511 0.043778 0.648414 0.100366
H11   H     H_    0.869712 0.273497 0.319790 0.116273
H12   H     H_    0.706532 0.374400 0.304537 0.086517
H13   H     H_    0.671698 0.240059 0.303120 0.134417
H14   H     H_    0.516540 0.121092 0.709181 0.143761
H15   H     H_    0.338441 0.732554 0.616407 0.067083
H16   H     H_    0.537298 0.653794 0.622419 0.010390
H17   H     H_    0.449878 0.862819 0.690599 0.114524
H18   H     H_    0.595208 0.747303 0.700356 0.099560
H19   H     H_    0.705780 0.064107 0.681267 0.071269
H20   H     H_    0.873776 0.784193 0.357164 -0.304442
H21   H     H_    0.767953 0.912452 0.292621 0.078511
H22   H     H_    0.764421 0.967043 0.356952 0.082718
H23   H     H_    0.598418 0.786834 0.304739 -0.003750
H24   H     H_    0.374470 0.848318 0.248368 0.136641
H25   H     H_    0.459797 0.957112 0.283042 0.083649
H26   H     H_    0.928628 0.103702 0.628454 -0.004672
H27   H     H_    0.267870 0.925801 0.300636 0.142453
H28   H     H_    0.147791 0.441388 0.287185 0.127095
H29   H     H_    0.196287 0.244609 0.119367 0.143349
H30   H     H_    0.550566 0.475527 0.758019 0.092046
H31   H     H_    0.401971 0.244765 0.877026 0.121072
H32   H     H_    0.341093 0.243319 0.962273 0.069763
H33   H     H_    0.262299 0.238632 0.033967 0.072536
H34   H     H_    0.661561 0.576315 0.241635 0.111406
H35   H     H_    0.844016 0.755731 0.122071 0.134425
H36   H     H_    0.913633 0.741560 0.960319 0.069394
H37   H     H_    0.962311 0.239966 0.642878 0.075232
H38   H     H_    0.977381 0.737009 0.875351 0.119910
H39   H     H_    0.043902 0.528190 0.711901 0.128665
H40   H     H_    0.903015 0.755023 0.037140 0.072291
H41   H     H_    0.385774 0.479727 0.600366 0.077529
H42   H     H_    0.334396 0.958803 0.548632 0.107706
H43   H     H_    0.849305 0.048592 0.443076 0.107807
H44   H     H_    0.819644 0.743790 0.487330 0.034193
H45   H     H_    0.365431 0.268832 0.512007 0.071304
H46   H     H_    0.911376 0.151428 0.718234 0.118111
H47   H     H_    0.367675 0.258167 0.404314 0.057810
N1    N     N_R   0.952348 0.503142 0.203584 -0.424947
N2    N     N_R   0.254303 0.491290 0.793671 -0.426969
O1    O     O_2   0.907040 0.557650 0.617910 -0.474226
O2    O     O_3   0.676279 0.228757 0.396860 -0.645053
O3    O     O_3   0.163467 0.130804 0.622701 -0.623472
O4    O     O_2   0.282660 0.442310 0.382060 -0.486998
O5    O     O_3   0.050670 0.442340 0.442260 -0.475644
O6    O     O_3   0.504750 0.639360 0.411530 -0.436832
O7    O     O_3   0.128074 0.270611 0.379447 -0.645762
O8    O     O_3   0.618400 0.630290 0.524520 -0.469525
O9    O     O_3   0.090070 0.694820 0.435810 -0.494148
O10   O     O_2   0.181754 0.882855 0.466225 -0.476814
O11   O     O_3   0.078099 0.862855 0.374504 -0.603919
O12   O     O_3   0.139040 0.557570 0.557730 -0.497237
O13   O     O_3   0.571310 0.369620 0.475470 -0.494750
O14   O     O_2   0.348200 0.764910 0.523260 -0.477149
O15   O     O_3   0.533063 0.805340 0.603436 -0.683870
O16   O     O_2   0.430138 0.525385 0.325273 -0.493150
O17   O     O_3   0.387801 0.730850 0.323436 -0.578971
O18   O     O_2   0.070644 0.331422 0.199721 -0.571741
O19   O     O_2   0.393041 0.325977 0.796854 -0.593603
O20   O     O_2   0.842968 0.675860 0.200529 -0.582526
O21   O     O_2   0.111215 0.656546 0.796506 -0.603373
O22   O     O_3   0.684960 0.360550 0.588460 -0.488691
O23   O     O_2   0.835885 0.421804 0.673124 -0.506226
O24   O     O_3   0.047201 0.727798 0.627250 -0.646927
O25   O     O_3   0.662932 0.273751 0.680518 -0.612190
O26   O     O_2   0.841490 0.235060 0.476710 -0.442345
O27   O     O_3   0.099640 0.305100 0.564190 -0.474151
O28   O     O_2   0.996486 0.115374 0.537116 -0.505475
P1    P     P_3+3 0.072810 0.589830 0.610360 0.982843
P2    P     P_3+3 0.661990 0.251250 0.462170 0.980974
P3    P     P_3+3 0.141893 0.166062 0.561433 0.967084
P4    P     P_3+3 0.116900 0.410080 0.389630 0.971824
P5    P     P_3+3 0.046965 0.833868 0.434949 0.980817
P6    P     P_3+3 0.670551 0.391573 0.653572 0.940566
P7    P     P_3+3 0.530939 0.764951 0.539201 0.923341
P8    P     P_3+3 0.513057 0.622308 0.345384 0.980402
C63   C     C_2   0.241697 0.169455 0.283862 0.524640
H48   H     H_    0.115551 0.168434 0.291175 0.031955
O29   O     O_2   0.290633 0.141708 0.241567 -0.544552
N3    N     N_3   0.020890 0.822898 0.558360 -0.512755
H49   H     H_    0.114504 0.860974 0.575503 0.196759
H50   H     H_    0.071816 0.756368 0.534979 0.210985
N4    N     N_3   0.414840 0.247400 0.637873 -0.479659
H51   H     H_    0.369081 0.298260 0.668867 0.169214
H52   H     H_    0.410593 0.290876 0.607311 0.121546
N5    N     N_3   0.351719 0.732901 0.711951 -0.517291
H53   H     H_    0.237973 0.775870 0.704658 0.224307
H54   H     H_    0.375565 0.749980 0.750233 0.207809
N6    N     N_3   0.124192 0.218379 0.730389 -0.471603
H55   H     H_    0.242138 0.207187 0.717483 0.222100
H56   H     H_    0.069842 0.295174 0.724162 0.185849
C64   C     C_2   0.033349 0.762989 0.297284 0.600677
H57   H     H_    0.086085 0.681803 0.302013 -0.005664
O30   O     O_2   0.044180 0.796180 0.257041 -0.582658
N7    N     N_3   0.942822 0.013279 0.314986 -0.491715
H58   H     H_    0.980764 0.996025 0.278041 0.218889
H59   H     H_    0.866067 0.085942 0.316455 0.190610
N8    N     N_3   0.496037 0.873513 0.370686 -0.511010
H60   H     H_    0.584619 0.828694 0.391075 0.130485
H61   H     H_    0.387693 0.881261 0.389730 0.241868
N9    N     N_3   0.810389 0.590903 0.411421 -0.454863
H62   H     H_    0.906168 0.590967 0.435976 0.231014
H63   H     H_    0.774076 0.672493 0.411353 0.131313
N10   N     N_3   0.112428 0.031786 0.708609 -0.505426
H64   H     H_    0.113492 0.021963 0.746644 0.197218
H65   H     H_    0.233347 0.022414 0.698067 0.204692
N11   N     N_3   0.290361 0.110075 0.392040 -0.513854
H66   H     H_    0.241634 0.117842 0.427617 0.175030
H67   H     H_    0.211386 0.070296 0.368364 0.203956

loop_
_geom_bond_atom_site_label_1
_geom_bond_atom_site_label_2
_ccdc_geom_bond_type
C25   C46   A    
C56   C60   S    
C52   P3    S    
C53   C54   A    
C48   H40   S    
C64   H57   S    
C4    H18   S    
C17   C41   A    
C62   H13   S    
C17   C18   A    
C34   N11   S    
C13   P8    S    
C5    O11   S    
C44   H35   S    
C4    N5    S    
Ba2   O5    S    
C5    C6    S    
C21   N9    S    
C51   C52   A    
Ba2   P4    S    
N8    H61   S    
C8    H24   S    
C28   H31   S    
C11   C16   D    
C47   H38   S    
O1    P1    D    
N4    H51   S    
C35   C36   S    
C16   N1    S    
Ba1   Ba2   S    
C28   C29   A    
C23   N10   S    
C55   C57   A    
C14   C15   D    
C32   O21   D    
C31   C47   A    
C10   C20   A    
O13   P2    S    
C22   C37   D    
C54   C55   A    
C60   H6    S    
C34   C45   S    
O4    P4    D    
C6    H21   S    
C11   H34   S    
C1    H10   S    
N9    H62   S    
C12   H26   S    
Ba1   P1    S    
C6    N7    S    
O3    P3    S    
O26   P2    D    
C51   H42   S    
C12   O3    S    
N5    H53   S    
C8    H25   S    
C50   C52   A    
C49   H44   S    
N10   H65   S    
C35   H30   S    
C22   C36   S    
N5    H54   S    
N3    H50   S    
C7    C8    S    
O25   P6    S    
C45   H2    S    
C19   C43   A    
Ba1   O26   S    
C50   C53   A    
O14   P7    D    
C61   O2    S    
Ba2   O14   S    
C13   C21   S    
C5    H20   S    
C5    C64   S    
O7    P4    S    
C64   O30   D    
C4    H17   S    
C15   H28   S    
C58   P5    S    
C34   H47   S    
C34   O7    S    
C25   C42   A    
C45   H3    S    
Ba2   O4    S    
N11   H67   S    
C31   C32   A    
N6    H56   S    
Ba2   O9    S    
C46   H36   S    
O2    P2    S    
C9    C18   A    
O24   P1    S    
C53   P2    S    
O23   P6    D    
C26   C30   A    
C17   C20   A    
Ba1   O13   S    
C3    O15   S    
O28   P3    D    
C39   N2    S    
C37   C38   D    
C51   C55   A    
O15   P7    S    
C12   H37   S    
C61   H9    S    
C7    O17   S    
O11   P5    S    
C60   H5    S    
C14   P4    S    
C32   N2    Am   
C40   C43   A    
C41   C42   A    
O16   P8    D    
C27   C28   A    
Ba1   P2    S    
C56   N3    S    
C29   C30   A    
O10   P5    D    
O12   P1    S    
O17   P8    S    
C15   C16   S    
C62   H12   S    
O8    P7    S    
C61   H8    S    
C3    H16   S    
N8    H60   S    
Ba1   O27   S    
C23   H46   S    
Ba2   O13   S    
C56   O24   S    
C56   H4    S    
N7    H58   S    
C2    N4    S    
C8    H27   S    
C14   C21   D    
O22   P6    S    
C10   O20   D    
C11   C13   S    
C1    H19   S    
C29   C33   A    
C7    N8    S    
C49   C57   A    
Ba1   O1    S    
C1    C2    S    
C10   N1    Am   
N11   H66   S    
C24   C40   A    
N6    H55   S    
Ba2   O8    S    
C42   C48   A    
C38   C39   S    
Ba1   O8    S    
C20   C44   A    
C9    N1    Am   
C54   C59   A    
C45   C63   S    
O5    P4    S    
O27   P3    S    
Ba1   O12   S    
C9    O18   D    
C27   H32   S    
Ba2   O6    S    
C49   C58   A    
C44   C48   A    
C24   C26   A    
C30   C31   A    
N4    H52   S    
C43   H33   S    
C57   P7    S    
C38   H39   S    
C6    H22   S    
C3    C4    S    
C19   H29   S    
C50   H45   S    
C46   C47   A    
C2    H1    S    
N7    H59   S    
C62   H11   S    
C60   H7    S    
C33   N2    Am   
C37   P1    S    
C63   O29   D    
Ba1   O5    S    
O9    P5    S    
C12   C23   S    
C35   C39   D    
C59   H43   S    
N9    H63   S    
C36   P6    S    
C23   N6    S    
C2    O25   S    
C61   C62   S    
Ba2   O12   S    
C18   C19   A    
C24   C27   A    
C3    H15   S    
N10   H64   S    
C40   C41   A    
C25   C26   A    
C63   H48   S    
C58   C59   A    
O6    P8    S    
C22   H41   S    
N3    H49   S    
Ba1   O22   S    
C1    H14   S    
C33   O19   D    
C7    H23   S    
