data_mof_unit_50766.cif
_audit_creation_date              2012-12-10T17:45:27-0500
_audit_creation_method            fapswitch 2.2
_symmetry_space_group_name_H-M    P1
_symmetry_Int_Tables_number       1
_space_group_crystal_system       triclinic
_cell_length_a                    11.536857
_cell_length_b                    10.631237
_cell_length_c                    9.940855
_cell_angle_alpha                 90.011199
_cell_angle_beta                  89.912909
_cell_angle_gamma                 91.604401
_cell_volume                      1218.77700249

loop_
_atom_site_label
_atom_site_type_symbol
_atom_type_description
_atom_site_fract_x
_atom_site_fract_y
_atom_site_fract_z
_atom_type_partial_charge
C1    C     C_R   0.501849 0.260902 0.499995 0.867135
C2    C     C_R   0.503244 0.871869 0.500323 -0.206048
C3    C     C_R   0.348945 0.334242 0.139931 -0.142639
C4    C     C_R   0.282101 0.499655 0.500094 0.868116
C5    C     C_R   0.274808 0.252287 0.069988 -0.174222
C6    C     C_R   0.274690 0.252384 0.930748 -0.175099
C7    C     C_R   0.348787 0.334363 0.860537 -0.139580
C8    C     C_R   0.425620 0.418337 0.927892 0.166548
C9    C     C_R   0.425665 0.418336 0.072320 0.169296
C10   C     C_R   0.571144 0.578158 0.071279 -0.090464
C11   C     C_R   0.571140 0.578113 0.928357 -0.092838
C12   C     C_R   0.804681 0.071910 0.630397 -0.161919
C13   C     C_R   0.500441 0.739209 0.500006 0.857024
C14   C     C_R   0.717905 0.500493 0.499916 0.873369
C15   C     C_1   0.161582 0.499665 0.500273 -0.158951
C16   C     C_1   0.059354 0.499772 0.500228 0.036273
C17   C     C_1   0.940638 0.500006 0.500007 0.034170
C18   C     C_1   0.838418 0.500278 0.499845 -0.169704
C19   C     C_R   0.706879 0.135495 0.589019 -0.187951
C20   C     C_R   0.804071 0.940965 0.628829 0.215984
C21   C     C_R   0.705260 0.873475 0.586502 -0.189466
C22   C     C_R   0.604753 0.936606 0.545080 0.017712
C23   C     C_R   0.606101 0.068286 0.545808 0.099661
C24   C     C_R   0.506963 0.128888 0.499774 -0.168961
C25   C     C_R   0.409432 0.063929 0.452157 -0.212007
C26   C     C_R   0.405090 0.935051 0.453799 0.454860
H1    H     H_    0.334641 0.114135 0.416933 0.156675
H2    H     H_    0.216878 0.188491 0.124370 0.167548
H3    H     H_    0.302554 0.785633 0.434589 0.336687
H4    H     H_    0.216628 0.188689 0.876592 0.166548
H5    H     H_    0.343096 0.329242 0.753852 0.201092
H6    H     H_    0.629315 0.642082 0.874725 0.158778
H7    H     H_    0.711505 0.237168 0.589784 0.150585
H8    H     H_    0.881310 0.124665 0.662633 0.161132
H9    H     H_    0.708841 0.771998 0.585259 0.151744
H10   H     H_    0.629332 0.642146 0.124644 0.155964
H11   H     H_    0.343344 0.328978 0.246614 0.197190
I1    I     I_    0.952990 0.844598 0.688425 -0.372667
N1    N     N_R   0.498930 0.498800 0.142780 -0.121131
N2    N     N_R   0.498900 0.498720 0.857170 -0.121881
O1    O     O_R   0.500000 0.316780 0.614690 -0.635514
O2    O     O_R   0.499990 0.316750 0.385360 -0.630050
O3    O     O_R   0.334450 0.500030 0.614670 -0.622104
O4    O     O_R   0.334440 0.500000 0.385330 -0.628829
O5    O     O_R   0.500010 0.683250 0.614640 -0.606287
O6    O     O_R   0.500000 0.683220 0.385310 -0.601752
O7    O     O_R   0.665560 0.500000 0.614670 -0.614632
O8    O     O_R   0.665550 0.499970 0.385330 -0.603294
O9    O     O_3   0.303339 0.875892 0.410809 -0.741160
Zn1   Zn    Zn3+2 0.500010 0.500020 0.653130 0.949477
Zn2   Zn    Zn3+2 0.499990 0.499980 0.346870 0.955580

loop_
_geom_bond_atom_site_label_1
_geom_bond_atom_site_label_2
_ccdc_geom_bond_type
C2    C22   A    
C19   C23   A    
C23   C24   A    
O3    Zn1   S    
C6    C7    A    
C3    C9    A    
C4    O3    A    
C25   H1    S    
C5    H2    S    
C20   I1    S    
C14   C18   S    
N1    Zn2   S    
O2    Zn2   S    
C12   C20   A    
C4    C15   S    
C17   C18   T    
C7    C8    A    
C2    C26   A    
H3    O9    S    
C21   C22   A    
C24   C25   A    
C13   O5    A    
C3    H11   S    
C13   O6    A    
C4    O4    A    
O5    Zn1   S    
N2    Zn1   S    
C5    C6    A    
O4    Zn2   S    
C1    O1    A    
C6    H4    S    
C11   H6    S    
O7    Zn1   S    
C11   N2    A    
C21   H9    S    
C7    H5    S    
C10   C11   A    
C12   H8    S    
C15   C16   T    
O1    Zn1   S    
C9    N1    A    
C1    O2    A    
C20   C21   A    
C12   C19   A    
C1    C24   S    
C19   H7    S    
C26   O9    S    
C2    C13   S    
C14   O8    A    
C22   C23   A    
C10   N1    A    
C10   H10   S    
C8    N2    A    
C25   C26   A    
C14   O7    A    
O6    Zn2   S    
O8    Zn2   S    
C16   C17   S    
C8    C9    A    
C3    C5    A    
