data_mof_unit_47915.cif
_audit_creation_date              2012-12-11T17:19:09-0500
_audit_creation_method            fapswitch 2.2
_symmetry_space_group_name_H-M    P1
_symmetry_Int_Tables_number       1
_space_group_crystal_system       triclinic
_cell_length_a                    14.665188
_cell_length_b                    7.263854
_cell_length_c                    13.483359
_cell_angle_alpha                 89.982141
_cell_angle_beta                  99.872871
_cell_angle_gamma                 89.973412
_cell_volume                      1415.05404642

loop_
_atom_site_label
_atom_site_type_symbol
_atom_type_description
_atom_site_fract_x
_atom_site_fract_y
_atom_site_fract_z
_atom_type_partial_charge
O1    O     O_R   0.648180 0.355050 0.151550 -0.535816
O2    O     O_R   0.351820 0.644950 0.848450 -0.535816
O3    O     O_R   0.851820 0.855050 0.348450 -0.536095
O4    O     O_R   0.148180 0.144950 0.651550 -0.536095
O5    O     O_R   0.835240 0.681980 0.154280 -0.537306
O6    O     O_R   0.164760 0.318020 0.845720 -0.537306
O7    O     O_R   0.664760 0.181980 0.345720 -0.538094
O8    O     O_R   0.335240 0.818020 0.654280 -0.538094
H1    H     H_    0.661999 0.747029 0.807232 0.120000
H2    H     H_    0.338001 0.252971 0.192768 0.120000
H3    H     H_    0.831858 0.298858 0.683940 0.120663
H4    H     H_    0.168142 0.701142 0.316059 0.120663
C1    C     C_R   0.863622 0.516172 0.133204 0.688822
C2    C     C_R   0.136378 0.483828 0.866796 0.688822
C3    C     C_R   0.636364 0.016195 0.366787 0.687068
C4    C     C_R   0.363636 0.983805 0.633213 0.687068
O9    O     O_R   0.647870 0.684600 0.139630 -0.534929
O10   O     O_R   0.352130 0.315400 0.860370 -0.534930
O11   O     O_R   0.852130 0.184600 0.360370 -0.535394
O12   O     O_R   0.147870 0.815400 0.639630 -0.535394
O13   O     O_R   0.663110 0.857440 0.333700 -0.533990
O14   O     O_R   0.336890 0.142560 0.666300 -0.533990
O15   O     O_R   0.836890 0.357440 0.166300 -0.533372
O16   O     O_R   0.163110 0.642560 0.833700 -0.533372
C5    C     C_R   0.615061 0.516007 0.113182 0.714046
C6    C     C_R   0.384939 0.483993 0.886818 0.714045
C7    C     C_R   0.884925 0.015942 0.386825 0.714747
C8    C     C_R   0.115075 0.984057 0.613174 0.714747
H5    H     H_    0.504475 0.852887 0.750693 0.113687
H6    H     H_    0.495525 0.147113 0.249307 0.113687
H7    H     H_    0.992515 0.380216 0.744816 0.110540
H8    H     H_    0.007485 0.619784 0.255184 0.110540
O17   O     O_3   0.755220 0.522230 0.313690 -0.376470
O18   O     O_3   0.244780 0.477770 0.686310 -0.376470
O19   O     O_3   0.744780 0.022230 0.186310 -0.375274
O20   O     O_3   0.255220 0.977770 0.813690 -0.375274
V1    V     V_3+5 0.749030 0.796100 0.238190 1.421028
V2    V     V_3+5 0.250970 0.203900 0.761810 1.421028
V3    V     V_3+5 0.750970 0.296100 0.261810 1.419585
V4    V     V_3+5 0.249030 0.703900 0.738190 1.419585
C9    C     C_1   0.966026 0.005304 0.466776 -0.187483
C10   C     C_1   0.033974 0.994696 0.533224 -0.187483
C11   C     C_1   0.533968 0.505388 0.033224 -0.188428
C12   C     C_1   0.466032 0.494612 0.966776 -0.188428
H9    H     H_    0.222172 0.237937 0.305378 0.127463
H10   H     H_    0.777827 0.762063 0.694622 0.127463
H11   H     H_    0.283970 0.685997 0.203411 0.124872
H12   H     H_    0.716030 0.314003 0.796589 0.124872
C13   C     C_R   0.552177 0.859979 0.697881 -0.146419
C14   C     C_R   0.447823 0.140021 0.302119 -0.146419
C15   C     C_R   0.944599 0.387412 0.797428 -0.146596
C16   C     C_R   0.055401 0.612588 0.202572 -0.146596
C17   C     C_R   0.642438 0.799658 0.731409 -0.123624
C18   C     C_R   0.357561 0.200342 0.268591 -0.123624
C19   C     C_R   0.852664 0.340929 0.761545 -0.126215
C20   C     C_R   0.147336 0.659071 0.238454 -0.126215
C21   C     C_R   0.707656 0.808052 0.667988 -0.118998
C22   C     C_R   0.292344 0.191947 0.332011 -0.118998
C23   C     C_R   0.787437 0.349362 0.824998 -0.122218
C24   C     C_R   0.212563 0.650638 0.175002 -0.122218
C25   C     C_R   0.683073 0.876508 0.570489 -0.141806
C26   C     C_R   0.316927 0.123492 0.429510 -0.141806
C27   C     C_R   0.813663 0.403982 0.924887 -0.141177
C28   C     C_R   0.186337 0.596018 0.075113 -0.141177
C29   C     C_R   0.591682 0.937010 0.533885 0.068041
C30   C     C_R   0.408318 0.062990 0.466115 0.068041
C31   C     C_R   0.906608 0.450918 0.963690 0.069507
C32   C     C_R   0.093392 0.549082 0.036310 0.069507
C33   C     C_R   0.524852 0.928860 0.598944 0.066442
C34   C     C_R   0.475148 0.071140 0.401056 0.066442
C35   C     C_R   0.973443 0.442803 0.898614 0.066251
C36   C     C_R   0.026557 0.557197 0.101386 0.066251
C37   C     C_R   0.566825 0.007953 0.434917 -0.178550
C38   C     C_R   0.433175 0.992047 0.565083 -0.178551
C39   C     C_R   0.933175 0.507877 0.065095 -0.176855
C40   C     C_R   0.066825 0.492123 0.934905 -0.176855
H13   H     H_    0.736701 0.882358 0.524607 0.103578
H14   H     H_    0.263299 0.117642 0.475393 0.103578
H15   H     H_    0.760203 0.409802 0.971013 0.098772
H16   H     H_    0.239797 0.590198 0.028987 0.098772

loop_
_geom_bond_atom_site_label_1
_geom_bond_atom_site_label_2
_ccdc_geom_bond_type
C22   C26   A    
O5    V1    S    
C9    C10   T    
O10   C6    A    
C5    C11   S    
C6    C12   S    
C27   H15   S    
C14   C18   A    
O18   V4    S    
C28   C32   A    
O19   V1    S    
C19   C23   A    
C35   C40   A    
O12   V4    S    
O15   V3    S    
C30   C38   A    
C29   C37   A    
C1    O15   A    
C2    O16   A    
H8    C16   S    
H11   C24   S    
O17   V3    S    
C1    C39   S    
C25   H13   S    
O6    V2    S    
O11   C7    A    
C15   C19   A    
O7    C3    A    
H6    C14   S    
O8    C4    A    
C13   C33   A    
O1    C5    A    
C28   H16   S    
C15   C35   A    
C36   C39   A    
O4    C8    A    
C27   C31   A    
H9    C22   S    
C26   C30   A    
C17   C21   A    
H5    C13   S    
O12   C8    A    
C20   C24   A    
C2    C40   S    
C11   C12   T    
C16   C36   A    
C25   C29   A    
O6    C2    A    
C7    C9    S    
C32   C36   A    
C34   C37   A    
O13   V1    S    
C33   C38   A    
O2    C6    A    
O9    V1    S    
H4    C20   S    
O11   V3    S    
C3    C37   S    
O4    V2    S    
H10   C21   S    
C4    C38   S    
C31   C39   A    
H3    C19   S    
H12   C23   S    
C18   C22   A    
C29   C33   A    
C4    O14   A    
C8    C10   S    
O5    C1    A    
C26   H14   S    
H7    C15   S    
C21   C25   A    
C32   C40   A    
C23   C27   A    
C24   C28   A    
O9    C5    A    
O3    C7    A    
C14   C34   A    
C30   C34   A    
C13   C17   A    
O20   V2    S    
O16   V4    S    
C31   C35   A    
O10   V2    S    
H2    C18   S    
O1    V3    S    
O2    V4    S    
C3    O13   A    
H1    C17   S    
O3    V1    S    
O7    V3    S    
O8    V4    S    
C16   C20   A    
O14   V2    S    
