data_mof_unit_34010.cif
_audit_creation_date              2012-10-26T19:58:23-0400
_audit_creation_method            fapswitch 2.2
_symmetry_space_group_name_H-M    P1
_symmetry_Int_Tables_number       1
_space_group_crystal_system       triclinic
_cell_length_a                    7.489777
_cell_length_b                    8.678198
_cell_length_c                    13.457089
_cell_angle_alpha                 94.067211
_cell_angle_beta                  78.746355
_cell_angle_gamma                 103.043549
_cell_volume                      835.398404801

loop_
_atom_site_label
_atom_site_type_symbol
_atom_type_description
_atom_site_fract_x
_atom_site_fract_y
_atom_site_fract_z
_atom_type_partial_charge
C1    C     C_R   0.545294 0.799984 0.502843 0.549430
C2    C     C_R   0.352804 0.508012 0.803499 -0.006108
C3    C     C_2   0.570833 0.967993 0.503901 -0.161131
C4    C     C_R   0.401173 0.488329 0.693390 0.535356
C5    C     C_2   0.429298 0.031979 0.495876 -0.163755
C6    C     C_R   0.454788 0.200001 0.496998 0.548781
C7    C     C_R   0.600625 0.511597 0.306148 0.537018
C8    C     C_R   0.858027 0.428332 0.045059 -0.121459
C9    C     C_R   0.660921 0.510688 0.194799 -0.000738
C10   C     C_R   0.226321 0.604700 0.840640 -0.135614
C11   C     C_R   0.227935 0.679877 0.935029 -0.142591
C12   C     C_R   0.457534 0.538980 0.966289 0.028581
C13   C     C_R   0.347657 0.652172 0.995472 -0.137610
C14   C     C_3   0.006756 0.535308 0.195763 -0.229372
C15   C     C_3   0.042031 0.716141 0.219942 -0.282278
C16   C     C_3   0.191624 0.774888 0.284515 -0.420789
C17   C     C_R   0.466394 0.470240 0.867505 0.024584
C18   C     C_R   0.571403 0.503109 0.029873 0.023004
C19   C     C_R   0.720401 0.430081 0.988169 0.035014
C20   C     C_R   0.729691 0.362551 0.890577 -0.139116
C21   C     C_R   0.595818 0.372726 0.833836 -0.119819
C22   C     C_R   0.536127 0.530624 0.134852 -0.162193
C23   C     C_R   0.837328 0.485110 0.146223 -0.012679
Cu1   Cu    Cu3+1 0.321300 0.483160 0.488710 0.921347
Cu2   Cu    Cu3+1 0.678700 0.516840 0.511290 0.933343
H1    H     H_    0.292786 0.960614 0.488688 0.125543
H2    H     H_    0.599669 0.308222 0.761959 0.142749
H3    H     H_    0.707278 0.039357 0.511298 0.131553
H4    H     H_    0.169798 0.697349 0.349508 0.211395
H5    H     H_    0.333228 0.782099 0.239335 0.133000
H6    H     H_    0.183413 0.896119 0.314590 0.133981
H7    H     H_    0.080322 0.782278 0.148596 0.142816
H8    H     H_    0.912854 0.749907 0.261640 0.180653
H9    H     H_    0.992237 0.465624 0.263570 0.162843
H10   H     H_    0.127590 0.505177 0.144233 0.126172
H11   H     H_    0.013261 0.622739 0.576554 0.239983
H12   H     H_    0.985899 0.375241 0.424884 0.232009
H13   H     H_    0.837278 0.298319 0.859240 0.115149
H14   H     H_    0.983730 0.389264 0.009628 0.119010
H15   H     H_    0.408467 0.561557 0.171482 0.117680
H16   H     H_    0.140338 0.635922 0.792496 0.130381
H17   H     H_    0.357610 0.723024 0.063992 0.110617
H18   H     H_    0.140967 0.764517 0.959793 0.121533
N1    N     N_2   0.947230 0.542220 0.528320 -0.265273
N2    N     N_2   0.052770 0.457780 0.471680 -0.278525
O1    O     O_R   0.383920 0.714220 0.492660 -0.516280
O2    O     O_R   0.685730 0.742660 0.511730 -0.496619
O3    O     O_R   0.275440 0.478800 0.636790 -0.501515
O4    O     O_R   0.577250 0.507240 0.655860 -0.497754
O5    O     O_R   0.314270 0.257340 0.488270 -0.494446
O6    O     O_R   0.616080 0.285780 0.507340 -0.506268
O7    O     O_R   0.422750 0.492760 0.344140 -0.511466
O8    O     O_R   0.724560 0.521200 0.363210 -0.510130

loop_
_geom_bond_atom_site_label_1
_geom_bond_atom_site_label_2
_ccdc_geom_bond_type
C14   C23   S    
C12   C17   A    
C2    C4    S    
Cu1   Cu2   S    
Cu2   O6    S    
C11   H18   S    
C8    H14   S    
C6    O6    A    
C20   H13   S    
Cu2   O2    S    
C19   C20   A    
C4    O4    A    
C22   H15   S    
C21   H2    S    
Cu1   O1    S    
C15   H7    S    
C6    O5    A    
C2    C17   A    
C12   C13   A    
C11   C13   A    
C14   H9    S    
C10   H16   S    
Cu1   N2    S    
Cu2   N1    S    
C1    O2    A    
C13   H17   S    
Cu2   O8    S    
C7    O7    A    
Cu1   O7    S    
Cu1   O5    S    
C5    C6    S    
C1    O1    A    
Cu2   O4    S    
C9    C22   A    
H11   N1    S    
C8    C19   A    
C10   C11   A    
C7    O8    A    
H12   N2    S    
C15   C16   S    
Cu1   O3    S    
C3    C5    D    
C8    C23   A    
C20   C21   A    
C18   C19   A    
C4    O3    A    
C12   C18   A    
C14   H10   S    
C7    C9    S    
C14   C15   S    
C3    H3    S    
C9    C23   A    
C1    C3    S    
C16   H4    S    
C18   C22   A    
C16   H5    S    
C15   H8    S    
C17   C21   A    
N1    N2    D    
C5    H1    S    
C16   H6    S    
C2    C10   A    
