data_mof_unit_46779.cif
_audit_creation_date              2013-03-05T15:54:38-0500
_audit_creation_method            fapswitch 2.2
_symmetry_space_group_name_H-M    P1
_symmetry_Int_Tables_number       1
_space_group_crystal_system       triclinic
_cell_length_a                    14.036573
_cell_length_b                    14.039055
_cell_length_c                    30.083323
_cell_angle_alpha                 97.090168
_cell_angle_beta                  97.011952
_cell_angle_gamma                 61.346609
_cell_volume                      5148.97418753

loop_
_atom_site_label
_atom_site_type_symbol
_atom_site_description
_atom_site_fract_x
_atom_site_fract_y
_atom_site_fract_z
_atom_type_partial_charge
O1    O     O_R   0.688580 0.499770 0.460490 -0.510966
O2    O     O_R   0.480400 0.672610 0.462660 -0.543550
C1    C     C_R   0.385354 0.711934 0.442657 0.833008
O3    O     O_R   0.315310 0.685650 0.451800 -0.502162
O4    O     O_R   0.346220 0.474990 0.446280 -0.523645
C2    C     C_R   0.398965 0.381123 0.426442 0.805345
O5    O     O_R   0.492270 0.312460 0.441630 -0.511242
O6    O     O_R   0.669740 0.350480 0.455640 -0.510817
C3    C     C_R   0.711976 0.404425 0.442691 0.889679
O7    O     O_R   0.691150 0.501150 0.557860 -0.524231
O8    O     O_R   0.482790 0.673890 0.552920 -0.536876
C4    C     C_R   0.389690 0.711501 0.568275 0.822723
O9    O     O_R   0.317880 0.687030 0.549170 -0.504369
O10   O     O_R   0.348600 0.476260 0.536540 -0.511239
C5    C     C_R   0.401696 0.382524 0.552441 0.871006
O11   O     O_R   0.494840 0.313840 0.539010 -0.499764
O12   O     O_R   0.672120 0.351750 0.545910 -0.519716
C6    C     C_R   0.713115 0.407746 0.568484 0.818009
Cr1   Cr    Cr6+3 0.581000 0.584320 0.508140 1.049327
Cr2   Cr    Cr6+3 0.339110 0.576430 0.496080 1.118728
Cr3   Cr    Cr6+3 0.579910 0.339270 0.495810 1.111579
O13   O     O_3   0.500010 0.500010 0.500010 -0.388674
C7    C     C_1   0.366046 0.363849 0.380726 -0.056896
C8    C     C_R   0.224615 0.395621 0.270719 0.320278
C9    C     C_R   0.214186 0.391786 0.223321 0.339228
C10   C     C_R   0.411328 0.292452 0.221616 -0.155986
C11   C     C_R   0.421961 0.295234 0.268251 -0.173905
C12   C     C_R   0.329583 0.345661 0.292895 -0.076345
C13   C     C_R   0.308148 0.340159 0.199040 -0.022328
C14   C     C_1   0.299741 0.324653 0.150941 0.120119
C15   C     C_1   0.346012 0.353949 0.340973 0.108689
C16   C     C_1   0.290588 0.304436 0.111159 -0.056222
H1    H     H_    0.483778 0.251330 0.203066 0.185499
H2    H     H_    0.502756 0.258488 0.285229 0.200301
H3    H     H_    0.884460 0.451821 0.106092 0.202463
H4    H     H_    0.827731 0.471892 0.181247 0.196809
C17   C     C_R   0.770020 0.365210 0.400570 -0.389751
C18   C     C_R   0.775411 0.270750 0.375027 0.272628
C19   C     C_R   0.789498 0.257109 0.328850 0.292085
C20   C     C_R   0.802084 0.334618 0.308630 -0.209215
C21   C     C_R   0.812511 0.419442 0.334739 0.304046
C22   C     C_R   0.799239 0.433650 0.381001 0.267675
C23   C     C_R   0.835769 0.401767 0.159114 -0.053934
C24   C     C_R   0.868147 0.389803 0.116062 -0.151835
C25   C     C_R   0.863569 0.217404 0.102402 0.382710
C26   C     C_R   0.831501 0.230270 0.145879 -0.130123
C27   C     C_R   0.821846 0.320031 0.174542 -0.007514
C28   C     C_1   0.810313 0.323066 0.221184 0.056907
C29   C     C_1   0.805751 0.326909 0.260901 0.198758
C30   C     C_R   0.888298 0.295054 0.087929 -0.166940
H5    H     H_    0.818702 0.167918 0.157937 0.192009
H6    H     H_    0.164745 0.903746 0.321745 0.199075
C31   C     C_R   0.364771 0.770696 0.402364 -0.176379
C32   C     C_R   0.455178 0.747062 0.378827 -0.176775
C33   C     C_R   0.441127 0.775152 0.335020 -0.101209
C34   C     C_R   0.336736 0.827611 0.314209 0.013901
C35   C     C_R   0.245467 0.859822 0.338095 -0.128564
C36   C     C_R   0.258169 0.833674 0.382732 0.366991
C37   C     C_R   0.251523 0.824148 0.149596 0.314883
C38   C     C_R   0.245295 0.841204 0.103837 0.252929
C39   C     C_R   0.377640 0.909625 0.121310 0.341265
C40   C     C_R   0.380765 0.894585 0.166438 -0.237545
C41   C     C_R   0.315044 0.857145 0.180789 -0.140216
C42   C     C_1   0.318965 0.848496 0.227832 0.134529
C43   C     C_1   0.324859 0.841088 0.267380 0.047310
C44   C     C_R   0.301288 0.893224 0.090192 -0.331893
H7    H     H_    0.537489 0.699516 0.392996 0.201188
H8    H     H_    0.435188 0.912276 0.190638 0.199970
H9    H     H_    0.512018 0.750799 0.316609 0.170906
H10   H     H_    0.139104 0.449723 0.898082 0.194817
H11   H     H_    0.188945 0.512497 0.674674 0.203602
C45   C     C_R   0.365249 0.362869 0.593347 -0.257870
C46   C     C_R   0.435771 0.271678 0.618355 0.394766
C47   C     C_R   0.420734 0.273213 0.663416 -0.100866
C48   C     C_R   0.335849 0.362618 0.684024 -0.015737
C49   C     C_R   0.258448 0.446583 0.658796 -0.124502
C50   C     C_R   0.270081 0.446198 0.613153 0.314201
C51   C     C_R   0.223918 0.428378 0.839761 0.407149
C52   C     C_R   0.214127 0.401032 0.881690 -0.209835
C53   C     C_R   0.395580 0.247431 0.880402 -0.136978
C54   C     C_R   0.406194 0.273398 0.838750 -0.137568
C55   C     C_R   0.319581 0.360442 0.817556 0.004611
C56   C     C_1   0.324377 0.366782 0.770816 0.131236
C57   C     C_1   0.328465 0.366819 0.731233 0.135038
C58   C     C_R   0.297644 0.308100 0.901297 -0.116271
H12   H     H_    0.479755 0.221188 0.821754 0.168524
H13   H     H_    0.461553 0.175882 0.894849 0.169080
H14   H     H_    0.477693 0.205653 0.682845 0.171394
C59   C     C_1   0.761303 0.377167 0.612572 -0.038876
C60   C     C_R   0.919737 0.303826 0.718992 0.375745
C61   C     C_R   0.937641 0.287170 0.764932 -0.263208
C62   C     C_R   0.747213 0.339179 0.769865 0.398116
C63   C     C_R   0.727630 0.355527 0.723766 0.318311
C64   C     C_R   0.813496 0.338329 0.698284 -0.163927
C65   C     C_R   0.852470 0.305573 0.790322 -0.092588
C66   C     C_1   0.875790 0.293330 0.837821 0.122967
C67   C     C_1   0.789912 0.356968 0.651180 0.195845
C68   C     C_1   0.904277 0.282897 0.877091 -0.105254
H15   H     H_    0.018327 0.262146 0.781405 0.183438
C69   C     C_1   0.376135 0.757373 0.613719 -0.085796
C70   C     C_R   0.332671 0.908565 0.721667 -0.085692
C71   C     C_R   0.321143 0.928411 0.767875 -0.195544
C72   C     C_R   0.361140 0.741104 0.772848 0.440188
C73   C     C_R   0.372773 0.721618 0.726561 -0.145893
C74   C     C_R   0.358019 0.805272 0.700922 0.040066
C75   C     C_R   0.334841 0.845242 0.793620 0.014854
C76   C     C_1   0.315820 0.871019 0.840602 0.065459
C77   C     C_1   0.367185 0.783901 0.653237 0.033146
C78   C     C_1   0.294608 0.901215 0.879089 -0.094905
H16   H     H_    0.320782 0.973818 0.702136 0.171585
H17   H     H_    0.300019 0.009233 0.783483 0.150366
H18   H     H_    0.392099 0.641559 0.710496 0.192762
O14   O     O_R   0.167510 0.972920 0.030390 -0.494962
O15   O     O_R   0.990840 0.178580 0.027590 -0.501994
C79   C     C_R   0.949395 0.273456 0.047915 0.828281
O16   O     O_R   0.972840 0.345510 0.038590 -0.541126
O17   O     O_R   0.181550 0.320660 0.045200 -0.526369
C80   C     C_R   0.275282 0.270233 0.065418 0.815350
O18   O     O_R   0.346150 0.177650 0.050510 -0.508457
O19   O     O_R   0.314200 0.996600 0.036060 -0.508097
C81   C     C_R   0.261964 0.952033 0.048486 0.892578
O20   O     O_R   0.168690 0.969990 0.933130 -0.520841
O21   O     O_R   0.991920 0.175870 0.937430 -0.529517
C82   C     C_R   0.951831 0.269276 0.922211 0.794184
O22   O     O_R   0.974010 0.342590 0.941330 -0.533013
O23   O     O_R   0.182630 0.317940 0.955040 -0.536931
C83   C     C_R   0.276665 0.266783 0.939746 0.794925
O24   O     O_R   0.347320 0.174720 0.953250 -0.541690
O25   O     O_R   0.315290 0.993890 0.945900 -0.536370
C84   C     C_R   0.261718 0.950549 0.922951 0.807794
Cr4   Cr    Cr6+3 0.082090 0.079210 0.982490 1.082376
Cr5   Cr    Cr6+3 0.082460 0.324610 0.994920 1.015126
Cr6   Cr    Cr6+3 0.323630 0.087860 0.996130 1.055464
O26   O     O_3   0.162730 0.163890 0.991180 -0.372045
N1    N     N_R   0.129660 0.449922 0.296023 0.168460
O27   O     O_R   0.120428 0.404310 0.329222 -0.318289
O28   O     O_R   0.054458 0.547515 0.287398 -0.246772
Cl1   Cl    Cl    0.874640 0.101012 0.068707 -0.489629
Cl2   Cl    Cl    0.792453 0.141962 0.296217 -0.469905
N2    N     N_R   0.179845 0.808754 0.071613 0.179581
O29   O     O_R   0.080480 0.835302 0.079146 -0.261972
O30   O     O_R   0.218974 0.754157 0.034149 -0.336134
N3    N     N_R   0.195038 0.772151 0.164049 0.157823
O31   O     O_R   0.134080 0.815236 0.197802 -0.317896
O32   O     O_R   0.206341 0.680048 0.144060 -0.306368
N4    N     N_R   0.163320 0.871088 0.407338 0.145192
O33   O     O_R   0.165925 0.901861 0.449889 -0.324281
O34   O     O_R   0.070220 0.889296 0.386212 -0.279866
N5    N     N_R   0.451255 0.943155 0.108045 0.137358
O35   O     O_R   0.513613 0.887751 0.075573 -0.326838
O36   O     O_R   0.470671 0.015009 0.133327 -0.358856
Cl3   Cl    Cl    0.083921 0.445171 0.194242 -0.513236
N6    N     N_R   0.134816 0.521177 0.819512 0.117064
O37   O     O_R   0.036777 0.560017 0.832206 -0.344739
O38   O     O_R   0.152125 0.573031 0.791097 -0.326281
N7    N     N_R   0.184721 0.530355 0.587585 0.143443
O39   O     O_R   0.149067 0.505314 0.548276 -0.308595
O40   O     O_R   0.131056 0.628418 0.606176 -0.328127
Cl4   Cl    Cl    0.546257 0.153571 0.596118 -0.504558
N8    N     N_R   0.009756 0.286070 0.694473 0.121890
O41   O     O_R   0.109175 0.221044 0.708792 -0.382033
O42   O     O_R   0.994456 0.341954 0.660438 -0.343880
Cl5   Cl    Cl    0.639933 0.361542 0.801947 -0.507396
Cl6   Cl    Cl    0.594417 0.399081 0.698093 -0.611182
Cl7   Cl    Cl    0.377797 0.634490 0.803570 -0.489456
Cl8   Cl    Cl    0.843141 0.507763 0.309309 -0.399926
N9    N     N_R   0.815996 0.516930 0.407966 0.194508
O43   O     O_R   0.762819 0.617642 0.397622 -0.306543
O44   O     O_R   0.883245 0.492267 0.443635 -0.290631
N10   N     N_R   0.766557 0.188765 0.395736 0.193129
O45   O     O_R   0.692130 0.160351 0.380799 -0.308614
O46   O     O_R   0.832099 0.143546 0.430191 -0.288796

loop_
_geom_bond_atom_site_label_1
_geom_bond_atom_site_label_2
_geom_bond_distance
_ccdc_geom_bond_type
C33   C34   1.391528 A    
O11   Cr3   2.035811 S    
C21   C22   1.403726 A    
C65   C66   1.439076 S    
C52   C58   1.406680 A    
C48   C49   1.391839 A    
Cr4   O26   1.975955 S    
C53   C58   1.402236 A    
O15   C79   1.276378 A    
C35   C36   1.403658 A    
N5    O35   1.301421 A    
O21   C82   1.274162 A    
N9    O44   1.301276 A    
O4    Cr2   1.912078 S    
C31   C32   1.406920 A    
C22   N9    1.436429 S    
C68   C82   1.430040 S    
C5    C45   1.491696 S    
O8    Cr1   1.915506 S    
C10   C11   1.390325 A    
C70   C71   1.397210 A    
C9    Cl3   1.768438 S    
N7    O39   1.301558 A    
C17   C18   1.421687 A    
N2    O30   1.301363 A    
O19   Cr6   1.919201 S    
C53   H13   1.082987 S    
N5    O36   1.301531 A    
C50   N7    1.436966 S    
O4    C2    1.272381 A    
C48   C57   1.428511 S    
N10   O45   1.301239 A    
C34   C43   1.423547 S    
C34   C35   1.396778 A    
N3    O32   1.301284 A    
C30   C79   1.479524 S    
C46   C47   1.393185 A    
C17   C22   1.419321 A    
N3    O31   1.301224 A    
O17   Cr5   1.912759 S    
C80   O18   1.266940 A    
C62   C63   1.405871 A    
C72   C73   1.399694 A    
C45   C50   1.425331 A    
C26   C27   1.395136 A    
C39   C44   1.420015 A    
C47   H14   1.084424 S    
C56   C57   1.199214 T    
O6    C3    1.279292 A    
C66   C68   1.203424 T    
C38   C44   1.422250 A    
C60   C64   1.414738 A    
N6    O38   1.301402 A    
C54   H12   1.084139 S    
O2    Cr1   1.915901 S    
C37   N3    1.438109 S    
C37   C38   1.411330 A    
Cr3   O13   1.975664 S    
C9    C13   1.409303 A    
C76   C78   1.204500 T    
C71   H17   1.084275 S    
C73   C74   1.403011 A    
C18   N10   1.435762 S    
C2    O5    1.266932 A    
N4    O34   1.301527 A    
C49   C50   1.401484 A    
C11   H2    1.084301 S    
C70   C74   1.398195 A    
C18   C19   1.403808 A    
C74   C77   1.437438 S    
C19   Cl2   1.769916 S    
O1    Cr1   2.033113 S    
C69   C77   1.204197 T    
C47   C48   1.390482 A    
O10   Cr2   1.918389 S    
N1    O27   1.301282 A    
Cr1   O13   1.975918 S    
O1    C3    1.276993 A    
C8    C9    1.412482 A    
N9    O43   1.301107 A    
C73   H18   1.084409 S    
C51   C52   1.403491 A    
C45   C46   1.423175 A    
C32   H7    1.082828 S    
C63   Cl6   1.770385 S    
C70   H16   1.083803 S    
O5    Cr3   2.028460 S    
C26   H5    1.084091 S    
C62   C65   1.401921 A    
C54   C55   1.398631 A    
C59   C67   1.203703 T    
C7    C15   1.201218 T    
C23   C24   1.388893 A    
O15   Cr4   1.915971 S    
C13   C14   1.435355 S    
C51   C55   1.411542 A    
C10   H1    1.083918 S    
C27   C28   1.425096 S    
O16   Cr5   2.035921 S    
O23   Cr5   1.919092 S    
O7    Cr1   2.031330 S    
O8    C4    1.274882 A    
C21   Cl8   1.770107 S    
C40   C41   1.389933 A    
C3    C17   1.490713 S    
O12   C6    1.271580 A    
C44   C81   1.486661 S    
C63   C64   1.414019 A    
O18   Cr6   2.027815 S    
N2    O29   1.301294 A    
H3    C24   1.082997 S    
C33   H9    1.084157 S    
C38   N2    1.437418 S    
O25   Cr6   1.910574 S    
C8    N1    1.437757 S    
C20   C21   1.401673 A    
Cr2   O13   1.976901 S    
C72   Cl7   1.761315 S    
Cr6   O26   1.976735 S    
C58   C83   1.474335 S    
C1    O3    1.271799 A    
O20   Cr4   2.030970 S    
C19   C20   1.399729 A    
O19   C81   1.278040 A    
C62   Cl5   1.767544 S    
N4    O33   1.301469 A    
C24   C30   1.409028 A    
N1    O28   1.301039 A    
C32   C33   1.386138 A    
C28   C29   1.197525 T    
O14   Cr4   2.033200 S    
O9    Cr2   2.027514 S    
O21   Cr4   1.915466 S    
H10   C52   1.082873 S    
C6    C59   1.429670 S    
C12   C15   1.435780 S    
C8    C12   1.411508 A    
C16   C80   1.426151 S    
C53   C54   1.391279 A    
O6    Cr3   1.919448 S    
C5    O11   1.275216 A    
C31   C36   1.419106 A    
C36   N4    1.438862 S    
C51   N6    1.442166 S    
C83   O24   1.273214 A    
C39   N5    1.435985 S    
C46   Cl4   1.765018 S    
C37   C41   1.405235 A    
C64   C67   1.442218 S    
C40   H8    1.084813 S    
C61   H15   1.084455 S    
N8    O41   1.301887 A    
N7    O40   1.301451 A    
O2    C1    1.275308 A    
O25   C84   1.273050 A    
O24   Cr6   2.035568 S    
C42   C43   1.196411 T    
C14   C16   1.201211 T    
C1    C31   1.471780 S    
O22   Cr5   2.028018 S    
C60   C61   1.402322 A    
H11   C49   1.084019 S    
N10   O46   1.301250 A    
C25   C30   1.419643 A    
O7    C6    1.268229 A    
O23   C83   1.275643 A    
C2    C7    1.426083 S    
C25   Cl1   1.762895 S    
C71   C75   1.404168 A    
C72   C75   1.406199 A    
C60   N8    1.443207 S    
C39   C40   1.391733 A    
O12   Cr3   1.911419 S    
C4    C69   1.431293 S    
H6    C35   1.083857 S    
C61   C65   1.399089 A    
C41   C42   1.427430 S    
O3    Cr2   2.035078 S    
C25   C26   1.397631 A    
O14   C81   1.276900 A    
C4    O9    1.267384 A    
C10   C13   1.396156 A    
Cr5   O26   1.975724 S    
C55   C56   1.431534 S    
C75   C76   1.439844 S    
C78   C84   1.431931 S    
O10   C5    1.282114 A    
H4    C23   1.084092 S    
C79   O16   1.273619 A    
N6    O37   1.301609 A    
O17   C80   1.272702 A    
C23   C27   1.392509 A    
O20   C84   1.268296 A    
C20   C29   1.431911 S    
N8    O42   1.301188 A    
C82   O22   1.266697 A    
C11   C12   1.398898 A    
