data_mof_unit_28556.cif
_audit_creation_date              2012-10-26T20:06:13-0400
_audit_creation_method            fapswitch 2.2
_symmetry_space_group_name_H-M    P1
_symmetry_Int_Tables_number       1
_space_group_crystal_system       triclinic
_cell_length_a                    9.52677
_cell_length_b                    10.825824
_cell_length_c                    13.464773
_cell_angle_alpha                 90.209791
_cell_angle_beta                  73.169389
_cell_angle_gamma                 90.326436
_cell_volume                      1329.18200832

loop_
_atom_site_label
_atom_site_type_symbol
_atom_type_description
_atom_site_fract_x
_atom_site_fract_y
_atom_site_fract_z
_atom_type_partial_charge
C1    C     C_R   0.500472 0.737690 0.499813 0.555047
C2    C     C_R   0.384017 0.451025 0.810323 -0.000159
C3    C     C_R   0.601964 0.937255 0.535286 -0.142796
C4    C     C_R   0.423678 0.484750 0.698851 0.538528
C5    C     C_R   0.600873 0.065089 0.534169 -0.168378
C6    C     C_R   0.500585 0.127858 0.494379 0.028466
C7    C     C_R   0.402386 0.060725 0.453406 0.228072
C8    C     C_R   0.402753 0.932874 0.456568 -0.091563
C9    C     C_R   0.501693 0.871157 0.497605 -0.022895
C10   C     C_R   0.896499 0.566007 0.572417 0.003990
C11   C     C_R   0.045154 0.565641 0.572608 0.009065
C12   C     C_R   0.446027 0.437400 0.974784 0.037798
C13   C     C_R   0.103638 0.434817 0.427084 0.042544
C14   C     C_R   0.954826 0.434444 0.427339 0.022596
C15   C     C_R   0.500525 0.262049 0.497165 0.573519
C16   C     C_R   0.577793 0.500175 0.300234 0.557361
C17   C     C_R   0.808189 0.498436 0.021747 -0.133494
C18   C     C_R   0.621931 0.494368 0.186961 0.006984
C19   C     C_R   0.235854 0.432115 0.864479 -0.134450
C20   C     C_R   0.194317 0.407818 0.970387 -0.140097
C21   C     C_R   0.296161 0.415642 0.025989 -0.109937
C22   C     C_R   0.491744 0.438227 0.864746 0.028995
C23   C     C_R   0.552741 0.457079 0.028598 0.034084
C24   C     C_R   0.702925 0.467821 0.971784 0.053961
C25   C     C_R   0.747116 0.444607 0.865901 -0.146256
C26   C     C_R   0.643314 0.424289 0.814036 -0.123588
C27   C     C_R   0.514790 0.471530 0.136584 -0.116992
C28   C     C_R   0.768631 0.509803 0.129055 -0.134366
Cl1   Cl    Cl    0.282305 0.130010 0.392226 -0.636891
Cu1   Cu    Cu3+1 0.359340 0.499980 0.500000 0.979785
Cu2   Cu    Cu3+1 0.640660 0.500020 0.500000 0.939932
H1    H     H_    0.852414 0.530791 0.166508 0.129795
H2    H     H_    0.402192 0.466334 0.183224 0.122343
H3    H     H_    0.152089 0.433822 0.824638 0.124317
H4    H     H_    0.254788 0.400068 0.108364 0.106693
H5    H     H_    0.081851 0.385117 0.010874 0.120176
H6    H     H_    0.685768 0.393124 0.735038 0.159936
H7    H     H_    0.679194 0.890222 0.567197 0.142391
H8    H     H_    0.677269 0.114839 0.565784 0.145311
H9    H     H_    0.327438 0.881577 0.424945 0.165750
H10   H     H_    0.817317 0.619164 0.630370 0.117611
H11   H     H_    0.077689 0.618378 0.630745 0.113804
H12   H     H_    0.183044 0.383005 0.368311 0.160520
H13   H     H_    0.922295 0.381736 0.369180 0.122526
H14   H     H_    0.862515 0.441092 0.822996 0.102315
H15   H     H_    0.920730 0.514563 0.977140 0.105096
N1    N     N_R   0.147940 0.499970 0.499970 -0.228078
N2    N     N_R   0.852060 0.500060 0.499990 -0.233932
O1    O     O_R   0.381250 0.680340 0.500010 -0.506723
O2    O     O_R   0.618820 0.680370 0.500010 -0.495768
O3    O     O_R   0.323240 0.499950 0.650980 -0.509596
O4    O     O_R   0.560810 0.499980 0.650980 -0.523778
O5    O     O_R   0.381180 0.319630 0.499990 -0.443077
O6    O     O_R   0.618750 0.319660 0.499990 -0.520696
O7    O     O_R   0.439190 0.500020 0.349020 -0.508061
O8    O     O_R   0.676760 0.500050 0.349020 -0.507741

loop_
_geom_bond_atom_site_label_1
_geom_bond_atom_site_label_2
_ccdc_geom_bond_type
C2    C22   A    
C2    C4    S    
C23   C24   A    
C16   O8    A    
C26   H6    S    
C6    C7    A    
C3    C9    A    
C23   C27   A    
Cu2   O8    S    
C8    H9    S    
C1    O2    A    
C11   N1    A    
C19   C20   A    
C28   H1    S    
Cu2   O4    S    
Cu1   O3    S    
C6    C15   S    
C16   O7    A    
C1    C9    S    
C7    C8    A    
C13   C14   A    
C24   C25   A    
C10   H10   S    
C17   H15   S    
C12   C23   A    
C5    C6    A    
C4    O4    A    
C21   H4    S    
C15   O5    A    
C14   H13   S    
C25   C26   A    
Cu1   O1    S    
Cu2   N2    S    
C5    H8    S    
Cu2   O6    S    
C10   N2    A    
Cu1   Cu2   S    
Cu1   O5    S    
C12   C22   A    
C17   C24   A    
C10   C11   A    
Cu2   O2    S    
C22   C26   A    
C7    Cl1   S    
C20   H5    S    
C15   O6    A    
C25   H14   S    
Cu1   N1    S    
C13   H12   S    
C18   C28   A    
C20   C21   A    
C11   H11   S    
C16   C18   S    
Cu1   O7    S    
C13   N1    A    
C14   N2    A    
C4    O3    A    
C2    C19   A    
C17   C28   A    
C1    O1    A    
C12   C21   A    
C27   H2    S    
C18   C27   A    
C3    H7    S    
C8    C9    A    
C3    C5    A    
C19   H3    S    
