data_mof_unit_59270.cif
_audit_creation_date              2012-12-11T19:47:20-0500
_audit_creation_method            fapswitch 2.2
_symmetry_space_group_name_H-M    P1
_symmetry_Int_Tables_number       1
_space_group_crystal_system       triclinic
_cell_length_a                    8.232101
_cell_length_b                    15.160694
_cell_length_c                    18.889171
_cell_angle_alpha                 102.092029
_cell_angle_beta                  91.835254
_cell_angle_gamma                 98.718374
_cell_volume                      2273.54333182

loop_
_atom_site_label
_atom_site_type_symbol
_atom_type_description
_atom_site_fract_x
_atom_site_fract_y
_atom_site_fract_z
_atom_type_partial_charge
Ba1   Ba    Ba6+2 0.853520 0.540910 0.466490 1.717114
Ba2   Ba    Ba6+2 0.336320 0.459170 0.533520 1.687893
C1    C     C_3   0.679468 0.820024 0.208821 -0.234914
C2    C     C_R   0.903979 0.392063 0.088761 -0.052164
C3    C     C_R   0.762295 0.436710 0.952973 -0.003086
C4    C     C_3   0.149143 0.711552 0.271818 0.302575
C5    C     C_R   0.931006 0.458178 0.975676 0.032973
C6    C     C_R   0.706818 0.437425 0.882732 -0.032769
C7    C     C_R   0.815732 0.466372 0.833406 -0.043847
C8    C     C_R   0.979303 0.506262 0.858929 0.022986
C9    C     C_R   0.037451 0.500854 0.930213 0.043861
C10   C     C_R   0.765185 0.458096 0.759888 -0.011140
C11   C     C_R   0.875654 0.490832 0.713322 -0.297958
C12   C     C_3   0.646666 0.763561 0.266728 0.386966
C13   C     C_R   0.029728 0.542969 0.738576 -0.029133
C14   C     C_R   0.083264 0.552424 0.813883 -0.034136
C15   C     C_R   0.156026 0.489682 0.070890 0.050975
C16   C     C_3   0.179503 0.738298 0.198303 -0.191851
C17   C     C_R   0.214017 0.491945 0.143639 0.023051
C18   C     C_R   0.110165 0.451865 0.190933 -0.031022
C19   C     C_R   0.960072 0.398856 0.161076 -0.068243
C20   C     C_R   0.234238 0.604127 0.847435 0.003086
C21   C     C_R   0.292868 0.594285 0.914992 -0.064396
C22   C     C_R   0.200615 0.539650 0.955936 0.048773
C23   C     C_3   0.389291 0.259355 0.302702 0.315895
C24   C     C_R   0.262000 0.531283 0.025039 0.023789
C25   C     C_R   0.428888 0.561724 0.049306 -0.102562
C26   C     C_R   0.377231 0.533737 0.168746 -0.042513
C27   C     C_R   0.484519 0.563568 0.119544 -0.109731
C28   C     C_3   0.132131 0.763882 0.668560 0.266635
C29   C     C_R   0.429293 0.544103 0.242169 0.009568
C30   C     C_R   0.320886 0.510879 0.289773 -0.283883
C31   C     C_R   0.163873 0.462245 0.265495 -0.005092
C32   C     C_R   0.853544 0.173201 0.551405 0.003501
C33   C     C_R   0.786068 0.079467 0.544009 -0.030979
C34   C     C_3   0.278889 0.171455 0.263452 -0.384610
C35   C     C_R   0.643962 0.892178 0.530076 0.004456
C36   C     C_R   0.797878 0.928884 0.567835 -0.001533
C37   C     C_R   0.869961 0.019349 0.571959 -0.110542
C38   C     C_R   0.578667 0.797526 0.519201 0.034519
C39   C     C_R   0.433321 0.764709 0.474355 -0.232222
C40   C     C_3   0.161402 0.856044 0.723675 -0.285654
C41   C     C_R   0.614257 0.196630 0.483979 0.002615
C42   C     C_R   0.546555 0.103848 0.475653 -0.039915
C43   C     C_R   0.628951 0.045124 0.507272 0.042296
C44   C     C_R   0.396173 0.069499 0.437044 -0.032796
C45   C     C_3   0.039269 0.241075 0.727797 0.247490
C46   C     C_R   0.316933 0.981626 0.433125 -0.100448
C47   C     C_R   0.398770 0.918326 0.461289 -0.083505
C48   C     C_R   0.557088 0.951484 0.499357 0.073539
C49   C     C_R   0.335919 0.823536 0.450186 -0.034411
C50   C     C_R   0.762720 0.230973 0.524356 -0.292700
C51   C     C_3   0.945084 0.258346 0.372724 0.277742
C52   C     C_3   0.876051 0.156584 0.349377 -0.345419
C53   C     C_3   0.706018 0.670340 0.688002 0.309789
C54   C     C_3   0.757925 0.700433 0.768842 -0.406511
C55   C     C_2   0.692216 0.821417 0.341708 0.534174
C56   C     C_3   0.024046 0.181535 0.785653 -0.185648
C57   C     C_2   0.340832 0.897273 0.738364 0.539851
C58   C     C_2   0.455706 0.309751 0.246644 0.514007
C59   C     C_2   0.129530 0.335703 0.759375 0.553049
C60   C     C_2   0.931926 0.222272 0.849057 0.573535
C61   C     C_2   0.947347 0.084270 0.752672 0.492214
C62   C     C_2   0.323163 0.681739 0.822638 0.512409
C63   C     C_2   0.764336 0.317408 0.060978 0.456403
C64   C     C_2   0.144154 0.967562 0.404343 0.533077
C65   C     C_2   0.022786 0.722187 0.150816 0.554923
C66   C     C_2   0.265713 0.835582 0.208320 0.470861
C67   C     C_3   0.522423 0.231003 0.684436 0.356420
C68   C     C_2   0.170447 0.777100 0.595366 0.596669
C69   C     C_3   0.486569 0.138183 0.704376 -0.270359
C70   C     C_R   0.993515 0.446399 0.044654 0.054523
H1    H     H_    0.093446 0.904612 0.703689 0.020860
H2    H     H_    0.811183 0.851528 0.212930 0.131656
H3    H     H_    0.892970 0.722107 0.777554 0.105337
H4    H     H_    0.722789 0.643052 0.796234 0.058317
H5    H     H_    0.696713 0.758473 0.794387 0.157498
H6    H     H_    0.513625 0.736842 0.261548 -0.234631
H7    H     H_    0.604699 0.875882 0.216120 0.113614
H8    H     H_    0.315468 0.304007 0.337739 -0.025759
H9    H     H_    0.349840 0.128441 0.225093 0.149018
H10   H     H_    0.262498 0.694091 0.169127 0.043458
H11   H     H_    0.150119 0.178746 0.807218 0.047399
H12   H     H_    0.109895 0.846540 0.775613 0.116173
H13   H     H_    0.653789 0.243534 0.672539 -0.064522
H14   H     H_    0.444744 0.228265 0.634631 0.086116
H15   H     H_    0.524401 0.085413 0.660748 0.104889
H16   H     H_    0.353301 0.119503 0.710938 0.124560
H17   H     H_    0.065407 0.644921 0.263202 0.105318
H18   H     H_    0.555400 0.139237 0.755939 0.208058
H19   H     H_    0.836878 0.479240 0.656399 0.062867
H20   H     H_    0.576861 0.415321 0.868039 0.141234
H21   H     H_    0.888978 0.357462 0.192784 0.142329
H22   H     H_    0.613078 0.589538 0.134468 0.149479
H23   H     H_    0.850067 0.294987 0.399877 0.034527
H24   H     H_    0.362828 0.518559 0.345929 0.072145
H25   H     H_    0.669484 0.420415 0.989285 0.076536
H26   H     H_    0.407534 0.637127 0.937447 0.055491
H27   H     H_    0.268599 0.701619 0.295194 -0.118033
H28   H     H_    0.521211 0.583583 0.014620 0.078348
H29   H     H_    0.867876 0.888018 0.593216 0.078401
H30   H     H_    0.992899 0.041505 0.597111 0.084793
H31   H     H_    0.331111 0.112622 0.412188 0.101789
H32   H     H_    0.389611 0.691856 0.461871 0.103316
H33   H     H_    0.813702 0.302387 0.529995 0.062588
H34   H     H_    0.053058 0.267249 0.411430 0.065682
H35   H     H_    0.002479 0.734569 0.667246 -0.010287
H36   H     H_    0.693659 0.788162 0.386856 -0.008154
H37   H     H_    0.398066 0.909729 0.792822 0.085327
H38   H     H_    0.371530 0.331476 0.210939 -0.117737
H39   H     H_    0.231532 0.131658 0.303281 0.137773
H40   H     H_    0.173471 0.186836 0.232595 0.099960
H41   H     H_    0.647357 0.775675 0.153918 0.098006
H42   H     H_    0.137050 0.385908 0.726330 0.017150
H43   H     H_    0.913022 0.246329 0.708771 -0.077511
H44   H     H_    0.989093 0.236097 0.903643 0.054752
H45   H     H_    0.755070 0.146190 0.318837 0.162810
H46   H     H_    0.017456 0.042137 0.716428 -0.008050
H47   H     H_    0.427893 0.673485 0.790534 0.018858
H48   H     H_    0.667395 0.301710 0.096144 0.050418
H49   H     H_    0.046226 0.965152 0.441050 0.048497
H50   H     H_    0.980315 0.777985 0.131779 0.029879
H51   H     H_    0.313175 0.874713 0.261785 0.063906
H52   H     H_    0.187755 0.844207 0.582379 -0.079665
H53   H     H_    0.861811 0.125302 0.397234 0.083536
H54   H     H_    0.959276 0.120021 0.313616 0.153940
H55   H     H_    0.790669 0.626402 0.660198 -0.036114
H56   H     H_    0.583110 0.629737 0.681521 0.096962
O1    O     O_2   0.871960 0.437280 0.322960 -0.398125
O2    O     O_2   0.183941 0.180015 0.534730 -0.500538
O3    O     O_3   0.128614 0.200935 0.670624 -0.637427
O4    O     O_3   0.121410 0.444460 0.412450 -0.494413
O5    O     O_3   0.580430 0.613240 0.540320 -0.484786
O6    O     O_2   0.337390 0.273050 0.457610 -0.481850
O7    O     O_3   0.520258 0.235276 0.340602 -0.626401
O8    O     O_2   0.431706 0.467432 0.755370 -0.490566
O9    O     O_3   0.486672 0.299454 0.741836 -0.551299
O10   O     O_3   0.661450 0.607570 0.372550 -0.491872
O11   O     O_2   0.752074 0.523522 0.247034 -0.435180
O12   O     O_3   0.703353 0.747615 0.658538 -0.614949
O13   O     O_3   0.991726 0.291329 0.311270 -0.636017
O14   O     O_3   0.742121 0.693055 0.254171 -0.590967
O15   O     O_2   0.852310 0.726980 0.542430 -0.473976
O16   O     O_3   0.084010 0.657370 0.410280 -0.430178
O17   O     O_2   0.987995 0.812021 0.452421 -0.497786
O18   O     O_2   0.729298 0.904510 0.352715 -0.605411
O19   O     O_2   0.423032 0.917574 0.689785 -0.605878
O20   O     O_2   0.603194 0.325199 0.239547 -0.562194
O21   O     O_2   0.198356 0.356376 0.820217 -0.604520
O22   O     O_2   0.793949 0.239746 0.839775 -0.552091
O23   O     O_3   0.079375 0.778724 0.318832 -0.582848
O24   O     O_2   0.810616 0.051332 0.766806 -0.549530
O25   O     O_2   0.286709 0.757529 0.843206 -0.606749
O26   O     O_2   0.761159 0.269106 0.000386 -0.548560
O27   O     O_2   0.111174 0.968662 0.341095 -0.577231
O28   O     O_2   0.943992 0.645359 0.131317 -0.606833
O29   O     O_2   0.290719 0.870081 0.155950 -0.574037
O30   O     O_2   0.174604 0.709529 0.548337 -0.559306
O31   O     O_2   0.317750 0.562750 0.677090 -0.471833
O32   O     O_3   0.068300 0.555620 0.587560 -0.441930
O33   O     O_3   0.528270 0.392500 0.627460 -0.495244
O34   O     O_3   0.235087 0.706413 0.687593 -0.619305
O35   O     O_3   0.609290 0.386840 0.459690 -0.462392
O36   O     O_3   0.105700 0.342700 0.589730 -0.493241
P1    P     P_3+3 0.039430 0.410940 0.333230 0.998777
P2    P     P_3+3 0.676770 0.715000 0.563590 1.020558
P3    P     P_3+3 0.124364 0.771191 0.408564 1.004347
P4    P     P_3+3 0.150290 0.589140 0.666780 1.013213
P5    P     P_3+3 0.065816 0.224593 0.587611 0.911282
P6    P     P_3+3 0.642333 0.593849 0.278591 0.989594
P7    P     P_3+3 0.520200 0.271929 0.435339 0.952905
P8    P     P_3+3 0.554605 0.405970 0.721272 0.963176

loop_
_geom_bond_atom_site_label_1
_geom_bond_atom_site_label_2
_ccdc_geom_bond_type
C56   C60   S    
C53   C54   S    
C12   O14   S    
C54   H4    S    
C28   H35   S    
O10   P6    S    
C23   H8    S    
C49   P3    S    
C17   C18   A    
Ba1   O4    S    
C1    H7    S    
C10   P8    S    
C51   C52   S    
C5    C9    A    
C52   H54   S    
C24   C25   A    
Ba2   O6    S    
C62   H47   S    
C19   H21   S    
C15   C24   A    
Ba1   P2    S    
C26   C27   A    
C22   C24   A    
C32   C33   A    
C36   H29   S    
Ba1   O1    S    
C36   C37   A    
C41   C50   A    
C51   H23   S    
O2    P5    D    
C16   C66   S    
C13   C14   A    
C9    C22   A    
O31   P4    D    
C66   H51   S    
O11   P6    D    
Ba1   Ba2   S    
C67   C69   S    
C1    H2    S    
C2    C63   S    
O9    P8    S    
C16   H10   S    
O33   P8    S    
C51   H34   S    
O3    P5    S    
O8    P8    D    
C6    C7    A    
C47   C49   A    
C34   H40   S    
Ba2   O4    S    
C21   C22   A    
C6    H20   S    
C23   C58   S    
O7    P7    S    
O35   P7    S    
C7    C8    A    
C38   P2    S    
O14   P6    S    
O32   P4    S    
C54   H3    S    
C55   O18   D    
C11   H19   S    
C67   O9    S    
O36   P5    S    
Ba1   O5    S    
Ba2   O33   S    
C28   C68   S    
C42   C44   A    
Ba1   O32   S    
O12   P2    S    
C4    C16   S    
C52   H53   S    
C44   C46   A    
C25   H28   S    
Ba2   O5    S    
O16   P3    S    
C40   H12   S    
O4    P1    S    
C1    H41   S    
Ba2   O36   S    
C5    C70   A    
C3    C5    A    
C61   H46   S    
C41   P7    S    
Ba2   O31   S    
C16   C65   S    
C62   O25   D    
C54   H5    S    
C45   O3    S    
C65   O28   D    
C68   O30   D    
C40   C57   S    
C33   C37   A    
C41   C42   A    
O15   P2    D    
C60   H44   S    
C35   C36   A    
Ba1   O15   S    
C29   C30   A    
Ba1   P1    S    
C34   H9    S    
C21   H26   S    
C34   H39   S    
C64   H49   S    
C53   H56   S    
C17   C26   A    
C32   P5    S    
C45   H43   S    
C1    C12   S    
C69   H15   S    
C18   C31   A    
C38   C39   A    
C30   H24   S    
C53   H55   S    
C50   H33   S    
O6    P7    D    
C11   C13   A    
C27   H22   S    
O34   P4    S    
C13   P4    S    
C4    O23   S    
C15   C17   A    
C66   O29   D    
C33   C43   A    
C65   H50   S    
Ba2   P4    S    
C2    C70   A    
C67   H13   S    
C42   C43   A    
C37   H30   S    
O17   P3    D    
C56   C61   S    
C12   C55   S    
C46   C47   A    
C40   H1    S    
C14   C20   A    
C60   O22   D    
C18   C19   A    
O13   P1    S    
C26   C29   A    
C31   P1    S    
C3    H25   S    
Ba2   O35   S    
C45   C59   S    
C3    C6    A    
C29   P6    S    
C35   C38   A    
C4    H17   S    
C44   H31   S    
C32   C50   A    
C67   H14   S    
C39   H32   S    
O1    P1    D    
C30   C31   A    
Ba1   O16   S    
C8    C14   A    
O5    P2    S    
C4    H27   S    
C45   C56   S    
C2    C19   A    
C64   O27   D    
C69   H18   S    
C25   C27   A    
C43   C48   A    
O23   P3    S    
C35   C48   A    
C57   H37   S    
C63   H48   S    
C51   O13   S    
C12   H6    S    
C23   O7    S    
C7    C10   A    
C61   O24   D    
C58   H38   S    
C8    C9    A    
C53   O12   S    
C23   C34   S    
C20   C62   S    
C69   H16   S    
C68   H52   S    
C55   H36   S    
C10   C11   A    
Ba1   O35   S    
C15   C70   A    
Ba2   O32   S    
C47   C48   A    
C52   H45   S    
C59   H42   S    
C28   O34   S    
C20   C21   A    
C28   C40   S    
C58   O20   D    
C63   O26   D    
C46   C64   S    
C56   H11   S    
C59   O21   D    
C39   C49   A    
Ba1   O10   S    
C57   O19   D    
