data_mof_unit_36024.cif
_audit_creation_date              2012-12-10T17:43:34-0500
_audit_creation_method            fapswitch 2.2
_symmetry_space_group_name_H-M    P1
_symmetry_Int_Tables_number       1
_space_group_crystal_system       triclinic
_cell_length_a                    15.014797
_cell_length_b                    10.639222
_cell_length_c                    9.906716
_cell_angle_alpha                 89.932004
_cell_angle_beta                  89.683243
_cell_angle_gamma                 92.060746
_cell_volume                      1581.50667811

loop_
_atom_site_label
_atom_site_type_symbol
_atom_type_description
_atom_site_fract_x
_atom_site_fract_y
_atom_site_fract_z
_atom_type_partial_charge
C1    C     C_R   0.501480 0.260679 0.500084 0.825698
C2    C     C_R   0.908341 0.487084 0.374217 -0.005068
C3    C     C_R   0.951998 0.478242 0.744918 -0.130107
C4    C     C_R   0.044561 0.478208 0.745692 -0.220221
C5    C     C_R   0.091917 0.481913 0.623548 0.117915
C6    C     C_R   0.046399 0.483296 0.499327 0.103712
C7    C     C_R   0.093678 0.486490 0.375895 0.127038
C8    C     C_R   0.048408 0.487503 0.252976 -0.245029
C9    C     C_R   0.956028 0.487864 0.252053 -0.133055
C10   C     C_R   0.184201 0.486023 0.623286 -0.263646
C11   C     C_R   0.230780 0.491869 0.500583 -0.070072
C12   C     C_R   0.326715 0.498156 0.500336 0.864516
C13   C     C_R   0.185722 0.490446 0.377424 -0.266282
C14   C     C_R   0.654110 0.143065 0.615345 -0.286092
C15   C     C_R   0.726649 0.084088 0.670729 0.619315
C16   C     C_R   0.729379 0.953741 0.669628 -0.290256
C17   C     C_R   0.659635 0.881489 0.613445 0.508179
C18   C     C_R   0.584123 0.939802 0.558650 -0.039039
C19   C     C_R   0.581987 0.071772 0.559377 -0.052671
C20   C     C_R   0.508477 0.128904 0.499940 0.005847
C21   C     C_R   0.440283 0.060345 0.436744 -0.200975
C22   C     C_R   0.441592 0.932076 0.436652 -0.219099
C23   C     C_R   0.504481 0.739575 0.499872 0.974212
C24   C     C_R   0.511316 0.872378 0.499136 -0.067000
C25   C     C_R   0.382155 0.335424 0.141241 -0.157004
C26   C     C_R   0.323651 0.255046 0.071498 -0.198009
C27   C     C_R   0.323536 0.255279 0.931743 -0.190870
C28   C     C_R   0.382000 0.335794 0.860911 -0.155710
C29   C     C_R   0.441825 0.419059 0.928218 0.164081
C30   C     C_R   0.441872 0.419004 0.072863 0.168148
C31   C     C_R   0.555760 0.577317 0.070949 -0.060983
C32   C     C_R   0.555755 0.577268 0.927782 -0.102974
C33   C     C_R   0.673385 0.498082 0.499326 1.010343
C34   C     C_R   0.816170 0.491429 0.374287 0.568221
C35   C     C_R   0.769418 0.492246 0.497661 -0.208096
C36   C     C_R   0.814548 0.486168 0.620602 -0.242894
C37   C     C_R   0.906505 0.482074 0.622010 0.123037
C38   C     C_R   0.953676 0.483489 0.498512 -0.030022
H1    H     H_    0.655960 0.244601 0.615138 0.180739
H2    H     H_    0.786566 0.908158 0.710834 0.195311
H3    H     H_    0.386970 0.878797 0.390173 0.150103
H4    H     H_    0.601311 0.640478 0.124284 0.175184
H5    H     H_    0.378658 0.329086 0.248325 0.197555
H6    H     H_    0.278291 0.191963 0.126418 0.152765
H7    H     H_    0.278056 0.192419 0.877689 0.156884
H8    H     H_    0.378445 0.329924 0.753838 0.202567
H9    H     H_    0.778320 0.485591 0.715640 0.202303
H10   H     H_    0.601291 0.640420 0.873464 0.183687
H11   H     H_    0.916081 0.476635 0.840157 0.156385
H12   H     H_    0.079072 0.476587 0.841465 0.143859
H13   H     H_    0.219507 0.485721 0.718507 0.167278
H14   H     H_    0.222062 0.493695 0.282463 0.168868
H15   H     H_    0.084435 0.489395 0.157811 0.147239
H16   H     H_    0.922267 0.489988 0.155742 0.198129
H17   H     H_    0.384970 0.106417 0.390037 0.132438
N1    N     N_R   0.499150 0.498800 0.142780 -0.127097
N2    N     N_R   0.499120 0.498720 0.857170 -0.127936
O1    O     O_R   0.500000 0.316780 0.614690 -0.647100
O2    O     O_R   0.499990 0.316750 0.385360 -0.632272
O3    O     O_R   0.367850 0.499980 0.614680 -0.649772
O4    O     O_R   0.367840 0.499960 0.385350 -0.653515
O5    O     O_R   0.500010 0.683250 0.614640 -0.581349
O6    O     O_R   0.500000 0.683220 0.385310 -0.629081
O7    O     O_R   0.632160 0.500040 0.614650 -0.599424
O8    O     O_R   0.632150 0.500020 0.385320 -0.551183
Zn1   Zn    Zn3+2 0.500010 0.500020 0.653130 0.969203
Zn2   Zn    Zn3+2 0.499990 0.499980 0.346870 0.979434
F1    F     F_    0.772794 0.496134 0.254218 -0.665041
F2    F     F_    0.795305 0.153866 0.723556 -0.653851
F3    F     F_    0.669083 0.755672 0.609487 -0.687399

loop_
_geom_bond_atom_site_label_1
_geom_bond_atom_site_label_2
_ccdc_geom_bond_type
C8    H15   S    
C23   C24   S    
C6    C38   A    
C29   C30   A    
C31   H4    S    
C31   N1    A    
N1    Zn2   S    
C11   C13   A    
C2    C38   A    
C4    H12   S    
C19   C20   A    
O8    Zn2   S    
C7    C13   A    
N2    Zn1   S    
C11   C12   S    
C2    C34   A    
C23   O6    A    
C17   C18   A    
C3    H11   S    
C33   O8    A    
C5    C10   A    
O3    Zn1   S    
O7    Zn1   S    
C31   C32   A    
C21   C22   A    
C12   O4    A    
C32   H10   S    
C28   H8    S    
C26   C27   A    
C37   C38   A    
C32   N2    A    
C16   H2    S    
C33   O7    A    
C18   C24   A    
C10   H13   S    
C25   H5    S    
C33   C35   S    
C29   N2    A    
C18   C19   A    
C6    C7    A    
O6    Zn2   S    
C1    O2    A    
C5    C6    A    
C15   F2    S    
C22   C24   A    
C22   H3    S    
C7    C8    A    
C27   H7    S    
O5    Zn1   S    
C13   H14   S    
C26   H6    S    
C15   C16   A    
C28   C29   A    
C17   F3    S    
C20   C21   A    
C3    C37   A    
C36   H9    S    
C36   C37   A    
C34   C35   A    
C10   C11   A    
C34   F1    S    
C25   C30   A    
C21   H17   S    
O4    Zn2   S    
C14   C15   A    
C4    C5    A    
C1    C20   S    
C9    H16   S    
O2    Zn2   S    
C25   C26   A    
C1    O1    A    
C2    C9    A    
C30   N1    A    
C14   C19   A    
O1    Zn1   S    
C23   O5    A    
C3    C4    A    
C16   C17   A    
C14   H1    S    
C8    C9    A    
C27   C28   A    
C35   C36   A    
C12   O3    A    
