data_mof_unit_5561.cif
_audit_creation_date              2012-12-10T20:28:42-0500
_audit_creation_method            fapswitch 2.2
_symmetry_space_group_name_H-M    P1
_symmetry_Int_Tables_number       1
_space_group_crystal_system       triclinic
_cell_length_a                    10.695927
_cell_length_b                    10.663518
_cell_length_c                    9.866095
_cell_angle_alpha                 90.319831
_cell_angle_beta                  92.616816
_cell_angle_gamma                 91.334669
_cell_volume                      1123.78611159

loop_
_atom_site_label
_atom_site_type_symbol
_atom_type_description
_atom_site_fract_x
_atom_site_fract_y
_atom_site_fract_z
_atom_type_partial_charge
C1    C     C_R   0.503077 0.260308 0.499801 0.976436
C2    C     C_R   0.063434 0.419940 0.591683 -0.093632
C3    C     C_R   0.125594 0.484485 0.488542 -0.104286
C4    C     C_R   0.059318 0.560485 0.395216 0.406969
C5    C     C_R   0.932562 0.570478 0.405646 -0.195003
C6    C     C_R   0.874337 0.519042 0.516583 -0.092501
C7    C     C_R   0.546828 0.065392 0.612843 0.018701
C8    C     C_R   0.497382 0.128164 0.500264 -0.078660
C9    C     C_R   0.430047 0.062770 0.396191 -0.105371
C10   C     C_R   0.427646 0.933173 0.397008 -0.164807
C11   C     C_R   0.491339 0.871251 0.502955 -0.050920
C12   C     C_R   0.259578 0.494039 0.496534 0.968051
C13   C     C_R   0.542834 0.937340 0.614714 -0.022248
C14   C     C_3   0.670602 0.929035 0.681709 -0.498146
C15   C     C_3   0.676041 0.071362 0.678399 0.871648
C16   C     C_R   0.506514 0.390192 0.070643 0.183368
C17   C     C_R   0.502887 0.609445 0.072697 -0.050042
C18   C     C_R   0.502849 0.609462 0.928943 -0.054035
C19   C     C_R   0.507208 0.390323 0.928182 0.268588
C20   C     C_3   0.416701 0.282271 0.915667 -0.492526
C21   C     C_3   0.416043 0.281115 0.069437 0.131977
C22   C     C_R   0.499287 0.739707 0.500453 0.876598
C23   C     C_R   0.740476 0.507079 0.504561 0.922373
C24   C     C_R   0.114997 0.318713 0.666274 0.342773
C25   C     C_R   0.063731 0.281732 0.787710 -0.314972
C26   C     C_R   0.962654 0.344944 0.835904 0.655416
C27   C     C_R   0.902392 0.433804 0.754608 0.576615
C28   C     C_R   0.944664 0.459974 0.622655 -0.160104
H1    H     H_    0.738076 0.883031 0.615985 0.202741
H2    H     H_    0.503358 0.697838 0.126816 0.153642
H3    H     H_    0.503311 0.697828 0.875842 0.153321
H4    H     H_    0.326719 0.309083 0.864805 0.242957
H5    H     H_    0.458832 0.197512 0.872667 0.241696
H6    H     H_    0.458194 0.195813 0.114348 0.134157
H7    H     H_    0.103475 0.205218 0.845683 0.239920
H8    H     H_    0.879292 0.620562 0.327911 0.197937
H9    H     H_    0.381630 0.111316 0.314250 0.195173
H10   H     H_    0.379897 0.881901 0.313978 0.188376
H11   H     H_    0.667169 0.890230 0.785857 0.224798
N1    N     N_R   0.499160 0.499140 0.142800 -0.094629
N2    N     N_R   0.499160 0.499180 0.857150 -0.100502
O1    O     O_R   0.500020 0.316790 0.614690 -0.588454
O2    O     O_R   0.500000 0.316760 0.385350 -0.619183
O3    O     O_R   0.316770 0.500020 0.614690 -0.626488
O4    O     O_R   0.316760 0.499980 0.385350 -0.525567
O5    O     O_R   0.500000 0.683240 0.614650 -0.626543
O6    O     O_R   0.499980 0.683210 0.385310 -0.639276
O7    O     O_R   0.683240 0.500020 0.614650 -0.547421
O8    O     O_R   0.683230 0.499980 0.385310 -0.616185
Zn1   Zn    Zn3+2 0.500010 0.500020 0.653130 1.043942
Zn2   Zn    Zn3+2 0.499990 0.499980 0.346870 1.052329
Cl1   Cl    Cl    0.128843 0.647033 0.264979 -0.526974
F1    F     F_    0.678943 0.125423 0.806345 -0.635670
Cl2   Cl    Cl    0.793514 0.134550 0.573049 -0.599955
Cl3   Cl    Cl    0.266773 0.318544 0.131449 -0.491011
Cl4   Cl    Cl    0.223834 0.219130 0.597543 -0.594798
F2    F     F_    0.920729 0.317731 0.960309 -0.551396
F3    F     F_    0.816435 0.504833 0.814029 -0.609198

loop_
_geom_bond_atom_site_label_1
_geom_bond_atom_site_label_2
_ccdc_geom_bond_type
C8    C9    A    
C2    C28   A    
C16   N1    A    
C16   C21   S    
C18   H3    S    
C24   Cl4   S    
C1    C8    S    
C9    C10   A    
N2    Zn1   S    
C11   C22   S    
C19   C20   S    
C21   H6    S    
C10   H10   S    
O7    Zn1   S    
C22   O6    A    
C23   O7    A    
C21   Cl3   S    
C7    C8    A    
C12   O3    A    
C13   C14   S    
C24   C25   A    
C17   H2    S    
C11   C13   A    
O2    Zn2   S    
C26   C27   A    
O1    Zn1   S    
C16   C19   A    
C6    C23   S    
C15   F1    S    
C7    C15   S    
C22   O5    A    
C4    Cl1   S    
C17   C18   A    
C2    C3    A    
C2    C24   A    
C5    C6    A    
C14   H11   S    
C26   F2    S    
C23   O8    A    
C10   C11   A    
O4    Zn2   S    
C14   H1    S    
C3    C4    A    
N1    Zn2   S    
C5    H8    S    
C1    O1    A    
C7    C13   A    
C20   C21   S    
C20   H5    S    
C15   Cl2   S    
C20   H4    S    
C18   N2    A    
O3    Zn1   S    
C27   C28   A    
C25   H7    S    
O5    Zn1   S    
C14   C15   S    
C12   O4    A    
C27   F3    S    
O6    Zn2   S    
C3    C12   S    
C25   C26   A    
C17   N1    A    
C1    O2    A    
C6    C28   A    
C19   N2    A    
C4    C5    A    
O8    Zn2   S    
C9    H9    S    
