data_mof_unit_19262.cif
_audit_creation_date              2012-12-11T15:17:46-0500
_audit_creation_method            fapswitch 2.2
_symmetry_space_group_name_H-M    P1
_symmetry_Int_Tables_number       1
_space_group_crystal_system       triclinic
_cell_length_a                    15.677694
_cell_length_b                    15.677697
_cell_length_c                    34.384513
_cell_angle_alpha                 89.84669
_cell_angle_beta                  89.846705
_cell_angle_gamma                 119.488387
_cell_volume                      7356.44124633

loop_
_atom_site_label
_atom_site_type_symbol
_atom_type_description
_atom_site_fract_x
_atom_site_fract_y
_atom_site_fract_z
_atom_type_partial_charge
C1    C     C_R   0.577856 0.441809 0.554726 0.574580
C2    C     C_R   0.558384 0.136621 0.555165 0.573273
C3    C     C_R   0.863878 0.421779 0.554749 0.587759
C4    C     C_R   0.441809 0.577856 0.054726 0.574580
C5    C     C_R   0.136621 0.558385 0.055164 0.573274
C6    C     C_R   0.421779 0.863878 0.054749 0.587761
C7    C     C_R   0.013144 0.516550 0.708572 0.354395
C8    C     C_R   0.478714 0.499458 0.707683 0.353060
C9    C     C_R   0.471402 0.917154 0.698493 0.349963
C10   C     C_R   0.516550 0.013144 0.208572 0.354396
C11   C     C_R   0.499457 0.478714 0.207683 0.353060
C12   C     C_R   0.917155 0.471402 0.198493 0.349963
C13   C     C_R   0.026655 0.443827 0.850001 -0.116132
C14   C     C_R   0.554730 0.587778 0.848438 -0.120476
C15   C     C_R   0.342257 0.832748 0.835012 -0.113697
C16   C     C_R   0.443827 0.026655 0.350001 -0.116132
C17   C     C_R   0.587778 0.554731 0.348438 -0.120476
C18   C     C_R   0.832749 0.342257 0.335012 -0.113697
C19   C     C_R   0.051706 0.451841 0.889083 -0.123734
C20   C     C_R   0.547586 0.603725 0.887747 -0.130942
C21   C     C_R   0.332317 0.823924 0.875322 -0.126848
C22   C     C_R   0.451841 0.051706 0.389083 -0.123734
C23   C     C_R   0.603725 0.547586 0.387747 -0.130942
C24   C     C_R   0.823925 0.332317 0.375322 -0.126848
C25   C     C_R   0.077623 0.617496 0.889750 -0.136256
C26   C     C_R   0.384238 0.462628 0.889683 -0.127310
C27   C     C_R   0.487219 0.825534 0.879696 -0.128069
C28   C     C_R   0.617496 0.077623 0.389750 -0.136257
C29   C     C_R   0.462628 0.384238 0.389683 -0.127310
C30   C     C_R   0.825534 0.487219 0.379696 -0.128070
C31   C     C_R   0.052758 0.609591 0.850498 -0.120868
C32   C     C_R   0.391568 0.446414 0.850295 -0.115858
C33   C     C_R   0.497802 0.835548 0.839289 -0.115067
C34   C     C_R   0.609590 0.052758 0.350498 -0.120868
C35   C     C_R   0.446414 0.391568 0.350295 -0.115858
C36   C     C_R   0.835547 0.497802 0.339289 -0.115067
C37   C     C_R   0.031710 0.524276 0.829899 0.036209
C38   C     C_R   0.475044 0.511789 0.828996 0.035620
C39   C     C_R   0.425897 0.840418 0.816579 0.036609
C40   C     C_R   0.524275 0.031710 0.329899 0.036209
C41   C     C_R   0.511788 0.475044 0.328996 0.035620
C42   C     C_R   0.840418 0.425897 0.316579 0.036609
C43   C     C_R   0.082452 0.540519 0.908692 0.026711
C44   C     C_R   0.460367 0.544340 0.908173 0.025776
C45   C     C_R   0.405331 0.821870 0.898156 0.019847
C46   C     C_R   0.540519 0.082452 0.408692 0.026711
C47   C     C_R   0.544340 0.460367 0.408174 0.025776
C48   C     C_R   0.821870 0.405331 0.398156 0.019847
C49   C     C_R   0.578325 0.442277 0.445398 0.546215
C50   C     C_R   0.558121 0.135677 0.445509 0.549829
C51   C     C_R   0.809281 0.392051 0.440702 0.568784
C52   C     C_R   0.442277 0.578325 0.945398 0.546215
C53   C     C_R   0.135677 0.558121 0.945509 0.549829
C54   C     C_R   0.392051 0.809282 0.940702 0.568784
C55   C     C_R   0.922969 0.458364 0.590376 0.036493
C56   C     C_R   0.539559 0.464514 0.590048 0.036190
C57   C     C_R   0.532378 0.070064 0.589209 0.030317
C58   C     C_R   0.458364 0.922969 0.090376 0.036495
C59   C     C_R   0.464514 0.539559 0.090048 0.036190
C60   C     C_R   0.070065 0.532379 0.089209 0.030316
C61   C     C_R   0.963612 0.405691 0.608502 0.260980
C62   C     C_R   0.589496 0.558064 0.607345 0.261013
C63   C     C_R   0.435925 0.021370 0.604425 0.259026
C64   C     C_R   0.405691 0.963612 0.108502 0.260981
C65   C     C_R   0.558064 0.589496 0.107345 0.261013
C66   C     C_R   0.021370 0.435925 0.104424 0.259026
C67   C     C_R   0.002131 0.432081 0.646105 -0.106039
C68   C     C_R   0.561620 0.571102 0.644675 -0.105506
C69   C     C_R   0.415728 0.965349 0.638561 -0.103600
C70   C     C_R   0.432081 0.002130 0.146105 -0.106041
C71   C     C_R   0.571101 0.561620 0.144675 -0.105507
C72   C     C_R   0.965349 0.415728 0.138561 -0.103600
C73   C     C_R   0.996131 0.506562 0.666355 -0.004504
C74   C     C_R   0.488662 0.491358 0.665518 -0.004805
C75   C     C_R   0.490843 0.961079 0.659064 -0.006866
C76   C     C_R   0.506561 0.996130 0.166355 -0.004504
C77   C     C_R   0.491357 0.488662 0.165518 -0.004805
C78   C     C_R   0.961080 0.490844 0.159064 -0.006866
C79   C     C_R   0.963276 0.563544 0.646930 -0.139143
C80   C     C_R   0.434101 0.401122 0.646847 -0.139304
C81   C     C_R   0.585701 0.006806 0.643114 -0.136950
C82   C     C_R   0.563544 0.963275 0.146930 -0.139143
C83   C     C_R   0.401122 0.434101 0.146847 -0.139304
C84   C     C_R   0.006808 0.585702 0.143114 -0.136949
C85   C     C_R   0.927863 0.540129 0.609178 -0.184618
C86   C     C_R   0.458842 0.388163 0.609330 -0.184977
C87   C     C_R   0.605924 0.059903 0.608412 -0.185722
C88   C     C_R   0.540129 0.927862 0.109178 -0.184618
C89   C     C_R   0.388162 0.458842 0.109330 -0.184977
C90   C     C_R   0.059905 0.605925 0.108413 -0.185721
C91   C     C_R   0.022956 0.521166 0.787293 0.348518
C92   C     C_R   0.476634 0.506093 0.786392 0.348384
C93   C     C_R   0.440272 0.859924 0.774305 0.350978
C94   C     C_R   0.521166 0.022956 0.287293 0.348518
C95   C     C_R   0.506093 0.476634 0.286392 0.348384
C96   C     C_R   0.859924 0.440272 0.274305 0.350977
Cr1   Cr    Cr6+3 0.522350 0.263930 0.500020 1.014981
Cr2   Cr    Cr6+3 0.736070 0.258420 0.500020 1.014153
Cr3   Cr    Cr6+3 0.741580 0.477650 0.500020 1.016962
Cr4   Cr    Cr6+3 0.263930 0.522350 0.000020 1.014981
Cr5   Cr    Cr6+3 0.258420 0.736070 0.000020 1.014154
Cr6   Cr    Cr6+3 0.477650 0.741580 0.000020 1.016962
H1    H     H_    0.898483 0.582475 0.595636 0.128516
H2    H     H_    0.418579 0.316235 0.596423 0.128497
H3    H     H_    0.680215 0.096118 0.597333 0.125615
H4    H     H_    0.582474 0.898482 0.095636 0.128516
H5    H     H_    0.316235 0.418579 0.096423 0.128497
H6    H     H_    0.096122 0.680217 0.097334 0.125616
H7    H     H_    0.053388 0.390796 0.903164 0.134875
H8    H     H_    0.607809 0.666699 0.901390 0.132280
H9    H     H_    0.267470 0.819138 0.888651 0.124607
H10   H     H_    0.390796 0.053388 0.403164 0.134875
H11   H     H_    0.666699 0.607809 0.401391 0.132280
H12   H     H_    0.819139 0.267471 0.388651 0.124607
H13   H     H_    0.032889 0.391465 0.660090 0.135419
H14   H     H_    0.600266 0.642613 0.658056 0.136451
H15   H     H_    0.341341 0.927831 0.649627 0.140682
H16   H     H_    0.391464 0.032889 0.160090 0.135416
H17   H     H_    0.642613 0.600266 0.158056 0.136451
H18   H     H_    0.927830 0.341341 0.149627 0.140682
H19   H     H_    0.959569 0.622721 0.661566 0.144292
H20   H     H_    0.376054 0.338741 0.661948 0.144279
H21   H     H_    0.645154 0.004214 0.658009 0.144679
H22   H     H_    0.622720 0.959568 0.161566 0.144292
H23   H     H_    0.338741 0.376054 0.161948 0.144279
H24   H     H_    0.004218 0.645156 0.158010 0.144680
H25   H     H_    0.008272 0.376187 0.835106 0.139154
H26   H     H_    0.620943 0.638028 0.832914 0.137877
H27   H     H_    0.285238 0.835882 0.818426 0.140569
H28   H     H_    0.376186 0.008272 0.335106 0.139154
H29   H     H_    0.638028 0.620943 0.332914 0.137877
H30   H     H_    0.835883 0.285238 0.318426 0.140569
H31   H     H_    0.099659 0.686202 0.904439 0.119461
H32   H     H_    0.316303 0.415371 0.904848 0.130800
H33   H     H_    0.543426 0.821328 0.896459 0.135358
H34   H     H_    0.686202 0.099659 0.404439 0.119461
H35   H     H_    0.415371 0.316303 0.404848 0.130800
H36   H     H_    0.821327 0.543426 0.396459 0.135359
H37   H     H_    0.055798 0.672267 0.835851 0.134076
H38   H     H_    0.329547 0.386425 0.836110 0.139235
H39   H     H_    0.562559 0.840186 0.825899 0.139224
H40   H     H_    0.672267 0.055798 0.335852 0.134076
H41   H     H_    0.386425 0.329547 0.336110 0.139235
H42   H     H_    0.840184 0.562559 0.325899 0.139224
N1    N     N_R   0.025916 0.448455 0.767132 -0.225978
N2    N     N_R   0.545824 0.582502 0.765536 -0.225817
N3    N     N_R   0.366346 0.854529 0.752123 -0.220280
N4    N     N_R   0.448455 0.025916 0.267132 -0.225978
N5    N     N_R   0.582502 0.545824 0.265536 -0.225817
N6    N     N_R   0.854529 0.366346 0.252123 -0.220280
N7    N     N_R   0.020752 0.445995 0.728593 -0.230522
N8    N     N_R   0.547069 0.579088 0.726983 -0.227885
N9    N     N_R   0.381583 0.882500 0.715039 -0.227706
N10   N     N_R   0.445995 0.020752 0.228593 -0.230522
N11   N     N_R   0.579088 0.547069 0.226983 -0.227885
N12   N     N_R   0.882500 0.381583 0.215039 -0.227706
N13   N     N_R   0.010962 0.589913 0.728681 -0.220267
N14   N     N_R   0.408695 0.423317 0.728509 -0.223561
N15   N     N_R   0.544866 0.920191 0.720386 -0.222482
N16   N     N_R   0.589912 0.010961 0.228682 -0.220267
N17   N     N_R   0.423317 0.408695 0.228509 -0.223561
N18   N     N_R   0.920191 0.544866 0.220386 -0.222482
N19   N     N_R   0.016527 0.592597 0.767324 -0.225916
N20   N     N_R   0.407226 0.426873 0.767151 -0.225750
N21   N     N_R   0.529558 0.891972 0.757536 -0.221303
N22   N     N_R   0.592596 0.016526 0.267324 -0.225917
N23   N     N_R   0.426873 0.407225 0.267151 -0.225750
N24   N     N_R   0.891972 0.529558 0.257536 -0.221303
O1    O     O_R   0.498680 0.159540 0.541860 -0.466697
O2    O     O_R   0.840460 0.339140 0.541860 -0.465543
O3    O     O_R   0.660860 0.501320 0.541860 -0.469600
O4    O     O_R   0.159540 0.498680 0.041860 -0.466698
O5    O     O_R   0.339140 0.840460 0.041860 -0.465541
O6    O     O_R   0.501320 0.660860 0.041860 -0.469600
O7    O     O_R   0.532760 0.358060 0.540030 -0.522807
O8    O     O_R   0.641940 0.174700 0.540030 -0.522786
O9    O     O_R   0.825300 0.467240 0.540030 -0.519220
O10   O     O_R   0.358060 0.532760 0.040030 -0.522807
O11   O     O_R   0.174700 0.641940 0.040030 -0.522787
O12   O     O_R   0.467240 0.825300 0.040030 -0.519221
O13   O     O_R   0.498590 0.161190 0.456930 -0.516468
O14   O     O_R   0.838810 0.337400 0.456930 -0.507541
O15   O     O_R   0.662600 0.501410 0.456930 -0.532325
O16   O     O_R   0.161190 0.498590 0.956930 -0.516468
O17   O     O_R   0.337400 0.838810 0.956930 -0.507541
O18   O     O_R   0.501410 0.662600 0.956930 -0.532325
O19   O     O_R   0.532680 0.359580 0.461300 -0.505868
O20   O     O_R   0.640420 0.173100 0.461300 -0.525401
O21   O     O_R   0.826900 0.467320 0.461300 -0.496465
O22   O     O_R   0.359580 0.532680 0.961300 -0.505868
O23   O     O_R   0.173100 0.640420 0.961300 -0.525401
O24   O     O_R   0.467320 0.826900 0.961300 -0.496466
O25   O     O_3   0.666667 0.333333 0.499990 -0.277558
O26   O     O_3   0.333333 0.666667 0.999990 -0.277558
O27   O     O_3   0.967862 0.330801 0.588778 -0.532814
C97   C     C_3   0.912227 0.240957 0.608784 0.001138
H43   H     H_    0.840696 0.231592 0.619295 0.122477
H44   H     H_    0.954168 0.236053 0.633884 0.130212
C98   C     C_3   0.891010 0.156913 0.581343 -0.354828
H45   H     H_    0.960764 0.162865 0.570787 0.160638
H46   H     H_    0.848037 0.085894 0.596828 0.087857
H47   H     H_    0.848086 0.158864 0.556044 0.170234
O28   O     O_3   0.663289 0.636447 0.587113 -0.535039
C99   C     C_3   0.753140 0.672529 0.607123 0.001150
H48   H     H_    0.764415 0.612050 0.618452 0.123397
H49   H     H_    0.756260 0.719988 0.631661 0.130577
C100  C     C_3   0.836994 0.734256 0.579334 -0.355804
H50   H     H_    0.829329 0.796578 0.568045 0.159500
H51   H     H_    0.907985 0.763510 0.594791 0.089310
H52   H     H_    0.836648 0.688831 0.554536 0.170700
O29   O     O_3   0.360623 0.025239 0.585006 -0.534473
C101  C     C_3   0.329537 0.081213 0.606928 0.001483
H53   H     H_    0.392894 0.151803 0.616664 0.124970
H54   H     H_    0.286375 0.039121 0.632773 0.127850
C102  C     C_3   0.264178 0.104942 0.581798 -0.355815
H55   H     H_    0.199217 0.036170 0.572102 0.159510
H56   H     H_    0.238973 0.148630 0.598778 0.089924
H57   H     H_    0.305546 0.148062 0.555880 0.168312
O30   O     O_3   0.330802 0.967863 0.088777 -0.532814
C103  C     C_3   0.240959 0.912235 0.108784 0.001134
H58   H     H_    0.236056 0.954185 0.133882 0.130216
H59   H     H_    0.231591 0.840707 0.119300 0.122474
C104  C     C_3   0.156914 0.891011 0.081343 -0.354833
H60   H     H_    0.158861 0.848075 0.056047 0.170231
H61   H     H_    0.085895 0.848049 0.096829 0.087858
H62   H     H_    0.162870 0.960762 0.070780 0.160642
O31   O     O_3   0.636447 0.663289 0.087113 -0.535039
C105  C     C_3   0.672529 0.753140 0.107123 0.001150
H63   H     H_    0.719989 0.756260 0.131661 0.130577
H64   H     H_    0.612050 0.764415 0.118452 0.123397
C106  C     C_3   0.734256 0.836994 0.079334 -0.355803
H65   H     H_    0.688830 0.836648 0.054536 0.170700
H66   H     H_    0.763509 0.907984 0.094792 0.089310
H67   H     H_    0.796577 0.829329 0.068045 0.159500
O32   O     O_3   0.025238 0.360623 0.085006 -0.534473
C107  C     C_3   0.081212 0.329536 0.106927 0.001483
H68   H     H_    0.039120 0.286374 0.132773 0.127850
H69   H     H_    0.151802 0.392892 0.116664 0.124970
C108  C     C_3   0.104940 0.264177 0.081798 -0.355816
H70   H     H_    0.148060 0.305545 0.055880 0.168312
H71   H     H_    0.148628 0.238972 0.098777 0.089924
H72   H     H_    0.036168 0.199217 0.072101 0.159509

loop_
_geom_bond_atom_site_label_1
_geom_bond_atom_site_label_2
_ccdc_geom_bond_type
C25   C31   A    
O28   C99   S    
C24   H12   S    
C30   H36   S    
C17   H29   S    
Cr6   O12   S    
C6    C58   S    
C18   H30   S    
C104  H60   S    
C91   N1    A    
C51   O14   A    
C8    N14   A    
C25   C43   A    
C105  H64   S    
C2    C57   S    
C14   H26   S    
C7    C73   S    
C80   H20   S    
C27   C33   A    
C26   C32   A    
C79   H19   S    
C28   C46   A    
C33   C39   A    
N4    N10   A    
C99   C100  S    
C29   C47   A    
C18   C24   A    
C30   C48   A    
C8    N8    A    
C1    C56   S    
C83   H23   S    
Cr3   O9    S    
C32   C38   A    
C18   C42   A    
C63   C69   A    
Cr3   O3    S    
C27   C45   A    
C9    N15   A    
C68   C74   A    
C38   C92   S    
C11   N17   A    
Cr1   O1    S    
C107  H68   S    
C65   O31   S    
Cr1   O19   S    
C59   C89   A    
Cr1   O25   S    
O31   C105  S    
C67   H13   S    
C5    O11   A    
C1    O7    A    
C72   C78   A    
C11   C77   S    
C2    O8    A    
C49   O15   A    
C36   C42   A    
C43   C53   S    
C48   C51   S    
C66   C72   A    
C108  H70   S    
C39   C93   S    
C54   O17   A    
C12   C78   S    
C98   H47   S    
C80   C86   A    
O32   C107  S    
C96   N24   A    
C93   N3    A    
C67   C73   A    
N16   N22   A    
C108  H72   S    
C25   H31   S    
N13   N19   A    
C13   C37   A    
C51   O21   A    
N14   N20   A    
C44   C52   S    
C12   N18   A    
C93   N21   A    
C98   H45   S    
C105  H63   S    
C74   C80   A    
Cr4   O4    S    
N2    N8    A    
C84   H24   S    
C94   N22   A    
C84   C90   A    
C12   N12   A    
C97   C98   S    
Cr5   O17   S    
Cr6   O26   S    
C103  H59   S    
C103  H58   S    
C21   H9    S    
C19   C43   A    
C46   C50   S    
C57   C63   A    
C21   C45   A    
N5    N11   A    
C19   H7    S    
C94   N4    A    
C83   C89   A    
C104  H62   S    
C23   C47   A    
Cr5   O5    S    
C37   C91   S    
C26   C44   A    
C100  H50   S    
C24   C48   A    
C14   C20   A    
C60   C90   A    
C97   H44   S    
C53   O16   A    
C76   C82   A    
Cr1   O7    S    
Cr3   O21   S    
C13   C19   A    
C4    O10   A    
C75   C81   A    
C52   O22   A    
O27   C97   S    
C91   N19   A    
C58   C64   A    
C33   H39   S    
C65   C71   A    
C63   O29   S    
C92   N2    A    
C1    O3    A    
C78   C84   A    
N15   N21   A    
Cr2   O25   S    
C58   C88   A    
C13   H25   S    
C55   C85   A    
C102  H55   S    
Cr6   O18   S    
C26   H32   S    
C57   C87   A    
Cr5   O11   S    
C100  H52   S    
C88   H4    S    
C61   C67   A    
C56   C86   A    
O29   C101  S    
C87   H3    S    
C101  C102  S    
C96   N6    A    
C68   H14   S    
C72   H18   S    
C8    C74   S    
C73   C79   A    
C86   H2    S    
C49   O19   A    
C108  H71   S    
C17   C23   A    
C101  H53   S    
C53   O23   A    
C15   C39   A    
N1    N7    A    
C35   C41   A    
C54   O24   A    
C16   C40   A    
C60   C66   A    
C20   H8    S    
C103  C104  S    
C22   C46   A    
C99   H49   S    
C45   C54   S    
C20   C44   A    
C64   C70   A    
C71   H17   S    
C106  H66   S    
C70   C76   A    
C9    N9    A    
C7    N7    A    
Cr4   O26   S    
C102  H57   S    
C50   O13   A    
C31   H37   S    
C14   C38   A    
C52   O18   A    
C10   N16   A    
C40   C94   S    
C71   C77   A    
C16   H28   S    
Cr5   O26   S    
C100  H51   S    
C82   H22   S    
Cr4   O16   S    
C15   H27   S    
O30   C103  S    
Cr3   O25   S    
C61   O27   S    
C34   H40   S    
C16   C22   A    
C64   O30   S    
C6    O12   A    
Cr2   O8    S    
C28   H34   S    
N6    N12   A    
C10   C76   S    
Cr4   O10   S    
Cr4   O22   S    
C77   C83   A    
C101  H54   S    
C97   H43   S    
Cr5   O23   S    
C95   N23   A    
C50   O20   A    
C85   H1    S    
C104  H61   S    
C3    O2    A    
Cr1   O13   S    
C95   N5    A    
C7    N13   A    
C6    O5    A    
C11   N11   A    
Cr2   O14   S    
Cr6   O6    S    
C29   H35   S    
C29   C35   A    
C3    C55   S    
C107  C108  S    
C62   C68   A    
C66   O32   S    
C42   C96   S    
C27   H33   S    
C102  H56   S    
C3    O9    A    
C90   H6    S    
C30   C36   A    
C47   C49   S    
C59   C65   A    
C10   N10   A    
C81   C87   A    
C92   N20   A    
C41   C95   S    
C70   H16   S    
C82   C88   A    
C55   C61   A    
C4    C59   S    
C69   H15   S    
C79   C85   A    
C107  H69   S    
C69   C75   A    
C106  H67   S    
C56   C62   A    
Cr6   O24   S    
C5    C60   S    
C32   H38   S    
C36   H42   S    
N3    N9    A    
C17   C41   A    
C62   O28   S    
C81   H21   S    
N18   N24   A    
C2    O1    A    
C28   C34   A    
C89   H5    S    
Cr2   O2    S    
C31   C37   A    
C15   C21   A    
C99   H48   S    
C106  H65   S    
C98   H46   S    
N17   N23   A    
C5    O4    A    
C34   C40   A    
C4    O6    A    
Cr3   O15   S    
C9    C75   S    
C23   H11   S    
Cr2   O20   S    
C105  C106  S    
C22   H10   S    
C35   H41   S    
