data_mof_unit_48300.cif
_audit_creation_date              2012-12-11T17:19:07-0500
_audit_creation_method            fapswitch 2.2
_symmetry_space_group_name_H-M    P1
_symmetry_Int_Tables_number       1
_space_group_crystal_system       triclinic
_cell_length_a                    15.113649
_cell_length_b                    7.29873
_cell_length_c                    13.1974
_cell_angle_alpha                 90.000876
_cell_angle_beta                  100.175662
_cell_angle_gamma                 89.998923
_cell_volume                      1432.91221581

loop_
_atom_site_label
_atom_site_type_symbol
_atom_type_description
_atom_site_fract_x
_atom_site_fract_y
_atom_site_fract_z
_atom_type_partial_charge
O1    O     O_R   0.648180 0.355050 0.151550 -0.579052
O2    O     O_R   0.351820 0.644950 0.848450 -0.493801
O3    O     O_R   0.851820 0.855050 0.348450 -0.579055
O4    O     O_R   0.148180 0.144950 0.651550 -0.493788
O5    O     O_R   0.835240 0.681980 0.154280 -0.543881
O6    O     O_R   0.164760 0.318020 0.845720 -0.517260
O7    O     O_R   0.664760 0.181980 0.345720 -0.543884
O8    O     O_R   0.335240 0.818020 0.654280 -0.517254
C1    C     C_R   0.862366 0.514977 0.131478 0.878513
C2    C     C_R   0.137749 0.482951 0.868933 0.884881
C3    C     C_R   0.637637 0.014980 0.368527 0.878452
C4    C     C_R   0.362249 0.982949 0.631064 0.884873
O9    O     O_R   0.647870 0.684600 0.139630 -0.491920
O10   O     O_R   0.352130 0.315400 0.860370 -0.582658
O11   O     O_R   0.852130 0.184600 0.360370 -0.491910
O12   O     O_R   0.147870 0.815400 0.639630 -0.582660
O13   O     O_R   0.663110 0.857440 0.333700 -0.511213
O14   O     O_R   0.336890 0.142560 0.666300 -0.544331
O15   O     O_R   0.836890 0.357440 0.166300 -0.511159
O16   O     O_R   0.163110 0.642560 0.833700 -0.544331
C5    C     C_R   0.614850 0.516257 0.113510 0.813385
C6    C     C_R   0.385042 0.483926 0.886635 0.801386
C7    C     C_R   0.885150 0.016256 0.386490 0.813361
C8    C     C_R   0.114958 0.983927 0.613365 0.801357
O17   O     O_3   0.755220 0.522230 0.313690 -0.397950
O18   O     O_3   0.244780 0.477770 0.686310 -0.394226
O19   O     O_3   0.744780 0.022230 0.186310 -0.397928
O20   O     O_3   0.255220 0.977770 0.813690 -0.394253
V1    V     V_3+5 0.749030 0.796100 0.238190 1.505809
V2    V     V_3+5 0.250970 0.203900 0.761810 1.496377
V3    V     V_3+5 0.750970 0.296100 0.261810 1.505838
V4    V     V_3+5 0.249030 0.703900 0.738190 1.496379
C9    C     C_1   0.966201 0.005776 0.466673 -0.099919
C10   C     C_1   0.033908 0.994647 0.533200 -0.104523
C11   C     C_1   0.533799 0.505777 0.033327 -0.099928
C12   C     C_1   0.466092 0.494646 0.966800 -0.104547
H1    H     H_    0.224501 0.897040 0.261880 0.185249
H2    H     H_    0.778710 0.911605 0.734075 0.187819
H3    H     H_    0.275504 0.397070 0.238115 0.185249
H4    H     H_    0.721290 0.411463 0.765939 0.187848
C13   C     C_R   0.553321 0.927735 0.717554 0.362521
C14   C     C_R   0.448969 0.937209 0.280488 0.364727
C15   C     C_R   0.946673 0.427721 0.782447 0.362499
C16   C     C_R   0.051035 0.437210 0.219511 0.364729
C17   C     C_R   0.644310 0.902168 0.758806 0.257986
C18   C     C_R   0.359336 0.899688 0.238942 0.259083
C19   C     C_R   0.855687 0.402107 0.741201 0.258005
C20   C     C_R   0.140670 0.399698 0.261054 0.259084
C21   C     C_R   0.708801 0.928687 0.699049 -0.267553
C22   C     C_R   0.293724 0.920762 0.297649 -0.282258
C23   C     C_R   0.791196 0.428585 0.800963 -0.267640
C24   C     C_R   0.206280 0.420785 0.202346 -0.282274
C25   C     C_R   0.685042 0.947102 0.592302 0.451795
C26   C     C_R   0.316335 0.938281 0.404733 0.453102
C27   C     C_R   0.814957 0.447042 0.907710 0.451867
C28   C     C_R   0.183667 0.438299 0.095263 0.453103
C29   C     C_R   0.593266 0.975404 0.545172 -0.079841
C30   C     C_R   0.407509 0.969416 0.453259 -0.079028
C31   C     C_R   0.906732 0.475381 0.954831 -0.079763
C32   C     C_R   0.092491 0.469426 0.046739 -0.079027
C33   C     C_R   0.525661 0.966518 0.609376 -0.140687
C34   C     C_R   0.475322 0.972978 0.389226 -0.142977
C35   C     C_R   0.974335 0.466507 0.890624 -0.140723
C36   C     C_R   0.024680 0.472981 0.110773 -0.142998
C37   C     C_R   0.567596 0.996843 0.435737 -0.088383
C38   C     C_R   0.432688 0.982214 0.563409 -0.088924
C39   C     C_R   0.932404 0.496835 0.064265 -0.088329
C40   C     C_R   0.067309 0.482222 0.936588 -0.088939
Cl1   Cl    Cl    0.679102 0.806852 0.882021 -0.697477
Cl2   Cl    Cl    0.329153 0.796214 0.116967 -0.696715
Cl3   Cl    Cl    0.820892 0.306890 0.617960 -0.697438
Cl4   Cl    Cl    0.170858 0.296212 0.383024 -0.696699
O21   O     O_3   0.491734 0.885714 0.780102 -0.540330
C41   C     C_3   0.490626 0.026438 0.853213 -0.146094
H5    H     H_    0.492246 0.165488 0.818803 0.088288
H6    H     H_    0.546368 0.012206 0.919270 0.149991
H7    H     H_    0.428220 0.012161 0.885429 0.174168
O22   O     O_3   0.511394 0.907427 0.217333 -0.536338
C42   C     C_3   0.509048 0.053362 0.146834 -0.159498
H8    H     H_    0.504636 0.189568 0.183733 0.091111
H9    H     H_    0.453566 0.036556 0.080675 0.144218
H10   H     H_    0.571630 0.048939 0.114394 0.166046
O23   O     O_3   0.008258 0.385765 0.719885 -0.540331
C43   C     C_3   0.009352 0.526547 0.646811 -0.146093
H11   H     H_    0.007780 0.665550 0.681272 0.088395
H12   H     H_    0.953581 0.512433 0.580795 0.149922
H13   H     H_    0.071724 0.512255 0.614537 0.174122
O24   O     O_3   0.988611 0.407414 0.282665 -0.536342
C44   C     C_3   0.990953 0.553339 0.353172 -0.159496
H14   H     H_    0.995365 0.689552 0.316283 0.091091
H15   H     H_    0.046434 0.536524 0.419332 0.144243
H16   H     H_    0.928370 0.548913 0.385609 0.166066
O25   O     O_3   0.751246 0.915852 0.534006 -0.554302
C45   C     C_3   0.781012 0.732464 0.549487 -0.162944
H17   H     H_    0.723924 0.634376 0.545626 0.163564
H18   H     H_    0.828628 0.719064 0.623289 0.128667
H19   H     H_    0.818585 0.690855 0.489223 0.167563
O26   O     O_3   0.250433 0.898571 0.462012 -0.554130
C46   C     C_3   0.221159 0.716110 0.440910 -0.168415
H20   H     H_    0.276364 0.622100 0.427910 0.154162
H21   H     H_    0.165662 0.714890 0.373837 0.128497
H22   H     H_    0.195039 0.657706 0.506472 0.187779
O27   O     O_3   0.748764 0.415807 0.966024 -0.554255
C47   C     C_3   0.718832 0.232555 0.950396 -0.163458
H23   H     H_    0.775796 0.134337 0.953737 0.163647
H24   H     H_    0.670925 0.219654 0.876796 0.128573
H25   H     H_    0.681569 0.190675 0.010875 0.167839
O28   O     O_3   0.249568 0.398577 0.037984 -0.554132
C48   C     C_3   0.278835 0.216109 0.059081 -0.168389
H26   H     H_    0.223625 0.122108 0.072067 0.154158
H27   H     H_    0.334324 0.214874 0.126162 0.128498
H28   H     H_    0.304964 0.157706 0.993525 0.187767

loop_
_geom_bond_atom_site_label_1
_geom_bond_atom_site_label_2
_ccdc_geom_bond_type
O17   V3    S    
C16   C20   A    
C30   C34   A    
O25   C45   S    
C27   C31   A    
O19   V1    S    
O13   V1    S    
O21   C41   S    
O3    C7    A    
C11   C12   T    
C43   H13   S    
C13   C33   A    
O15   V3    S    
C47   H24   S    
C15   C35   A    
H2    C21   S    
C16   C36   A    
O1    C5    A    
C22   C26   A    
C41   H6    S    
O9    V1    S    
C43   H12   S    
C48   H27   S    
C26   C30   A    
O4    C8    A    
C27   O27   S    
O1    V3    S    
C15   O23   S    
O28   C48   S    
O2    V4    S    
C14   C18   A    
O3    V1    S    
C28   O28   S    
C31   C39   A    
C33   C38   A    
C30   C38   A    
C46   H20   S    
C2    O16   A    
C7    C9    S    
C41   H7    S    
O2    C6    A    
O14   V2    S    
C44   H15   S    
C14   C34   A    
O11   C7    A    
H3    C24   S    
O12   C8    A    
C20   Cl4   S    
C47   H23   S    
C1    O15   A    
O5    V1    S    
O7    V3    S    
C41   H5    S    
C17   Cl1   S    
O8    V4    S    
C36   C39   A    
C43   H11   S    
C48   H28   S    
C42   H9    S    
C25   C29   A    
O18   V4    S    
C19   C23   A    
C45   H19   S    
O10   V2    S    
C4    C38   S    
O11   V3    S    
C8    C10   S    
C28   C32   A    
O7    C3    A    
C1    C39   S    
O5    C1    A    
O23   C43   S    
C17   C21   A    
O8    C4    A    
C9    C10   T    
O9    C5    A    
C44   H16   S    
C45   H18   S    
C19   Cl3   S    
C46   H21   S    
C14   O22   S    
O16   V4    S    
C35   C40   A    
C3    O13   A    
C34   C37   A    
O6    V2    S    
O22   C42   S    
C29   C37   A    
O6    C2    A    
C42   H10   S    
C29   C33   A    
C5    C11   S    
C2    C40   S    
O12   V4    S    
H4    C23   S    
C6    C12   S    
C18   C22   A    
C31   C35   A    
C32   C36   A    
O10   C6    A    
O20   V2    S    
C48   H26   S    
H1    C22   S    
C21   C25   A    
C23   C27   A    
C47   H25   S    
C45   H17   S    
C18   Cl2   S    
C13   O21   S    
C42   H8    S    
C24   C28   A    
C20   C24   A    
C46   H22   S    
O24   C44   S    
C32   C40   A    
O26   C46   S    
C4    O14   A    
O27   C47   S    
C13   C17   A    
C26   O26   S    
C44   H14   S    
C16   O24   S    
C15   C19   A    
C25   O25   S    
O4    V2    S    
C3    C37   S    
