data_mof_unit_66569.cif
_audit_creation_date              2012-12-10T16:55:43-0500
_audit_creation_method            fapswitch 2.2
_symmetry_space_group_name_H-M    P1
_symmetry_Int_Tables_number       1
_space_group_crystal_system       triclinic
_cell_length_a                    7.786765
_cell_length_b                    8.563398
_cell_length_c                    10.470613
_cell_angle_alpha                 91.256239
_cell_angle_beta                  85.016386
_cell_angle_gamma                 93.592412
_cell_volume                      694.091134129

loop_
_atom_site_label
_atom_site_type_symbol
_atom_type_description
_atom_site_fract_x
_atom_site_fract_y
_atom_site_fract_z
_atom_type_partial_charge
C1    C     C_R   0.544900 0.794364 0.495365 0.919506
C2    C     C_3   0.500229 0.500657 0.877586 0.035518
C3    C     C_3   0.412970 0.368871 0.044809 -0.190043
C4    C     C_3   0.587032 0.631141 0.955191 -0.190042
C5    C     C_2   0.560646 0.955102 0.470070 -0.246365
C6    C     C_2   0.439352 0.044897 0.529932 -0.246371
C7    C     C_R   0.669865 0.001611 0.351301 0.156602
C8    C     C_R   0.844565 0.049871 0.357018 -0.063081
C9    C     C_R   0.945686 0.096598 0.245902 -0.175501
C10   C     C_R   0.872987 0.094422 0.128421 -0.123317
C11   C     C_R   0.699948 0.043318 0.121625 -0.138134
C12   C     C_R   0.455099 0.205636 0.504637 0.919518
C13   C     C_R   0.598056 0.998017 0.232753 -0.181844
C14   C     C_R   0.330131 0.998390 0.648702 0.156589
C15   C     C_R   0.401926 0.002032 0.767257 -0.181841
C16   C     C_R   0.300029 0.956749 0.878389 -0.138137
C17   C     C_R   0.126998 0.905613 0.871589 -0.123322
C18   C     C_R   0.054314 0.903385 0.754101 -0.175494
C19   C     C_R   0.155439 0.950097 0.642980 -0.063070
C20   C     C_R   0.500619 0.500634 0.742555 0.866052
C21   C     C_R   0.499382 0.499371 0.257445 0.866058
C22   C     C_3   0.335814 0.496233 0.969277 -0.126345
C23   C     C_3   0.664187 0.503780 0.030723 -0.126350
C24   C     C_3   0.423003 0.626640 0.049592 -0.170538
C25   C     C_3   0.576998 0.373372 0.950408 -0.170551
C26   C     C_3   0.499772 0.499354 0.122414 0.035515
H1    H     H_    0.359151 0.727874 0.096189 0.125280
H2    H     H_    0.079848 0.135802 0.251084 0.116056
H3    H     H_    0.950669 0.132436 0.042723 0.130385
H4    H     H_    0.644760 0.039282 0.030329 0.113662
H5    H     H_    0.463471 0.960748 0.226789 0.107013
H6    H     H_    0.536505 0.039329 0.773224 0.107021
H7    H     H_    0.355206 0.960823 0.969691 0.113657
H8    H     H_    0.049312 0.867614 0.957290 0.130389
H9    H     H_    0.920159 0.864156 0.748916 0.116053
H10   H     H_    0.100020 0.943864 0.551900 0.109502
H11   H     H_    0.640853 0.272140 0.903812 0.125271
H12   H     H_    0.201797 0.493468 0.940268 0.144979
H13   H     H_    0.798204 0.506544 0.059732 0.144980
H14   H     H_    0.342595 0.262342 0.086143 0.122904
H15   H     H_    0.657405 0.737671 0.913857 0.122911
H16   H     H_    0.014139 0.382958 0.402792 0.190553
H17   H     H_    0.985846 0.617028 0.597233 0.190534
H18   H     H_    0.899995 0.056067 0.448093 0.109496
N1    N     N_2   0.950320 0.457950 0.465730 -0.174575
N2    N     N_2   0.049680 0.542050 0.534270 -0.174565
O1    O     O_R   0.389250 0.738570 0.508410 -0.608123
O2    O     O_R   0.610750 0.261430 0.491590 -0.608116
O3    O     O_R   0.678390 0.711620 0.486450 -0.630907
O4    O     O_R   0.321610 0.288380 0.513550 -0.630905
O5    O     O_R   0.355460 0.513510 0.697030 -0.614313
O6    O     O_R   0.644540 0.486490 0.302970 -0.614309
O7    O     O_R   0.644600 0.486560 0.675070 -0.635301
O8    O     O_R   0.355400 0.513440 0.324930 -0.635294
Zn1   Zn    Zn3+2 0.306940 0.517990 0.514670 0.940373
Zn2   Zn    Zn3+2 0.693060 0.482010 0.485330 0.940374

loop_
_geom_bond_atom_site_label_1
_geom_bond_atom_site_label_2
_ccdc_geom_bond_type
N2    Zn1   S    
C2    C22   S    
C2    C4    S    
C21   C26   S    
C16   H7    S    
C6    C14   S    
O3    Zn2   S    
C5    C7    S    
C18   H9    S    
C12   O4    A    
O4    Zn1   S    
N1    Zn2   S    
C24   H1    S    
C3    C25   S    
C12   O2    A    
C10   C11   A    
C17   C18   A    
C7    C8    A    
N1    N2    D    
C11   C13   A    
C10   H3    S    
C17   H8    S    
C5    C6    D    
C23   H13   S    
C22   C24   S    
C24   C26   S    
C3    H14   S    
C2    C25   S    
O5    Zn1   S    
C19   H10   S    
C23   C25   S    
C20   O5    A    
C6    C12   S    
C21   O8    A    
C4    C24   S    
H17   N2    S    
C1    C5    S    
O7    Zn2   S    
C16   C17   A    
C4    H15   S    
H16   N1    S    
C2    C20   S    
C15   C16   A    
C22   H12   S    
C8    H18   S    
C7    C13   A    
C11   H4    S    
O1    Zn1   S    
C18   C19   A    
C9    C10   A    
C23   C26   S    
O2    Zn2   S    
C4    C23   S    
O8    Zn1   S    
C8    C9    A    
C3    C22   S    
C25   H11   S    
C14   C15   A    
C1    O3    A    
C14   C19   A    
C13   H5    S    
C21   O6    A    
C1    O1    A    
O6    Zn2   S    
C9    H2    S    
C20   O7    A    
C3    C26   S    
C15   H6    S    
