data_mof_unit_62820.cif
_audit_creation_date              2012-12-10T20:24:51-0500
_audit_creation_method            fapswitch 2.2
_symmetry_space_group_name_H-M    P1
_symmetry_Int_Tables_number       1
_space_group_crystal_system       triclinic
_cell_length_a                    25.709084
_cell_length_b                    25.709084
_cell_length_c                    43.111945
_cell_angle_alpha                 89.999976
_cell_angle_beta                  89.999987
_cell_angle_gamma                 90.017116
_cell_volume                      28495.140565

loop_
_atom_site_label
_atom_site_type_symbol
_atom_type_description
_atom_site_fract_x
_atom_site_fract_y
_atom_site_fract_z
_atom_type_partial_charge
C1    C     C_1   0.171444 0.328556 0.250000 -0.024146
C2    C     C_1   0.828559 0.328559 0.250000 -0.022273
C3    C     C_R   0.500000 0.000001 0.531421 0.296029
C4    C     C_R   0.499999 0.000000 0.968579 0.296028
C5    C     C_R   0.499999 0.000000 0.031421 0.296033
C6    C     C_R   0.000000 0.499999 0.968579 0.296029
C7    C     C_R   0.000000 0.499999 0.031421 0.296032
C8    C     C_R   0.500000 0.000000 0.334282 0.805653
C9    C     C_R   0.500000 0.000000 0.665717 0.805619
C10   C     C_R   1.000000 0.500000 0.334282 0.805652
C11   C     C_R   1.000000 0.500000 0.665717 0.805619
C12   C     C_R   1.000000 0.500000 0.834282 0.805620
C13   C     C_1   0.671444 0.828556 0.750000 -0.024213
C14   C     C_R   1.000000 0.500000 0.165717 0.805652
C15   C     C_R   0.500000 1.000000 0.834282 0.805620
C16   C     C_R   0.500000 0.000000 0.165717 0.805652
C17   C     C_R   0.598964 0.098964 0.250000 0.829829
C18   C     C_R   0.401036 0.901036 0.750000 0.829839
C19   C     C_R   0.901032 0.598968 0.250000 0.824404
C20   C     C_R   0.098968 0.401032 0.750000 0.824392
C21   C     C_R   0.401036 0.901036 0.250000 0.829827
C22   C     C_R   0.598964 0.098964 0.750000 0.829834
C23   C     C_R   0.098968 0.401032 0.250000 0.824438
C24   C     C_1   0.328556 0.171444 0.250000 -0.024146
C25   C     C_R   0.901032 0.598968 0.750000 0.824385
C26   C     C_R   0.598968 0.901032 0.750000 0.824385
C27   C     C_R   0.401032 0.098968 0.250000 0.824438
C28   C     C_R   0.901036 0.401036 0.750000 0.829834
C29   C     C_R   0.098964 0.598964 0.250000 0.829827
C30   C     C_R   0.401032 0.098968 0.750000 0.824392
C31   C     C_R   0.598968 0.901032 0.250000 0.824404
C32   C     C_R   0.098964 0.598964 0.750000 0.829839
C33   C     C_R   0.901036 0.401036 0.250000 0.829829
C34   C     C_R   0.214882 0.253641 0.275048 -0.053504
C35   C     C_1   0.828559 0.328559 0.750000 -0.022235
C36   C     C_R   0.786265 0.747506 0.725488 -0.053567
C37   C     C_R   0.732091 0.229141 0.278323 -0.054118
C38   C     C_R   0.268087 0.770682 0.721670 -0.054092
C39   C     C_R   0.785704 0.746945 0.274780 -0.053537
C40   C     C_R   0.213851 0.252611 0.725432 -0.053562
C41   C     C_R   0.267887 0.770881 0.278322 -0.054119
C42   C     C_R   0.731972 0.229259 0.721672 -0.054098
C43   C     C_R   0.229318 0.731913 0.721670 -0.054092
C44   C     C_R   0.770859 0.267909 0.278323 -0.054117
C45   C     C_R   0.747506 0.786265 0.725488 -0.053568
C46   C     C_1   0.171441 0.671441 0.250000 -0.022275
C47   C     C_R   0.253641 0.214882 0.275048 -0.053504
C48   C     C_R   0.770741 0.268027 0.721672 -0.054098
C49   C     C_R   0.229119 0.732113 0.278322 -0.054120
C50   C     C_R   0.252611 0.213852 0.725432 -0.053561
C51   C     C_R   0.746945 0.785704 0.274780 -0.053537
C52   C     C_R   0.713735 0.752494 0.774511 -0.053567
C53   C     C_R   0.285118 0.246359 0.224952 -0.053504
C54   C     C_R   0.231913 0.729318 0.778329 -0.054092
C55   C     C_R   0.767909 0.270859 0.221677 -0.054118
C56   C     C_R   0.286148 0.247389 0.774568 -0.053562
C57   C     C_1   0.328556 0.171444 0.750000 -0.024206
C58   C     C_R   0.714296 0.753055 0.225220 -0.053537
C59   C     C_R   0.768028 0.270741 0.778327 -0.054098
C60   C     C_R   0.232113 0.729119 0.221677 -0.054119
C61   C     C_R   0.729141 0.232091 0.221677 -0.054117
C62   C     C_R   0.270682 0.768086 0.778329 -0.054092
C63   C     C_R   0.246359 0.285118 0.224952 -0.053504
C64   C     C_R   0.752494 0.713735 0.774511 -0.053568
C65   C     C_R   0.270881 0.767887 0.221677 -0.054120
C66   C     C_R   0.729259 0.231972 0.778327 -0.054098
C67   C     C_R   0.753055 0.714296 0.225220 -0.053537
C68   C     C_1   0.671444 0.828556 0.250000 -0.024184
C69   C     C_R   0.247389 0.286148 0.774568 -0.053561
C70   C     C_1   0.568993 0.067836 0.131414 0.210126
C71   C     C_1   0.431003 0.932168 0.868586 0.210122
C72   C     C_1   0.932165 0.431006 0.131414 0.210151
C73   C     C_1   0.067832 0.568997 0.868586 0.210118
C74   C     C_1   0.431006 0.932164 0.131414 0.210151
C75   C     C_1   0.568997 0.067832 0.868586 0.210118
C76   C     C_1   0.067836 0.568993 0.131414 0.210126
C77   C     C_1   0.932168 0.431003 0.868586 0.210123
C78   C     C_1   0.068998 0.567832 0.631414 0.210122
C79   C     C_R   0.211271 0.288729 0.250000 0.027881
C80   C     C_1   0.931007 0.432164 0.368586 0.210126
C81   C     C_1   0.432168 0.931003 0.631414 0.210118
C82   C     C_1   0.567835 0.068994 0.368586 0.210151
C83   C     C_1   0.931003 0.432168 0.631414 0.210119
C84   C     C_1   0.068994 0.567835 0.368586 0.210152
C85   C     C_1   0.567832 0.068997 0.631414 0.210123
C86   C     C_1   0.432164 0.931007 0.368586 0.210126
C87   C     C_1   0.568813 0.067811 0.065520 0.210688
C88   C     C_1   0.431182 0.932192 0.934480 0.210686
C89   C     C_1   0.932189 0.431185 0.065520 0.210700
C90   C     C_R   0.788729 0.711271 0.750000 0.027887
C91   C     C_1   0.067808 0.568816 0.934480 0.210680
C92   C     C_1   0.431185 0.932189 0.065520 0.210701
C93   C     C_1   0.568816 0.067808 0.934480 0.210680
C94   C     C_1   0.067811 0.568813 0.065520 0.210689
C95   C     C_1   0.932192 0.431183 0.934480 0.210685
C96   C     C_1   0.068818 0.567808 0.565520 0.210686
C97   C     C_1   0.931187 0.432189 0.434480 0.210688
C98   C     C_1   0.432192 0.931184 0.565520 0.210680
C99   C     C_1   0.567811 0.068815 0.434480 0.210700
C100  C     C_1   0.931184 0.432192 0.565520 0.210679
C101  C     C_R   0.711269 0.211269 0.250000 0.029201
C102  C     C_1   0.068815 0.567811 0.434480 0.210700
C103  C     C_1   0.567808 0.068817 0.565520 0.210685
C104  C     C_1   0.432189 0.931187 0.434480 0.210689
C105  C     C_1   0.257435 0.178726 0.300800 0.200571
C106  C     C_1   0.744891 0.823599 0.700288 0.200582
C107  C     C_1   0.792365 0.286383 0.307437 0.202134
C108  C     C_1   0.207995 0.713257 0.692550 0.202167
C109  C     C_1   0.743753 0.822461 0.300257 0.200566
C110  C     C_1   0.255345 0.176637 0.700173 0.200585
C111  C     C_1   0.207590 0.713662 0.307436 0.202150
C112  C     C_1   0.828556 0.671444 0.750000 -0.024213
C113  C     C_R   0.288731 0.788731 0.750000 0.029218
C114  C     C_1   0.792125 0.286623 0.692554 0.202168
C115  C     C_1   0.286743 0.792005 0.692550 0.202164
C116  C     C_1   0.713617 0.207635 0.307437 0.202148
C117  C     C_1   0.823599 0.744891 0.700288 0.200581
C118  C     C_1   0.178726 0.257435 0.300800 0.200570
C119  C     C_1   0.713377 0.207875 0.692554 0.202171
C120  C     C_1   0.286338 0.792410 0.307436 0.202136
C121  C     C_1   0.176637 0.255345 0.700173 0.200586
C122  C     C_1   0.822461 0.743753 0.300257 0.200566
C123  C     C_1   0.755109 0.676400 0.799712 0.200582
C124  C     C_R   0.788729 0.711271 0.250000 0.027882
C125  C     C_1   0.242565 0.321274 0.199200 0.200571
C126  C     C_1   0.292005 0.786743 0.807450 0.202167
C127  C     C_1   0.707635 0.213617 0.192563 0.202134
C128  C     C_1   0.244654 0.323363 0.799827 0.200585
C129  C     C_1   0.756247 0.677538 0.199743 0.200566
C130  C     C_1   0.707875 0.213376 0.807446 0.202168
C131  C     C_1   0.292410 0.786338 0.192564 0.202150
C132  C     C_1   0.786383 0.292365 0.192563 0.202148
C133  C     C_1   0.213257 0.707995 0.807450 0.202164
C134  C     C_1   0.321274 0.242565 0.199200 0.200570
C135  C     C_R   0.211271 0.288729 0.750000 0.027888
C136  C     C_1   0.676401 0.755109 0.799712 0.200581
C137  C     C_1   0.213662 0.707590 0.192564 0.202136
C138  C     C_1   0.786623 0.292125 0.807446 0.202171
C139  C     C_1   0.677539 0.756247 0.199743 0.200566
C140  C     C_1   0.323363 0.244654 0.799827 0.200586
C141  C     C_R   0.288731 0.788731 0.250000 0.029201
C142  C     C_R   0.711269 0.211269 0.750000 0.029217
C143  C     C_R   0.211269 0.711269 0.750000 0.029218
C144  C     C_R   0.788731 0.288731 0.250000 0.029201
C145  C     C_R   0.711271 0.788729 0.750000 0.027887
C146  C     C_R   0.288729 0.211271 0.250000 0.027881
C147  C     C_R   0.788731 0.288731 0.750000 0.029217
C148  C     C_1   0.671441 0.171441 0.250000 -0.022273
C149  C     C_R   0.211269 0.711269 0.250000 0.029201
C150  C     C_R   0.288729 0.211271 0.750000 0.027888
C151  C     C_R   0.711271 0.788729 0.250000 0.027882
C152  C     C_R   0.533231 0.034038 0.114858 -0.068742
C153  C     C_R   0.466766 0.965963 0.885141 -0.068774
C154  C     C_R   0.965962 0.466768 0.114858 -0.068749
C155  C     C_R   0.034036 0.533233 0.885141 -0.068772
C156  C     C_R   0.466768 0.965962 0.114858 -0.068749
C157  C     C_R   0.533233 0.034037 0.885142 -0.068771
C158  C     C_R   0.034038 0.533231 0.114858 -0.068741
C159  C     C_1   0.328559 0.828559 0.750000 -0.022228
C160  C     C_R   0.965963 0.466766 0.885141 -0.068774
C161  C     C_R   0.033234 0.534037 0.614859 -0.068774
C162  C     C_R   0.966769 0.465962 0.385142 -0.068742
C163  C     C_R   0.465963 0.966767 0.614858 -0.068772
C164  C     C_R   0.534038 0.033232 0.385141 -0.068749
C165  C     C_R   0.966767 0.465963 0.614858 -0.068771
C166  C     C_R   0.033232 0.534038 0.385141 -0.068749
C167  C     C_R   0.534037 0.033234 0.614858 -0.068774
C168  C     C_R   0.465962 0.966769 0.385142 -0.068742
C169  C     C_1   0.361667 0.138333 0.250000 -0.115422
C170  C     C_1   0.828556 0.671444 0.250000 -0.024184
C171  C     C_1   0.638333 0.861666 0.750000 -0.115441
C172  C     C_1   0.861672 0.361672 0.250000 -0.108389
C173  C     C_1   0.138327 0.638327 0.750000 -0.108343
C174  C     C_1   0.638333 0.861667 0.250000 -0.115437
C175  C     C_1   0.361666 0.138333 0.750000 -0.115436
C176  C     C_1   0.138327 0.638327 0.250000 -0.108389
C177  C     C_1   0.861672 0.361672 0.750000 -0.108344
C178  C     C_1   0.361673 0.861672 0.750000 -0.108343
C179  C     C_1   0.638328 0.138327 0.250000 -0.108389
C180  C     C_1   0.861667 0.638333 0.750000 -0.115441
C181  C     C_1   0.171444 0.328556 0.750000 -0.024206
C182  C     C_1   0.138333 0.361666 0.250000 -0.115422
C183  C     C_1   0.638328 0.138327 0.750000 -0.108344
C184  C     C_1   0.361673 0.861672 0.250000 -0.108389
C185  C     C_1   0.138333 0.361667 0.750000 -0.115436
C186  C     C_1   0.861667 0.638333 0.250000 -0.115437
C187  C     C_R   0.499999 0.000000 0.065745 -0.034506
C188  C     C_R   0.499999 0.000000 0.934254 -0.034520
C189  C     C_R   0.000000 0.499999 0.065745 -0.034507
C190  C     C_R   1.000000 0.499999 0.934254 -0.034521
C191  C     C_R   0.000001 0.500000 0.565745 -0.034520
C192  C     C_1   0.328559 0.828559 0.250000 -0.022275
C193  C     C_R   0.000001 0.500000 0.434255 -0.034506
C194  C     C_R   0.500000 0.000001 0.565745 -0.034521
C195  C     C_R   0.500000 0.000001 0.434255 -0.034507
C196  C     C_R   0.533201 0.034025 0.082183 -0.041906
C197  C     C_R   0.466796 0.965977 0.917817 -0.041924
C198  C     C_R   0.965975 0.466797 0.082183 -0.041910
C199  C     C_R   0.034023 0.533203 0.917817 -0.041923
C200  C     C_R   0.466797 0.965975 0.082183 -0.041910
C201  C     C_R   0.533203 0.034023 0.917817 -0.041922
C202  C     C_R   0.034025 0.533201 0.082183 -0.041906
C203  C     C_1   0.671441 0.171441 0.750000 -0.022235
C204  C     C_R   0.965977 0.466796 0.917817 -0.041923
C205  C     C_R   0.033204 0.534023 0.582183 -0.041924
C206  C     C_R   0.966799 0.465975 0.417817 -0.041906
C207  C     C_R   0.465977 0.966797 0.582183 -0.041923
C208  C     C_R   0.534024 0.033203 0.417817 -0.041910
C209  C     C_R   0.966797 0.465977 0.582183 -0.041922
C210  C     C_R   0.033203 0.534024 0.417817 -0.041910
C211  C     C_R   0.534023 0.033204 0.582183 -0.041923
C212  C     C_R   0.465975 0.966799 0.417817 -0.041906
C213  C     C_R   0.500000 0.000000 0.131345 -0.113633
C214  C     C_1   0.171441 0.671441 0.750000 -0.022228
C215  C     C_R   0.500000 1.000000 0.868654 -0.113661
C216  C     C_R   1.000000 0.500000 0.131345 -0.113633
C217  C     C_R   1.000000 0.500000 0.868654 -0.113661
C218  C     C_R   0.000000 0.500000 0.631345 -0.113661
C219  C     C_R   0.000000 0.500000 0.368654 -0.113633
C220  C     C_R   0.500000 0.000000 0.631345 -0.113661
C221  C     C_R   0.500000 0.000000 0.368654 -0.113633
C222  C     C_R   0.000001 0.500000 0.468579 0.296033
C223  C     C_R   0.000001 0.500000 0.531421 0.296028
C224  C     C_R   0.500000 0.000001 0.468579 0.296032
N1    N     N_R   0.506506 0.954996 0.015435 -0.147114
N2    N     N_R   0.993494 0.545004 0.484565 -0.147114
N3    N     N_R   0.545004 0.993494 0.515435 -0.147116
N4    N     N_R   0.454996 0.006508 0.484565 -0.147085
N5    N     N_R   0.993494 0.545004 0.515435 -0.147117
N6    N     N_R   0.006508 0.454996 0.484565 -0.147086
N7    N     N_R   0.454996 0.006508 0.515435 -0.147100
N8    N     N_R   0.545004 0.993494 0.484565 -0.147114
N9    N     N_1   0.597513 0.094766 0.144599 -0.164809
N10   N     N_1   0.402481 0.905239 0.855400 -0.164762
N11   N     N_1   0.905234 0.402486 0.144599 -0.164792
N12   N     N_R   0.493492 0.045004 0.984565 -0.147099
N13   N     N_1   0.094761 0.597518 0.855401 -0.164765
N14   N     N_1   0.402486 0.905234 0.144599 -0.164795
N15   N     N_1   0.597518 0.094761 0.855401 -0.164774
N16   N     N_1   0.094766 0.597513 0.144599 -0.164812
N17   N     N_1   0.905239 0.402482 0.855400 -0.164770
N18   N     N_1   0.097519 0.594761 0.644600 -0.164762
N19   N     N_1   0.902487 0.405234 0.355401 -0.164809
N20   N     N_1   0.405239 0.902481 0.644599 -0.164766
N21   N     N_1   0.594766 0.097514 0.355400 -0.164792
N22   N     N_1   0.902482 0.405239 0.644599 -0.164774
N23   N     N_R   0.045004 0.493492 0.015435 -0.147085
N24   N     N_1   0.097514 0.594766 0.355400 -0.164795
N25   N     N_1   0.594761 0.097518 0.644600 -0.164770
N26   N     N_1   0.405234 0.902487 0.355401 -0.164812
N27   N     N_1   0.597218 0.094733 0.052246 -0.152943
N28   N     N_1   0.402775 0.905272 0.947754 -0.152933
N29   N     N_1   0.905268 0.402779 0.052246 -0.152936
N30   N     N_1   0.094728 0.597223 0.947754 -0.152937
N31   N     N_1   0.402779 0.905268 0.052246 -0.152937
N32   N     N_1   0.597223 0.094728 0.947754 -0.152939
N33   N     N_1   0.094733 0.597218 0.052246 -0.152944
N34   N     N_R   0.954996 0.506506 0.984565 -0.147116
N35   N     N_1   0.905272 0.402776 0.947754 -0.152935
N36   N     N_1   0.097225 0.594728 0.552246 -0.152933
N37   N     N_1   0.902782 0.405267 0.447754 -0.152943
N38   N     N_1   0.405272 0.902777 0.552246 -0.152937
N39   N     N_1   0.594732 0.097221 0.447754 -0.152936
N40   N     N_1   0.902777 0.405272 0.552246 -0.152939
N41   N     N_1   0.097221 0.594732 0.447754 -0.152937
N42   N     N_1   0.594728 0.097224 0.552246 -0.152935
N43   N     N_1   0.405267 0.902781 0.447754 -0.152944
N44   N     N_1   0.260480 0.149883 0.321330 -0.168266
N45   N     N_R   0.493492 0.045004 0.015435 -0.147086
N46   N     N_1   0.742786 0.853383 0.680199 -0.168042
N47   N     N_1   0.809534 0.301135 0.330643 -0.159358
N48   N     N_1   0.190971 0.698358 0.669340 -0.159377
N49   N     N_1   0.741188 0.851785 0.320567 -0.168163
N50   N     N_1   0.257546 0.146949 0.680037 -0.168056
N51   N     N_1   0.190403 0.698927 0.330640 -0.159338
N52   N     N_1   0.809197 0.301473 0.669345 -0.159361
N53   N     N_1   0.301642 0.809029 0.669340 -0.159379
N54   N     N_1   0.698864 0.190465 0.330643 -0.159345
N55   N     N_1   0.853383 0.742786 0.680199 -0.168045
N56   N     N_R   0.506506 0.954996 0.984565 -0.147117
N57   N     N_1   0.149883 0.260480 0.321330 -0.168267
N58   N     N_1   0.698527 0.190803 0.669345 -0.159358
N59   N     N_1   0.301073 0.809597 0.330640 -0.159351
N60   N     N_1   0.146949 0.257546 0.680037 -0.168054
N61   N     N_1   0.851785 0.741187 0.320567 -0.168161
N62   N     N_1   0.757214 0.646617 0.819801 -0.168042
N63   N     N_1   0.239520 0.350117 0.178670 -0.168266
N64   N     N_1   0.309029 0.801641 0.830660 -0.159377
N65   N     N_1   0.690466 0.198864 0.169357 -0.159358
N66   N     N_1   0.242454 0.353051 0.819963 -0.168056
N67   N     N_R   0.954996 0.506506 0.015435 -0.147114
N68   N     N_1   0.758812 0.648215 0.179433 -0.168163
N69   N     N_1   0.690802 0.198526 0.830655 -0.159361
N70   N     N_1   0.309597 0.801073 0.169359 -0.159338
N71   N     N_1   0.801136 0.309534 0.169357 -0.159345
N72   N     N_1   0.198358 0.690970 0.830660 -0.159379
N73   N     N_1   0.350117 0.239520 0.178670 -0.168267
N74   N     N_1   0.646617 0.757214 0.819801 -0.168045
N75   N     N_1   0.198927 0.690403 0.169359 -0.159351
N76   N     N_1   0.801473 0.309197 0.830655 -0.159358
N77   N     N_1   0.648215 0.758812 0.179433 -0.168161
N78   N     N_R   0.045004 0.493492 0.984565 -0.147100
N79   N     N_1   0.353051 0.242454 0.819963 -0.168054
N80   N     N_R   0.006508 0.454996 0.515435 -0.147099
O1    O     O_3   0.500000 0.000000 0.250000 -0.495734
O2    O     O_R   0.457240 0.000000 0.680670 -0.630032
O3    O     O_R   1.000000 0.542760 0.319330 -0.630032
O4    O     O_R   1.000000 0.457240 0.680670 -0.630029
O5    O     O_R   0.957240 0.500000 0.819330 -0.630036
O6    O     O_R   0.042760 0.500000 0.180670 -0.630010
O7    O     O_R   0.500000 0.957240 0.819330 -0.630038
O8    O     O_R   0.500000 0.042760 0.180670 -0.630011
O9    O     O_R   0.042760 0.500000 0.819330 -0.630031
O10   O     O_R   0.957240 0.500000 0.180670 -0.630033
O11   O     O_R   0.500000 0.042760 0.819330 -0.630030
O12   O     O_3   0.500000 0.000000 0.750000 -0.495742
O13   O     O_R   0.500000 0.957240 0.180670 -0.630032
O14   O     O_R   0.602780 0.060140 0.268190 -0.628464
O15   O     O_R   0.397220 0.939860 0.731810 -0.628459
O16   O     O_R   0.939860 0.602780 0.268190 -0.630695
O17   O     O_R   0.060140 0.397220 0.731810 -0.630684
O18   O     O_R   0.397220 0.939860 0.268190 -0.628488
O19   O     O_R   0.602780 0.060140 0.731810 -0.628453
O20   O     O_R   0.060140 0.397220 0.268190 -0.630705
O21   O     O_R   0.939860 0.602780 0.731810 -0.630685
O22   O     O_R   0.602780 0.939860 0.731810 -0.630683
O23   O     O_3   0.000000 0.500000 0.250000 -0.495734
O24   O     O_R   0.397220 0.060140 0.268190 -0.630704
O25   O     O_R   0.939860 0.397220 0.731810 -0.628458
O26   O     O_R   0.060140 0.602780 0.268190 -0.628463
O27   O     O_R   0.397220 0.060140 0.731810 -0.630686
O28   O     O_R   0.602780 0.939860 0.268190 -0.630696
O29   O     O_R   0.060140 0.602780 0.731810 -0.628455
O30   O     O_R   0.939860 0.397220 0.268190 -0.628489
O31   O     O_R   0.102780 0.560140 0.768190 -0.628459
O32   O     O_R   0.897220 0.439860 0.231810 -0.628464
O33   O     O_R   0.439860 0.102780 0.768190 -0.630684
O34   O     O_3   0.000000 0.500000 0.750000 -0.495742
O35   O     O_R   0.560140 0.897220 0.231810 -0.630695
O36   O     O_R   0.897220 0.439860 0.768190 -0.628453
O37   O     O_R   0.102780 0.560140 0.231810 -0.628488
O38   O     O_R   0.560140 0.897220 0.768190 -0.630684
O39   O     O_R   0.439860 0.102780 0.231810 -0.630705
O40   O     O_R   0.102780 0.439860 0.231810 -0.630704
O41   O     O_R   0.897220 0.560140 0.768190 -0.630683
O42   O     O_R   0.439860 0.897220 0.231810 -0.628463
O43   O     O_R   0.560140 0.102780 0.768190 -0.628457
O44   O     O_R   0.897220 0.560140 0.231810 -0.630696
O45   O     O_R   0.457240 0.000000 0.319330 -0.630010
O46   O     O_R   0.102780 0.439860 0.768190 -0.630686
O47   O     O_R   0.560140 0.102780 0.231810 -0.628488
O48   O     O_R   0.439860 0.897220 0.768190 -0.628455
O49   O     O_R   0.542760 0.000000 0.680670 -0.630036
O50   O     O_R   1.000000 0.457240 0.319330 -0.630011
O51   O     O_R   1.000000 0.542760 0.680670 -0.630038
O52   O     O_R   0.542760 0.000000 0.319330 -0.630033
Zn1   Zn    Zn3+2 0.500000 0.061050 0.224040 1.002907
Zn2   Zn    Zn3+2 0.000000 0.438950 0.275960 1.002907
Zn3   Zn    Zn3+2 0.438950 0.000000 0.724040 1.002916
Zn4   Zn    Zn3+2 0.561050 0.000000 0.275960 1.002911
Zn5   Zn    Zn3+2 0.000000 0.438950 0.724040 1.002918
Zn6   Zn    Zn3+2 1.000000 0.561050 0.275960 1.002912
Zn7   Zn    Zn3+2 0.561050 0.000000 0.724040 1.002917
Zn8   Zn    Zn3+2 0.438950 0.000000 0.275960 1.002908
Zn9   Zn    Zn3+2 0.500000 0.938950 0.775960 1.002915
Zn10  Zn    Zn3+2 0.938950 0.500000 0.224040 1.002911
Zn11  Zn    Zn3+2 0.061050 0.500000 0.775960 1.002916
Zn12  Zn    Zn3+2 0.500000 0.938950 0.224040 1.002912
Zn13  Zn    Zn3+2 0.500000 0.061050 0.775960 1.002918
Zn14  Zn    Zn3+2 0.061050 0.500000 0.224040 1.002908
Zn15  Zn    Zn3+2 0.938950 0.500000 0.775960 1.002917
Zn16  Zn    Zn3+2 1.000000 0.561050 0.724040 1.002915

loop_
_geom_bond_atom_site_label_1
_geom_bond_atom_site_label_2
_ccdc_geom_bond_type
N34   N67   A    
O28   Zn4   S    
C101  C148  S    
C17   O14   A    
O30   Zn2   S    
C12   C217  S    
O42   Zn12  S    
C19   O16   A    
C127  N65   T    
C105  N44   T    
C89   C198  S    
C12   O9    A    
O20   Zn2   S    
C23   O40   A    
O45   Zn8   S    
C56   C140  S    
C42   C119  S    
C94   N33   T    
C50   C110  S    
C71   N10   T    
C9    O49   A    
C110  N50   T    
C75   N15   T    
C100  N40   T    
C47   C105  S    
C58   C67   A    
C121  N60   T    
C93   C201  S    
C27   C169  S    
C25   O41   A    
C97   N37   T    
C49   C111  S    
C75   C157  S    
C54   C143  A    
C47   C146  A    
C99   N39   T    
C51   C109  S    
C161  C205  A    
C67   C129  S    
C224  N4    A    
C41   C49   A    
C190  C199  A    
C40   C135  A    
C157  C215  A    
C72   C154  S    
O38   Zn9   S    
C23   C182  S    
C15   C215  S    
C62   C126  S    
C55   C144  A    
C27   O24   A    
O43   Zn13  S    
C88   C197  S    
O26   Zn6   S    
C18   O48   A    
C1    C182  T    
C73   C155  S    
C74   C156  S    
C61   C127  S    
C36   C117  S    
C11   C218  S    
C63   C125  S    
C9    C220  S    
C193  C222  S    
C60   C65   A    
C148  C179  T    
C4    N56   A    
C18   O15   A    
C3    N7    A    
C191  C223  S    
C153  C215  A    
C48   C114  S    
C10   O50   A    
C11   O4    A    
C181  C185  T    
C32   O29   A    
C72   N11   T    
O31   Zn11  S    
C32   C173  S    
C6    N34   A    
C187  C200  A    
C4    C188  S    
C37   C44   A    
C116  N54   T    
C38   C43   A    
C59   C66   A    
C68   C151  S    
C166  C210  A    
C190  C204  A    
C82   C164  S    
C26   O22   A    
C53   C146  A    
N1    N56   A    
C5    N1    A    
C43   C108  S    
C41   C120  S    
C14   O10   A    
C92   N31   T    
C20   O17   A    
C55   C132  S    
O32   Zn10  S    
C33   C172  S    
C166  C219  A    
N4    N7    A    
C59   C147  A    
C34   C118  S    
C39   C51   A    
C223  N80   A    
C125  N63   T    
C85   N25   T    
C126  N64   T    
C2    C144  S    
C13   C145  S    
C168  C221  A    
C26   O38   A    
C25   C180  S    
C37   C116  S    
C41   C141  A    
C194  C207  A    
C39   C122  S    
C77   N17   T    
C81   N20   T    
O8    Zn1   S    
C19   C186  S    
C154  C198  A    
C158  C216  A    
C7    N23   A    
C100  C209  S    
O34   Zn5   S    
C57   C175  T    
C15   O11   A    
C120  N59   T    
C195  C208  A    
C69   C128  S    
C97   C206  S    
O29   Zn16  S    
C112  C180  T    
C17   C179  S    
C30   O33   A    
C128  N66   T    
C32   O31   A    
C30   O27   A    
C4    N12   A    
O12   Zn13  S    
C141  C192  S    
C10   C219  S    
C152  C196  A    
C85   C167  S    
C86   C168  S    
C154  C216  A    
C164  C208  A    
C103  C211  S    
O51   Zn16  S    
C59   C138  S    
O50   Zn2   S    
C189  C198  A    
C70   N9    T    
C74   N14   T    
C61   C101  A    
C123  N62   T    
C34   C79   A    
C65   C141  A    
C98   N38   T    
C14   C216  S    
C42   C48   A    
C113  C159  S    
C80   C162  S    
C191  C209  A    
O23   Zn2   S    
O36   Zn15  S    
C140  N79   T    
C52   C136  S    
C33   O30   A    
C137  N75   T    
C157  C201  A    
C104  C212  S    
C159  C178  T    
C56   C150  A    
C31   O35   A    
C44   C107  S    
C36   C90   A    
O16   Zn6   S    
C189  C202  A    
O48   Zn9   S    
C80   N19   T    
C88   N28   T    
C84   N24   T    
O34   Zn11  S    
C195  C212  A    
C37   C101  A    
C38   C115  S    
C53   C63   A    
O19   Zn7   S    
C193  C210  A    
O9    Zn11  S    
C28   O25   A    
O3    Zn6   S    
C10   O3    A    
C55   C61   A    
N12   N45   A    
C139  N77   T    
O49   Zn7   S    
C223  N5    A    
C13   C171  T    
C46   C149  S    
C222  N6    A    
C78   C161  S    
C69   C135  A    
C56   C69   A    
O23   Zn6   S    
C156  C213  A    
C135  C181  S    
O35   Zn12  S    
C92   C200  S    
N6    N80   A    
C162  C206  A    
C2    C172  T    
C31   C174  S    
C23   O20   A    
C35   C177  T    
C21   C184  S    
O41   Zn15  S    
O21   Zn16  S    
C187  C196  A    
C43   C143  A    
C104  N43   T    
C64   C90   A    
O1    Zn4   S    
C114  N52   T    
C83   C165  S    
O37   Zn14  S    
C14   O6    A    
C122  N61   T    
O34   Zn15  S    
O22   Zn7   S    
C195  C224  S    
C25   O21   A    
C143  C214  S    
C48   C147  A    
O46   Zn11  S    
O52   Zn4   S    
C191  C205  A    
C133  N72   T    
C6    N78   A    
O39   Zn1   S    
C7    N67   A    
C164  C221  A    
C8    O45   A    
O24   Zn8   S    
C129  N68   T    
C102  N41   T    
C184  C192  T    
C33   O32   A    
C94   C202  S    
O12   Zn3   S    
C28   C177  S    
C51   C151  A    
O2    Zn3   S    
C161  C218  A    
O7    Zn9   S    
O27   Zn3   S    
O17   Zn5   S    
O1    Zn8   S    
O14   Zn4   S    
C93   N32   T    
C107  N47   T    
C108  N48   T    
C62   C113  A    
C52   C64   A    
C38   C113  A    
C54   C62   A    
C54   C133  S    
C131  N70   T    
C27   O39   A    
O25   Zn5   S    
O11   Zn13  S    
C170  C186  T    
O12   Zn7   S    
C118  N57   T    
C26   C171  S    
C45   C145  A    
C98   C207  S    
C5    C187  S    
C29   C176  S    
C3    N3    A    
C30   C175  S    
C58   C151  A    
C11   O51   A    
C19   O44   A    
O10   Zn10  S    
C53   C134  S    
C160  C204  A    
C22   O43   A    
C66   C142  A    
C64   C123  S    
C152  C213  A    
C5    N45   A    
C132  N71   T    
C99   C208  S    
C76   N16   T    
C173  C214  T    
C24   C146  S    
C165  C209  A    
C188  C197  A    
C40   C50   A    
C163  C207  A    
C155  C217  A    
C21   O42   A    
C155  C199  A    
C39   C124  A    
C77   C160  S    
C167  C211  A    
C7    C189  S    
C34   C47   A    
C109  N49   T    
O5    Zn15  S    
C58   C139  S    
C86   N26   T    
C16   O8    A    
C52   C145  A    
C168  C212  A    
C90   C112  S    
C67   C124  A    
C96   C205  S    
C63   C79   A    
C95   N35   T    
C40   C121  S    
C130  N69   T    
C76   C158  S    
C78   N18   T    
C87   C196  S    
C224  N8    A    
O1    Zn1   S    
C153  C197  A    
C16   O13   A    
C222  N2    A    
C71   C153  S    
O23   Zn10  S    
O6    Zn14  S    
C188  C201  A    
C103  N42   T    
C20   O46   A    
O12   Zn9   S    
C20   C185  S    
C42   C142  A    
C111  N51   T    
C96   N36   T    
C60   C137  S    
C91   C199  S    
C163  C220  A    
C115  N53   T    
N3    N8    A    
C194  C211  A    
C89   N29   T    
C81   C163  S    
C31   O28   A    
C156  C200  A    
C65   C131  S    
C136  N74   T    
C119  N58   T    
C22   O19   A    
C3    C194  S    
C9    O2    A    
C70   C152  S    
O15   Zn3   S    
C68   C174  T    
C102  C210  S    
C95   C204  S    
O23   Zn14  S    
C134  N73   T    
C73   N13   T    
C22   C183  S    
C21   O18   A    
C28   O36   A    
C50   C150  A    
C160  C217  A    
C44   C144  A    
C57   C150  S    
C6    C190  S    
C36   C45   A    
C35   C147  S    
C24   C169  T    
C18   C178  S    
C165  C218  A    
O1    Zn12  S    
O4    Zn5   S    
C106  N46   T    
N23   N78   A    
C158  C202  A    
C46   C176  T    
C167  C220  A    
C8    O52   A    
C45   C106  S    
C162  C219  A    
C193  C206  A    
C82   N21   T    
O18   Zn8   S    
C17   O47   A    
C91   N30   T    
N2    N5    A    
C29   O37   A    
C12   O5    A    
C49   C149  A    
C183  C203  T    
C142  C203  S    
C87   N27   T    
O34   Zn16  S    
C117  N55   T    
O44   Zn10  S    
C1    C79   S    
C83   N22   T    
C60   C149  A    
O40   Zn14  S    
C16   C213  S    
C84   C166  S    
C124  C170  S    
O33   Zn13  S    
C29   O26   A    
O13   Zn12  S    
C138  N76   T    
C8    C221  S    
O47   Zn1   S    
C66   C130  S    
C15   O7    A    
