data_mof_unit_65369.cif
_audit_creation_date              2012-10-26T20:25:05-0400
_audit_creation_method            fapswitch 2.2
_symmetry_space_group_name_H-M    P1
_symmetry_Int_Tables_number       1
_space_group_crystal_system       triclinic
_cell_length_a                    19.349832
_cell_length_b                    14.669917
_cell_length_c                    15.909143
_cell_angle_alpha                 89.921132
_cell_angle_beta                  90.125207
_cell_angle_gamma                 89.979771
_cell_volume                      4515.96081594

loop_
_atom_site_label
_atom_site_type_symbol
_atom_type_description
_atom_site_fract_x
_atom_site_fract_y
_atom_site_fract_z
_atom_type_partial_charge
C1    C     C_R   0.500179 0.500000 0.339902 0.522576
C2    C     C_3   0.436524 0.453980 0.050203 -0.017629
C3    C     C_3   0.432281 0.462576 0.950914 0.381134
C4    C     C_3   0.519871 0.596402 0.952175 0.375272
C5    C     C_1   0.501503 0.499704 0.749375 0.048302
C6    C     C_3   0.507857 0.492363 0.083526 0.009389
C7    C     C_3   0.504635 0.497183 0.917113 0.178338
C8    C     C_R   0.632755 0.500010 0.498696 0.578773
C9    C     C_3   0.564345 0.430190 0.947112 0.438455
C10   C     C_3   0.572383 0.434204 0.048588 0.290930
C11   C     C_1   0.502867 0.498946 0.824689 0.169601
C12   C     C_R   0.930037 0.496193 0.496014 0.417400
C13   C     C_1   0.505088 0.496422 0.175564 0.016985
C14   C     C_1   0.502317 0.499389 0.250742 -0.018288
C15   C     C_3   0.531489 0.055054 0.591332 0.327590
C16   C     C_3   0.527220 0.944415 0.594160 0.312572
C17   C     C_3   0.543237 0.054100 0.427911 0.407774
C18   C     C_3   0.548871 0.945634 0.433540 0.453303
C19   C     C_3   0.498856 0.091900 0.504756 0.051284
C20   C     C_3   0.499712 0.908081 0.505274 0.091279
C21   C     C_3   0.423721 0.945195 0.488472 0.392571
C22   C     C_3   0.422363 0.054560 0.494289 0.404840
C23   C     C_R   0.181929 0.569239 0.541565 0.192305
C24   C     C_1   0.498838 0.804693 0.502884 0.309884
C25   C     C_1   0.498513 0.195297 0.502642 0.286529
C26   C     C_R   0.500277 0.499947 0.660032 0.557293
C27   C     C_R   0.367181 0.500032 0.499729 0.623897
C28   C     C_R   0.745217 0.556337 0.551682 0.193486
C29   C     C_R   0.744359 0.444289 0.437425 0.176980
C30   C     C_R   0.818255 0.552334 0.554149 0.187944
C31   C     C_R   0.817249 0.442178 0.438725 0.249917
C32   C     C_R   0.853807 0.496917 0.496341 0.038150
C33   C     C_R   0.708606 0.500039 0.495639 -0.003889
C34   C     C_R   0.182115 0.437094 0.447335 0.206727
C35   C     C_R   0.069892 0.499316 0.494958 0.364303
C36   C     C_3   0.529733 0.089666 0.744964 -0.209675
C37   C     C_3   0.497874 0.834331 0.713720 -0.253563
C38   C     C_3   0.353229 0.344759 0.112979 -0.288642
C39   C     C_3   0.537211 0.745527 0.110629 -0.282321
C40   C     C_3   0.674520 0.470243 0.148101 -0.273695
C41   C     C_3   0.563089 0.310274 0.166265 -0.275246
C42   C     C_R   0.254798 0.567452 0.543856 0.238421
C43   C     C_R   0.255137 0.433909 0.451753 0.168320
C44   C     C_R   0.291008 0.500447 0.498335 0.020882
C45   C     C_R   0.145815 0.502438 0.494497 0.008525
C46   C     C_3   0.510286 0.594021 0.050123 0.047029
Cu1   Cu    Cu3+1 0.500090 0.589920 0.499910 1.089439
Cu2   Cu    Cu3+1 0.500090 0.410080 0.499910 1.085162
H1    H     H_    0.457952 0.622728 0.062754 0.139949
H2    H     H_    0.564268 0.919854 0.313288 0.314697
H3    H     H_    0.606504 0.157509 0.410611 0.349537
H4    H     H_    0.647579 0.935283 0.404200 0.355759
H5    H     H_    0.382035 0.048107 0.609308 0.340271
H6    H     H_    0.330727 0.926873 0.535057 0.340546
H7    H     H_    0.343574 0.081258 0.420515 0.348379
H8    H     H_    0.353166 0.924962 0.400430 0.333545
H9    H     H_    0.473748 0.158082 0.654836 0.276657
H10   H     H_    0.491182 0.100328 0.795579 0.137967
H11   H     H_    0.569694 0.143804 0.749687 0.203571
H12   H     H_    0.395997 0.498942 0.077710 0.119368
H13   H     H_    0.554691 0.022418 0.754800 0.200709
H14   H     H_    0.438101 0.948735 0.679527 0.281398
H15   H     H_    0.454096 0.818921 0.756481 0.155948
H16   H     H_    0.544075 0.849563 0.752722 0.169932
H17   H     H_    0.507337 0.772989 0.674798 0.166182
H18   H     H_    0.828633 0.608886 0.663791 0.353060
H19   H     H_    0.822990 0.350414 0.349287 0.384879
H20   H     H_    0.102007 0.648363 0.559143 0.350152
H21   H     H_    0.172997 0.359990 0.348746 0.341355
H22   H     H_    0.261090 0.671684 0.620863 0.391430
H23   H     H_    0.736220 0.669163 0.614547 0.348151
H24   H     H_    0.264775 0.310616 0.408883 0.351187
H25   H     H_    0.486313 0.672917 0.859120 0.338367
H26   H     H_    0.374237 0.573824 0.966420 0.334456
H27   H     H_    0.443543 0.307935 0.049953 0.289563
H28   H     H_    0.350290 0.273985 0.137563 0.167396
H29   H     H_    0.314357 0.353235 0.062142 0.160647
H30   H     H_    0.341309 0.392111 0.165428 0.173120
H31   H     H_    0.610397 0.647272 0.082457 0.283162
H32   H     H_    0.576810 0.781411 0.148875 0.153360
H33   H     H_    0.487735 0.746988 0.145894 0.179048
H34   H     H_    0.664575 0.420642 0.365223 0.319045
H35   H     H_    0.530909 0.781899 0.049821 0.166647
H36   H     H_    0.367047 0.364657 0.924883 0.365989
H37   H     H_    0.591278 0.690135 0.937731 0.342521
H38   H     H_    0.657808 0.529807 0.029934 0.306136
H39   H     H_    0.719876 0.516637 0.149230 0.150180
H40   H     H_    0.694723 0.399817 0.154579 0.178838
H41   H     H_    0.641266 0.489350 0.201722 0.155491
H42   H     H_    0.616796 0.303614 0.054031 0.273337
H43   H     H_    0.574120 0.236200 0.171914 0.142633
H44   H     H_    0.508489 0.318842 0.184192 0.201223
H45   H     H_    0.661488 0.409580 0.919263 0.357096
H46   H     H_    0.596143 0.345568 0.212429 0.149060
H47   H     H_    0.519863 0.307366 0.952961 0.352608
H48   H     H_    0.596431 0.844318 0.601063 0.344461
H49   H     H_    0.632509 0.047476 0.565140 0.423733
H50   H     H_    0.545270 0.074367 0.305581 0.328976
N1    N     N_R   0.965185 0.496715 0.422280 -0.152446
N2    N     N_2   0.558797 0.652306 0.096267 -0.512235
N3    N     N_2   0.638058 0.480517 0.069058 -0.503568
N4    N     N_2   0.576172 0.339340 0.080105 -0.518315
N5    N     N_R   0.966182 0.496642 0.569222 -0.144151
N6    N     N_R   0.033905 0.498139 0.421735 -0.154724
N7    N     N_R   0.034905 0.498139 0.568730 -0.189874
N8    N     N_1   0.498600 0.724970 0.501390 -0.179252
N9    N     N_1   0.498600 0.275030 0.501390 -0.174357
N10   N     N_2   0.495389 0.094629 0.663829 -0.504799
N11   N     N_2   0.480698 0.912133 0.661249 -0.480258
N12   N     N_2   0.422026 0.362160 0.081142 -0.522414
O1    O     O_R   0.500080 0.575970 0.379360 -0.492333
O2    O     O_3   0.710100 0.392886 0.377536 -0.709800
O3    O     O_3   0.626303 0.457381 0.907732 -0.621258
O4    O     O_3   0.551158 0.341346 0.915750 -0.670096
O5    O     O_3   0.594458 0.910771 0.611673 -0.647509
O6    O     O_3   0.600580 0.087088 0.596762 -0.629092
O7    O     O_3   0.510765 0.079042 0.351496 -0.617178
O8    O     O_3   0.529141 0.904950 0.356506 -0.616487
O9    O     O_3   0.610187 0.092878 0.428663 -0.712964
O10   O     O_3   0.617368 0.918536 0.452118 -0.668546
O11   O     O_3   0.380149 0.088358 0.559897 -0.706493
O12   O     O_R   0.500080 0.424030 0.379360 -0.502308
O13   O     O_3   0.378188 0.904436 0.546818 -0.709816
O14   O     O_3   0.394412 0.090562 0.419262 -0.573916
O15   O     O_3   0.403788 0.916780 0.406974 -0.585227
O16   O     O_3   0.856130 0.602130 0.611740 -0.661341
O17   O     O_3   0.854556 0.386684 0.385006 -0.642764
O18   O     O_3   0.148051 0.637906 0.584516 -0.671651
O19   O     O_3   0.144810 0.376950 0.398199 -0.652670
O20   O     O_3   0.292411 0.629617 0.590816 -0.645725
O21   O     O_3   0.292673 0.367153 0.410998 -0.674175
O22   O     O_3   0.472728 0.660350 0.918144 -0.726083
O23   O     O_R   0.599930 0.575960 0.499920 -0.461349
O24   O     O_3   0.379421 0.523720 0.925333 -0.654732
O25   O     O_3   0.416526 0.377849 0.913894 -0.665461
O26   O     O_3   0.587681 0.623080 0.930564 -0.673471
O27   O     O_R   0.599930 0.424040 0.499920 -0.494622
O28   O     O_R   0.500070 0.575900 0.620490 -0.500608
O29   O     O_R   0.500070 0.424100 0.620490 -0.489134
O30   O     O_R   0.400220 0.575910 0.499940 -0.451987
O31   O     O_R   0.400220 0.424090 0.499940 -0.445328
O32   O     O_3   0.708218 0.613950 0.603524 -0.671814

loop_
_geom_bond_atom_site_label_1
_geom_bond_atom_site_label_2
_ccdc_geom_bond_type
H6    O13   S    
C30   O16   S    
H36   O25   S    
C23   C45   A    
C36   N10   S    
C29   O2    S    
C31   O17   S    
C36   H11   S    
C22   O11   S    
C4    O22   S    
C41   H46   S    
C38   H28   S    
C7    C11   S    
C46   H1    S    
C23   C42   A    
Cu2   O27   S    
H50   O7    S    
C9    O4    S    
C40   H39   S    
C5    C11   T    
C3    C7    S    
Cu2   O12   S    
C2    H12   S    
Cu2   N9    S    
H47   O4    S    
C15   C16   S    
C29   C33   A    
H22   O20   S    
C41   N4    S    
C1    O12   A    
H42   N4    S    
C12   N1    A    
C27   O31   A    
C40   N3    S    
C27   C44   S    
Cu1   Cu2   S    
C34   O19   S    
C37   H17   S    
Cu1   O30   S    
H3    O9    S    
H48   O5    S    
C40   H41   S    
C38   N12   S    
C9    C10   S    
H20   O18   S    
C37   N11   S    
C17   O7    S    
C4    O26   S    
N1    N6    A    
H25   O22   S    
C13   C14   T    
C12   C32   S    
C2    C6    S    
C42   C44   A    
C4    C7    S    
C37   H15   S    
C16   N11   S    
C3    O25   S    
C20   C24   S    
H31   N2    S    
C10   N4    S    
C19   C22   S    
C39   H33   S    
C12   N5    A    
C42   O20   S    
C35   N6    A    
C4    C46   S    
C38   H30   S    
H18   O16   S    
C8    O27   A    
H34   O2    S    
C15   N10   S    
C21   O13   S    
C15   C19   S    
C43   C44   A    
C35   N7    A    
H19   O17   S    
C31   C32   A    
C16   C20   S    
Cu1   N8    S    
C41   H44   S    
C17   C18   S    
N5    N7    A    
C34   C45   A    
H45   O3    S    
H8    O15   S    
H49   O6    S    
H23   O32   S    
H4    O10   S    
C41   H43   S    
C28   C33   A    
C26   O29   A    
C24   N8    T    
C21   O15   S    
C36   H13   S    
C35   C45   S    
C16   O5    S    
C18   O10   S    
C37   H16   S    
C25   N9    T    
H24   O21   S    
C7    C9    S    
C46   N2    S    
H7    O14   S    
C2    N12   S    
H27   N12   S    
C6    C46   S    
Cu2   O29   S    
C8    O23   A    
H2    O8    S    
C10   N3    S    
C34   C43   A    
C26   O28   A    
C6    C10   S    
C22   O14   S    
C18   O8    S    
C38   H29   S    
C36   H10   S    
C27   O30   A    
C3    O24   S    
C9    O3    S    
C39   H32   S    
C40   H40   S    
C43   O21   S    
C2    C3    S    
C39   H35   S    
C29   C31   A    
H5    O11   S    
C1    O1    A    
C6    C13   S    
C30   C32   A    
C39   N2    S    
H14   N11   S    
Cu1   O1    S    
H26   O24   S    
Cu1   O28   S    
C28   C30   A    
C17   C19   S    
Cu2   O31   S    
C18   C20   S    
C8    C33   S    
C19   C25   S    
C17   O9    S    
H37   O26   S    
C5    C26   S    
H9    N10   S    
C28   O32   S    
C20   C21   S    
H21   O19   S    
C15   O6    S    
C1    C14   S    
C21   C22   S    
H38   N3    S    
Cu1   O23   S    
C23   O18   S    
