data_mof_unit_17662.cif
_audit_creation_date              2012-10-26T18:47:57-0400
_audit_creation_method            fapswitch 2.2
_symmetry_space_group_name_H-M    P1
_symmetry_Int_Tables_number       1
_space_group_crystal_system       triclinic
_cell_length_a                    15.857623
_cell_length_b                    8.709781
_cell_length_c                    7.465013
_cell_angle_alpha                 102.740441
_cell_angle_beta                  95.179117
_cell_angle_gamma                 92.192478
_cell_volume                      999.753035939

loop_
_atom_site_label
_atom_site_type_symbol
_atom_type_description
_atom_site_fract_x
_atom_site_fract_y
_atom_site_fract_z
_atom_type_partial_charge
Br1   Br    Br    0.420497 0.925430 0.190028 -0.439706
Br2   Br    Br    0.079797 0.598263 0.133553 -0.593554
C1    C     C_R   0.493284 0.200178 0.453539 0.557308
C2    C     C_2   0.503339 0.966997 0.567029 -0.124725
C3    C     C_R   0.340321 0.500162 0.500676 0.560732
C4    C     C_R   0.500509 0.799844 0.545526 0.564627
C5    C     C_R   0.659650 0.499987 0.499248 0.537784
C6    C     C_3   0.050632 0.384972 0.596497 -0.267799
C7    C     C_3   0.039213 0.461061 0.287037 0.083840
C8    C     C_3   0.940642 0.449606 0.291209 0.216737
C9    C     C_1   0.749187 0.501249 0.498982 -0.027602
C10   C     C_3   0.082778 0.505937 0.489372 0.033000
C11   C     C_3   0.872255 0.657490 0.176233 0.019692
C12   C     C_3   0.953873 0.392186 0.608449 -0.268483
C13   C     C_3   0.813966 0.681276 0.012634 -0.364530
C14   C     C_3   0.916718 0.507548 0.494241 0.031138
C15   C     C_3   0.959915 0.673673 0.586139 -0.230265
C16   C     C_3   0.057282 0.671541 0.585115 -0.202683
C17   C     C_1   0.824760 0.503733 0.499225 -0.063178
C18   C     C_1   0.175085 0.504028 0.494599 -0.004096
C19   C     C_1   0.250763 0.502295 0.499987 0.032944
C20   C     C_2   0.479489 0.033384 0.426587 0.108243
Cu1   Cu    Cu3+1 0.509300 0.517380 0.684380 0.997458
Cu2   Cu    Cu3+1 0.490700 0.482620 0.315620 1.039892
H1    H     H_    0.922766 0.271728 0.557087 0.110368
H2    H     H_    0.924032 0.320277 0.258588 0.115939
H3    H     H_    0.087728 0.704083 0.729778 0.168599
H4    H     H_    0.080278 0.762403 0.514261 0.167861
H5    H     H_    0.945352 0.709380 0.731572 0.134525
H6    H     H_    0.929781 0.737726 0.193738 0.178719
H7    H     H_    0.835492 0.691842 0.295803 0.124312
H8    H     H_    0.751344 0.617936 0.007875 0.167896
H9    H     H_    0.804557 0.808763 0.025174 0.093546
H10   H     H_    0.841479 0.633897 0.882522 0.164239
H11   H     H_    0.084034 0.409082 0.738293 0.191696
H12   H     H_    0.941512 0.431185 0.755550 0.196838
H13   H     H_    0.936620 0.767745 0.519931 0.100018
H14   H     H_    0.530219 0.037623 0.700309 0.116411
H15   H     H_    0.434875 0.376153 0.948148 0.248966
H16   H     H_    0.565169 0.623788 0.051834 0.244250
H17   H     H_    0.065043 0.263732 0.525987 0.116198
H18   H     H_    0.059136 0.342415 0.220491 0.114785
N1    N     N_2   0.476670 0.456430 0.038530 -0.234389
N2    N     N_2   0.523330 0.543570 0.961470 -0.238897
O1    O     O_R   0.506050 0.286130 0.619770 -0.533862
O2    O     O_R   0.490330 0.256780 0.308370 -0.467072
O3    O     O_R   0.387300 0.514690 0.655770 -0.492514
O4    O     O_R   0.371580 0.485340 0.344370 -0.472177
O5    O     O_R   0.509670 0.743220 0.691630 -0.485045
O6    O     O_R   0.493950 0.713870 0.380230 -0.463351
O7    O     O_R   0.628420 0.514660 0.655630 -0.510400
O8    O     O_R   0.612700 0.485310 0.344230 -0.508691
O9    O     O_3   0.892746 0.497602 0.143227 -0.545544

loop_
_geom_bond_atom_site_label_1
_geom_bond_atom_site_label_2
_ccdc_geom_bond_type
Cu2   O8    S    
H15   N1    S    
N1    N2    D    
C16   H4    S    
Cu1   O1    S    
C2    C20   D    
C7    C8    S    
C6    H11   S    
C13   H10   S    
Cu1   O7    S    
C6    C10   S    
Cu2   O2    S    
C10   C18   S    
C8    H2    S    
C5    O7    A    
Br1   C20   S    
C12   H1    S    
C8    C14   S    
C6    H17   S    
C5    C9    S    
C3    O3    A    
C1    O2    A    
C9    C17   T    
C7    H18   S    
C14   C17   S    
C7    C10   S    
C2    H14   S    
C5    O8    A    
C15   C16   S    
C11   O9    S    
C11   C13   S    
C4    O5    A    
Cu2   O6    S    
C3    O4    A    
C12   C14   S    
Cu1   O5    S    
Cu1   O3    S    
C16   H3    S    
Cu1   Cu2   S    
Cu2   O4    S    
C11   H6    S    
H16   N2    S    
C15   H5    S    
C18   C19   T    
C2    C4    S    
C10   C16   S    
Cu2   N1    S    
C8    O9    S    
C11   H7    S    
C12   H12   S    
C15   H13   S    
C6    C12   S    
Br2   C7    S    
C1    O1    A    
C4    O6    A    
Cu1   N2    S    
C13   H9    S    
C14   C15   S    
C1    C20   S    
C3    C19   S    
C13   H8    S    
