data_mof_unit_14640.cif
_audit_creation_date              2012-12-11T15:54:38-0500
_audit_creation_method            fapswitch 2.2
_symmetry_space_group_name_H-M    P1
_symmetry_Int_Tables_number       1
_space_group_crystal_system       triclinic
_cell_length_a                    6.931238
_cell_length_b                    14.529082
_cell_length_c                    16.093494
_cell_angle_alpha                 89.967213
_cell_angle_beta                  89.97184
_cell_angle_gamma                 90.011117
_cell_volume                      1620.68718141

loop_
_atom_site_label
_atom_site_type_symbol
_atom_type_description
_atom_site_fract_x
_atom_site_fract_y
_atom_site_fract_z
_atom_type_partial_charge
O1    O     O_R   0.638180 0.333920 0.163320 -0.540905
O2    O     O_R   0.361820 0.666080 0.836680 -0.540905
O3    O     O_R   0.308470 0.344960 0.336080 -0.543145
O4    O     O_R   0.691530 0.655040 0.663920 -0.543145
O5    O     O_R   0.138140 0.166110 0.336680 -0.534979
O6    O     O_R   0.861860 0.833890 0.663320 -0.534979
C1    C     C_R   0.477496 0.367101 0.365122 0.688020
C2    C     C_R   0.522504 0.632899 0.634878 0.688021
O7    O     O_R   0.308460 0.344950 0.163930 -0.543751
O8    O     O_R   0.691540 0.655050 0.836070 -0.543751
O9    O     O_R   0.138140 0.166100 0.163310 -0.542913
O10   O     O_R   0.861860 0.833900 0.836690 -0.542914
C3    C     C_R   0.477546 0.367214 0.135001 0.685200
C4    C     C_R   0.522454 0.632786 0.864999 0.685200
O11   O     O_R   0.638180 0.333930 0.336700 -0.543469
O12   O     O_R   0.361820 0.666070 0.663300 -0.543469
O13   O     O_3   0.471670 0.191340 0.250000 -0.365504
O14   O     O_3   0.528330 0.808660 0.750000 -0.365504
V1    V     V_3+5 0.196830 0.260900 0.250000 1.401390
V2    V     V_3+5 0.803170 0.739100 0.750000 1.401390
O15   O     O_R   0.808420 0.155070 0.163920 -0.543301
O16   O     O_R   0.191580 0.844930 0.836080 -0.543301
C5    C     C_R   0.977508 0.132711 0.135057 0.676629
C6    C     C_R   0.022492 0.867289 0.864943 0.676630
O17   O     O_R   0.808420 0.155080 0.336070 -0.537333
O18   O     O_R   0.191580 0.844920 0.663930 -0.537333
C7    C     C_R   0.977257 0.133049 0.364625 0.698619
C8    C     C_R   0.022742 0.866951 0.635374 0.698619
V3    V     V_3+5 0.696830 0.239130 0.250000 1.408739
V4    V     V_3+5 0.303170 0.760870 0.750000 1.408739
O19   O     O_3   0.971850 0.308690 0.250010 -0.372254
O20   O     O_3   0.028150 0.691310 0.749990 -0.372254
H1    H     H_    0.285408 0.848469 0.267347 0.114817
H2    H     H_    0.714592 0.151531 0.732653 0.114817
C9    C     C_R   0.828127 0.174176 0.528673 -0.141534
C10   C     C_R   0.171873 0.825824 0.471327 -0.141534
C11   C     C_R   0.756572 0.196550 0.606992 -0.123561
C12   C     C_R   0.243427 0.803450 0.393008 -0.123561
C13   C     C_R   0.769035 0.133540 0.671728 -0.120473
C14   C     C_R   0.230965 0.866460 0.328272 -0.120473
C15   C     C_R   0.853089 0.047654 0.658645 -0.131308
C16   C     C_R   0.146911 0.952345 0.341355 -0.131308
C17   C     C_R   0.925172 0.022412 0.579525 0.069612
C18   C     C_R   0.074827 0.977588 0.420475 0.069612
C19   C     C_R   0.912469 0.087069 0.513099 0.069446
C20   C     C_R   0.087531 0.912930 0.486901 0.069446
C21   C     C_R   0.012649 0.935271 0.566487 -0.186804
C22   C     C_R   0.987351 0.064728 0.433513 -0.186804
H3    H     H_    0.817747 0.226369 0.480959 0.107984
H4    H     H_    0.182252 0.773631 0.519041 0.107984
H5    H     H_    0.692413 0.263469 0.617614 0.119557
H6    H     H_    0.307587 0.736531 0.382386 0.119557
H7    H     H_    0.862347 0.001915 0.711533 0.105661
H8    H     H_    0.137653 0.998084 0.288467 0.105661
C23   C     C_R   0.179673 0.973320 0.968657 -0.156032
C24   C     C_R   0.820327 0.026680 0.031343 -0.156032
H9    H     H_    0.320609 0.953718 0.945667 0.116070
H10   H     H_    0.679391 0.046282 0.054333 0.116070
C25   C     C_R   0.168539 0.036739 0.033995 -0.156306
C26   C     C_R   0.831461 0.963261 0.966005 -0.156306
H11   H     H_    0.301454 0.064198 0.059150 0.118565
H12   H     H_    0.698546 0.935802 0.940850 0.118565
C27   C     C_R   0.988703 0.064330 0.066262 -0.045403
C28   C     C_R   0.011297 0.935670 0.933738 -0.045403
C29   C     C_R   0.321334 0.478185 0.464777 -0.157334
C30   C     C_R   0.678666 0.521815 0.535223 -0.157334
H13   H     H_    0.181226 0.462595 0.438581 0.117381
H14   H     H_    0.818774 0.537405 0.561419 0.117381
C31   C     C_R   0.332505 0.541978 0.529804 -0.159825
C32   C     C_R   0.667494 0.458022 0.470196 -0.159825
H15   H     H_    0.200475 0.573747 0.551513 0.116474
H16   H     H_    0.799525 0.426253 0.448487 0.116475
C33   C     C_R   0.511309 0.564622 0.566011 -0.046848
C34   C     C_R   0.488691 0.435378 0.433989 -0.046848
C35   C     C_R   0.320516 0.474821 0.032602 -0.157675
C36   C     C_R   0.679484 0.525179 0.967398 -0.157676
H17   H     H_    0.179743 0.456460 0.056641 0.116765
H18   H     H_    0.820257 0.543540 0.943359 0.116765
C37   C     C_R   0.331619 0.538396 0.967361 -0.152476
C38   C     C_R   0.668380 0.461603 0.032639 -0.152476
C39   C     C_R   0.511258 0.564446 0.933825 -0.046551
C40   C     C_R   0.488742 0.435554 0.066174 -0.046551
H19   H     H_    0.198854 0.567223 0.943312 0.118754
H20   H     H_    0.801146 0.432777 0.056688 0.118754

loop_
_geom_bond_atom_site_label_1
_geom_bond_atom_site_label_2
_ccdc_geom_bond_type
C7    C22   S    
C30   H14   S    
C8    C21   S    
C23   C25   A    
O13   V3    S    
O4    C2    A    
V1    O19   S    
C13   C15   A    
O9    V1    S    
C9    C11   A    
C36   H18   S    
O3    C1    A    
C11   H5    S    
C12   H6    S    
O12   V4    S    
C26   H12   S    
C31   H15   S    
O7    C3    A    
O5    C7    A    
O7    V1    S    
O6    C8    A    
O8    V2    S    
C37   H19   S    
C9    H3    S    
C31   C33   A    
O14   V4    S    
V4    O20   S    
C38   H20   S    
C5    C27   S    
C2    O12   A    
C15   C17   A    
C16   C18   A    
C18   C20   A    
O11   V3    S    
C1    C34   S    
O17   V3    S    
C11   C13   A    
C25   H11   S    
H1    C14   S    
H2    C13   S    
C38   C40   A    
O8    C4    A    
C37   C39   A    
C1    O11   A    
C29   H13   S    
C30   C33   A    
O15   V3    S    
C3    C40   S    
C29   C34   A    
C24   C26   A    
C32   C34   A    
C35   H17   S    
C23   C28   A    
O10   V2    S    
O1    V3    S    
C24   C27   A    
O3    V1    S    
C17   C19   A    
C15   H7    S    
O18   V4    S    
C23   H9    S    
O16   C6    A    
O1    C3    A    
C10   C12   A    
C9    C19   A    
C10   H4    S    
V2    O20   S    
C19   C22   A    
C20   C21   A    
O16   V4    S    
C25   C27   A    
C36   C38   A    
C14   C16   A    
C36   C39   A    
C35   C40   A    
O5    V1    S    
O17   C7    A    
O6    V2    S    
O10   C6    A    
O18   C8    A    
O2    V4    S    
C26   C28   A    
O15   C5    A    
V3    O19   S    
C16   H8    S    
C12   C14   A    
C10   C20   A    
C30   C32   A    
C17   C21   A    
C29   C31   A    
O9    C5    A    
C2    C33   S    
O13   V1    S    
C24   H10   S    
O14   V2    S    
O2    C4    A    
O4    V2    S    
C6    C28   S    
C32   H16   S    
C4    C39   S    
C35   C37   A    
C18   C22   A    
