data_mof_unit_5802.cif
_audit_creation_date              2012-10-26T21:05:40-0400
_audit_creation_method            fapswitch 2.2
_symmetry_space_group_name_H-M    P1
_symmetry_Int_Tables_number       1
_space_group_crystal_system       triclinic
_cell_length_a                    13.072215
_cell_length_b                    9.096017
_cell_length_c                    7.785457
_cell_angle_alpha                 90.012683
_cell_angle_beta                  95.833309
_cell_angle_gamma                 89.995261
_cell_volume                      920.9368146

loop_
_atom_site_label
_atom_site_type_symbol
_atom_type_description
_atom_site_fract_x
_atom_site_fract_y
_atom_site_fract_z
_atom_type_partial_charge
C1    C     C_R   0.500003 0.220029 0.499991 0.552150
C2    C     C_R   0.861343 0.419866 0.685055 -0.158267
C3    C     C_R   0.133500 0.435867 0.576056 0.092353
C4    C     C_R   0.866502 0.564096 0.423963 0.092379
C5    C     C_R   0.025531 0.457621 0.569922 0.044791
C6    C     C_R   0.974460 0.542268 0.430046 0.044802
C7    C     C_1   0.500000 0.065369 0.499987 -0.043530
C8    C     C_1   0.500000 0.934631 0.500013 -0.043525
C9    C     C_R   0.499997 0.779971 0.500009 0.552170
C10   C     C_R   0.300472 0.497704 0.468716 0.569229
C11   C     C_R   0.699527 0.502286 0.531284 0.569251
C12   C     C_R   0.811408 0.497875 0.548426 0.012176
C13   C     C_R   0.188588 0.502070 0.451568 0.012155
C14   C     C_R   0.033149 0.600776 0.301370 0.078633
C15   C     C_R   0.966830 0.399052 0.698550 0.078625
C16   C     C_R   0.138638 0.579984 0.314872 -0.158270
Cu1   Cu    Cu3+1 0.500010 0.500000 0.669080 1.035154
Cu2   Cu    Cu3+1 0.499990 0.500000 0.330920 1.035138
H1    H     H_    0.817516 0.370544 0.781169 0.136306
H2    H     H_    0.978428 0.212118 0.840155 0.235929
H3    H     H_    0.182455 0.629263 0.218717 0.136314
H4    H     H_    0.840009 0.762790 0.304502 0.257582
H5    H     H_    0.811327 0.610183 0.174412 0.273738
H6    H     H_    0.160128 0.237255 0.695654 0.257620
H7    H     H_    0.188588 0.389964 0.825694 0.273676
H8    H     H_    0.021546 0.787588 0.159551 0.235912
H9    H     H_    0.005592 0.630798 0.042953 0.238725
H10   H     H_    0.994338 0.368823 0.956941 0.238705
N1    N     N_1   0.499980 0.500000 0.076820 -0.080356
N2    N     N_1   0.500020 0.500000 0.923180 -0.080349
N3    N     N_3   0.810271 0.656060 0.297298 -0.592883
N4    N     N_3   0.189757 0.344048 0.702847 -0.592827
N5    N     N_3   0.988051 0.683066 0.155954 -0.663835
N6    N     N_3   0.011911 0.316654 0.843893 -0.663838
O1    O     O_R   0.500000 0.288400 0.642760 -0.494569
O2    O     O_R   0.500000 0.711600 0.357240 -0.494560
O3    O     O_R   0.500000 0.288400 0.357240 -0.499193
O4    O     O_R   0.500000 0.711600 0.642760 -0.499193
O5    O     O_R   0.349000 0.500000 0.619590 -0.474474
O6    O     O_R   0.651000 0.500000 0.380410 -0.474524
O7    O     O_R   0.348990 0.500000 0.334020 -0.519664
O8    O     O_R   0.651010 0.500000 0.665980 -0.519652

loop_
_geom_bond_atom_site_label_1
_geom_bond_atom_site_label_2
_ccdc_geom_bond_type
C9    O2    A    
C11   C12   S    
H6    N4    S    
C16   H3    S    
Cu1   N2    S    
C4    C12   A    
Cu1   O1    S    
C15   N6    S    
C3    C13   A    
C1    O3    A    
C2    C12   A    
C14   N5    S    
Cu1   Cu2   S    
H2    N6    S    
C7    C8    T    
Cu2   N1    S    
H9    N5    S    
C10   O7    A    
C2    C15   A    
N1    N2    T    
H7    N4    S    
C5    C6    A    
C9    O4    A    
Cu2   O3    S    
Cu1   O4    S    
C3    N4    S    
C14   C16   A    
C5    C15   A    
C4    N3    S    
C6    C14   A    
H4    N3    S    
H10   N6    S    
C11   O6    A    
C1    O1    A    
C11   O8    A    
C4    C6    A    
Cu1   O5    S    
C13   C16   A    
Cu2   O6    S    
Cu1   O8    S    
C10   O5    A    
H8    N5    S    
C2    H1    S    
C1    C7    S    
Cu2   O2    S    
Cu2   O7    S    
C8    C9    S    
C3    C5    A    
C10   C13   S    
H5    N3    S    
