data_mof_unit_44972.cif
_audit_creation_date              2012-12-11T17:02:19-0500
_audit_creation_method            fapswitch 2.2
_symmetry_space_group_name_H-M    P1
_symmetry_Int_Tables_number       1
_space_group_crystal_system       triclinic
_cell_length_a                    21.646965
_cell_length_b                    7.071952
_cell_length_c                    14.841093
_cell_angle_alpha                 89.628048
_cell_angle_beta                  106.006657
_cell_angle_gamma                 89.868192
_cell_volume                      2183.81722226

loop_
_atom_site_label
_atom_site_type_symbol
_atom_type_description
_atom_site_fract_x
_atom_site_fract_y
_atom_site_fract_z
_atom_type_partial_charge
O1    O     O_R   0.585850 0.505770 0.002130 -0.538897
O2    O     O_R   0.414150 0.005770 0.997870 -0.539697
O3    O     O_R   0.467530 0.173560 0.861970 -0.536849
O4    O     O_R   0.532470 0.673560 0.138030 -0.536626
C1    C     C_R   0.455716 0.345248 0.825367 0.684821
C2    C     C_R   0.544374 0.843573 0.174757 0.684723
O5    O     O_R   0.588690 0.175900 0.993250 -0.544372
O6    O     O_R   0.411310 0.675900 0.006750 -0.543190
O7    O     O_R   0.536170 0.007950 0.130090 -0.536702
O8    O     O_R   0.463830 0.507950 0.869910 -0.536327
C3    C     C_R   0.615051 0.344503 0.997651 0.691166
C4    C     C_R   0.384933 0.844770 0.002264 0.692465
O9    O     O_3   0.482630 0.339970 0.044740 -0.370979
O10   O     O_3   0.517370 0.839970 0.955260 -0.371233
V1    V     V_3+5 0.503220 0.064200 0.991700 1.436863
V2    V     V_3+5 0.496780 0.564200 0.008300 1.442266
C5    C     C_R   0.292207 0.009579 0.041272 0.127020
C6    C     C_R   0.707474 0.510190 0.958247 0.136542
C7    C     C_R   0.317017 0.852912 0.005344 -0.108722
C8    C     C_R   0.682944 0.352548 0.994408 -0.110743
C9    C     C_R   0.275062 0.700097 0.974200 -0.172534
C10   C     C_R   0.725246 0.199264 0.025947 -0.178144
H1    H     H_    0.291905 0.575932 0.946021 0.133692
H2    H     H_    0.708657 0.074318 0.054280 0.132884
C11   C     C_R   0.209712 0.711626 0.972590 -0.182581
C12   C     C_R   0.790619 0.211231 0.027771 -0.181969
H3    H     H_    0.178376 0.594883 0.944187 0.133539
H4    H     H_    0.822188 0.093853 0.056384 0.132825
C13   C     C_R   0.184199 0.876921 0.001473 -0.111800
C14   C     C_R   0.815825 0.377439 0.998718 -0.110557
C15   C     C_R   0.227579 0.021280 0.039424 0.118102
C16   C     C_R   0.772106 0.522281 0.960258 0.115816
C17   C     C_3   0.224456 0.226944 0.016252 -0.425258
C18   C     C_3   0.774638 0.727570 0.982718 -0.428443
C19   C     C_3   0.294964 0.214197 0.018479 -0.402891
C20   C     C_3   0.704111 0.714460 0.980282 -0.398963
H5    H     H_    0.215852 0.314339 0.073651 0.179075
H6    H     H_    0.783103 0.815998 0.925092 0.179372
H7    H     H_    0.192236 0.257603 0.945199 0.168148
H8    H     H_    0.806678 0.757186 0.053731 0.169436
H9    H     H_    0.327046 0.294094 0.077220 0.194879
H10   H     H_    0.671891 0.795166 0.921180 0.194970
H11   H     H_    0.303587 0.237834 0.948783 0.159864
H12   H     H_    0.695299 0.736943 0.049809 0.160338
C21   C     C_R   0.927195 0.889992 0.723377 -0.036714
C22   C     C_R   0.072950 0.380005 0.276203 -0.033181
C23   C     C_R   0.572094 0.846806 0.276375 -0.040430
C24   C     C_R   0.427760 0.356902 0.724062 -0.037731
C25   C     C_R   0.936390 0.954487 0.567818 -0.167472
C26   C     C_R   0.061640 0.330563 0.431719 -0.166753
C27   C     C_R   0.964561 0.938992 0.663865 -0.174134
C28   C     C_R   0.034009 0.349335 0.335636 -0.177024
C29   C     C_R   0.861334 0.857198 0.686861 -0.209511
C30   C     C_R   0.139657 0.391561 0.312580 -0.208897
C31   C     C_R   0.830916 0.877310 0.589586 0.118407
C32   C     C_R   0.169242 0.371511 0.409994 0.118781
C33   C     C_R   0.870098 0.926113 0.530421 0.143085
C34   C     C_R   0.128618 0.340720 0.469222 0.143184
C35   C     C_R   0.763126 0.854616 0.549484 -0.030888
C36   C     C_R   0.237415 0.379594 0.450316 -0.031216
C37   C     C_R   0.735879 0.881206 0.450722 0.058644
C38   C     C_R   0.263636 0.356608 0.549436 0.058825
C39   C     C_R   0.777370 0.928422 0.395294 -0.158833
C40   C     C_R   0.220825 0.326476 0.604918 -0.158257
C41   C     C_R   0.842922 0.949714 0.434498 -0.207134
C42   C     C_R   0.154904 0.319005 0.565432 -0.207365
C43   C     C_R   0.721694 0.807289 0.604897 -0.263954
C44   C     C_R   0.280173 0.409675 0.394839 -0.264296
C45   C     C_R   0.656070 0.785819 0.565926 0.594175
C46   C     C_R   0.346162 0.417584 0.434105 0.593567
C47   C     C_R   0.628780 0.809679 0.469702 -0.002363
C48   C     C_R   0.372547 0.396036 0.530636 -0.002730
C49   C     C_R   0.668102 0.858657 0.410631 0.010125
C50   C     C_R   0.331786 0.364905 0.589763 0.010224
C51   C     C_R   0.562408 0.781723 0.431608 -0.082197
C52   C     C_R   0.439571 0.406566 0.568862 -0.081331
C53   C     C_R   0.534518 0.797689 0.335511 -0.160309
C54   C     C_R   0.466898 0.387975 0.665017 -0.160946
C55   C     C_R   0.637892 0.879242 0.313308 -0.171476
C56   C     C_R   0.361147 0.344828 0.687244 -0.171198
H13   H     H_    0.872663 0.987002 0.389071 0.119124
H14   H     H_    0.124099 0.295278 0.610948 0.118427
H15   H     H_    0.664064 0.913489 0.263362 0.087012
H16   H     H_    0.334025 0.322112 0.737200 0.084572
H17   H     H_    0.483684 0.769687 0.307048 0.148386
H18   H     H_    0.518539 0.398754 0.693474 0.143426
H19   H     H_    0.966280 0.992808 0.522797 0.114561
H20   H     H_    0.030605 0.306593 0.476836 0.114431
H21   H     H_    0.015404 0.967219 0.691993 0.104724
H22   H     H_    0.982333 0.338956 0.307536 0.103460
H23   H     H_    0.835295 0.823103 0.737007 0.097820
H24   H     H_    0.166653 0.413875 0.262414 0.095747
H25   H     H_    0.760955 0.951099 0.320746 0.114665
H26   H     H_    0.236409 0.307580 0.679762 0.114535
H27   H     H_    0.738357 0.784627 0.679437 0.153812
H28   H     H_    0.264350 0.428338 0.319988 0.154433
H29   H     H_    0.532024 0.743368 0.475857 0.180863
H30   H     H_    0.471085 0.430708 0.524520 0.180109
O11   O     O_R   0.036080 0.231270 0.130120 -0.537940
O12   O     O_R   0.963920 0.731270 0.869880 -0.538490
O13   O     O_R   0.911300 0.558970 0.006750 -0.541501
O14   O     O_R   0.088700 0.058970 0.993250 -0.541328
C57   C     C_R   0.884873 0.390068 0.001955 0.690428
C58   C     C_R   0.115134 0.889789 0.998094 0.691120
O15   O     O_R   0.032450 0.561140 0.138040 -0.538956
O16   O     O_R   0.967550 0.061140 0.861960 -0.538956
O17   O     O_R   0.085870 0.728910 0.002130 -0.540428
O18   O     O_R   0.914130 0.228910 0.997870 -0.539876
C59   C     C_R   0.044687 0.391716 0.174973 0.693479
C60   C     C_R   0.955212 0.893409 0.824914 0.693709
O19   O     O_3   0.017320 0.394650 0.955270 -0.374457
O20   O     O_3   0.982680 0.894650 0.044730 -0.374118
V3    V     V_3+5 0.996780 0.670490 0.008300 1.412553
V4    V     V_3+5 0.003220 0.170490 0.991700 1.413533
F1    F     F_    0.619068 0.739075 0.623245 -0.701163
F2    F     F_    0.384493 0.447524 0.376682 -0.701719

loop_
_geom_bond_atom_site_label_1
_geom_bond_atom_site_label_2
_ccdc_geom_bond_type
C14   C16   A    
C39   C41   A    
O12   C60   A    
C31   C35   A    
O13   V3    S    
C25   H19   S    
C28   H22   S    
O1    C3    A    
C23   C55   A    
C56   H16   S    
O2    C4    A    
O11   V4    S    
O20   V4    S    
O5    C3    A    
C44   H28   S    
O16   V4    S    
C18   H8    S    
O15   V3    S    
C7    C9    A    
C52   C54   A    
C17   C19   S    
C21   C27   A    
O18   V4    S    
O11   C59   A    
C22   C28   A    
C51   H29   S    
C25   C33   A    
C36   C38   A    
C24   C54   A    
C45   C47   A    
O17   V3    S    
C38   C40   A    
C35   C43   A    
C20   H10   S    
C34   C42   A    
C25   C27   A    
C14   C57   S    
C29   H23   S    
C26   C28   A    
C15   C17   S    
C57   O18   A    
C19   H11   S    
C18   C20   S    
C48   C52   A    
C54   H18   S    
O5    V1    S    
C53   H17   S    
O6    V2    S    
C50   C56   A    
C43   H27   S    
C2    O7    A    
O20   V3    S    
C22   C59   S    
C29   C31   A    
C11   C13   A    
C1    C24   S    
C30   C32   A    
C3    C8    S    
C35   C37   A    
C2    C23   S    
C26   C34   A    
C48   C50   A    
C47   C49   A    
C21   C60   S    
C46   F2    S    
C17   H5    S    
C32   C36   A    
C13   C58   S    
C43   C45   A    
C40   C42   A    
O4    V2    S    
C30   H24   S    
O14   V4    S    
C42   H14   S    
C41   H13   S    
O6    C4    A    
C22   C30   A    
C37   C39   A    
C49   C55   A    
O19   V3    S    
O1    V2    S    
C17   H7    S    
O14   C58   A    
O2    V1    S    
C51   C53   A    
O4    C2    A    
C8    C10   A    
C12   C14   A    
C31   C33   A    
C5    C15   A    
C10   H2    S    
C20   H12   S    
C6    C16   A    
C23   C53   A    
O3    V1    S    
O16   C60   A    
C9    C11   A    
C45   F1    S    
C18   H6    S    
O12   V3    S    
C33   C41   A    
O3    C1    A    
C26   H20   S    
C11   H3    S    
C39   H25   S    
C12   H4    S    
C37   C49   A    
C24   C56   A    
C9    H1    S    
O7    V1    S    
C40   H26   S    
C1    O8    A    
C13   C15   A    
O8    V2    S    
C27   H21   S    
C47   C51   A    
C6    C20   S    
O15   C59   A    
C4    C7    S    
C5    C7    A    
C32   C34   A    
O19   V4    S    
C6    C8    A    
C19   H9    S    
C21   C29   A    
C55   H15   S    
C36   C44   A    
O13   C57   A    
C10   C12   A    
O9    V2    S    
C44   C46   A    
O10   V1    S    
C38   C50   A    
C46   C48   A    
C5    C19   S    
C52   H30   S    
C58   O17   A    
C16   C18   S    
