data_mof_unit_57907.cif
_audit_creation_date              2012-12-11T15:24:16-0500
_audit_creation_method            fapswitch 2.2
_symmetry_space_group_name_H-M    P1
_symmetry_Int_Tables_number       1
_space_group_crystal_system       triclinic
_cell_length_a                    8.288895
_cell_length_b                    14.26856
_cell_length_c                    19.086867
_cell_angle_alpha                 91.263874
_cell_angle_beta                  93.989846
_cell_angle_gamma                 90.685866
_cell_volume                      2251.18976655

loop_
_atom_site_label
_atom_site_type_symbol
_atom_type_description
_atom_site_fract_x
_atom_site_fract_y
_atom_site_fract_z
_atom_type_partial_charge
Ba1   Ba    Ba6+2 0.150350 0.545800 0.464500 1.656559
Ba2   Ba    Ba6+2 0.659830 0.454190 0.535450 1.678917
C1    C     C_3   0.162539 0.908960 0.267556 -0.359418
C2    C     C_3   0.255234 0.816037 0.272742 0.344339
C3    C     C_3   0.511501 0.740320 0.624235 0.303276
C4    C     C_3   0.509618 0.845869 0.636852 -0.384032
C5    C     C_3   0.775161 0.217382 0.737359 0.379755
C6    C     C_3   0.785816 0.121041 0.772123 -0.212829
C7    C     C_3   0.326344 0.172157 0.718821 0.158601
C8    C     C_3   0.374338 0.145360 0.795078 -0.267469
C9    C     C_R   0.018696 0.936118 0.525572 0.014517
C10   C     C_R   0.818039 0.804517 0.501421 0.052860
C11   C     C_R   0.663897 0.776130 0.475276 -0.312394
C12   C     C_3   0.798455 0.794432 0.296629 0.272881
C13   C     C_R   0.551359 0.840417 0.450389 0.041883
C14   C     C_R   0.595661 0.935192 0.446312 -0.129758
C15   C     C_R   0.752432 0.966446 0.470000 -0.010511
C16   C     C_R   0.864719 0.901566 0.499831 -0.035672
C17   C     C_R   0.948714 0.096608 0.492624 -0.019460
C18   C     C_R   0.063091 0.031260 0.519731 0.041528
C19   C     C_R   0.991543 0.194286 0.496100 0.074620
C20   C     C_R   0.141710 0.223288 0.526022 -0.238269
C21   C     C_R   0.257476 0.158898 0.546747 0.003416
C22   C     C_R   0.220743 0.062559 0.542146 -0.094369
C23   C     C_3   0.753601 0.889046 0.264419 -0.321120
C24   C     C_R   0.796426 0.061915 0.464926 -0.032658
C25   C     C_R   0.606513 0.538599 0.297129 -0.252346
C26   C     C_R   0.460884 0.492791 0.277189 0.080006
C27   C     C_R   0.406410 0.486504 0.205713 -0.101902
C28   C     C_R   0.499842 0.525277 0.154357 0.000993
C29   C     C_R   0.652147 0.565543 0.175136 -0.083348
C30   C     C_R   0.705203 0.571265 0.246617 0.037445
C31   C     C_R   0.359022 0.589249 0.044597 -0.050412
C32   C     C_R   0.312035 0.581192 0.972588 -0.093110
C33   C     C_R   0.349792 0.501097 0.933163 -0.032534
C34   C     C_3   0.798032 0.345419 0.327384 0.303898
C35   C     C_R   0.437461 0.428450 0.967818 -0.013574
C36   C     C_R   0.482357 0.437372 0.040153 -0.110699
C37   C     C_R   0.444827 0.517330 0.078794 0.023075
C38   C     C_R   0.131677 0.454384 0.836237 -0.072893
C39   C     C_R   0.085265 0.443940 0.762524 0.051025
C40   C     C_R   0.338957 0.515226 0.734683 0.044243
C41   C     C_R   0.387856 0.525096 0.806118 -0.025271
C42   C     C_R   0.288321 0.492479 0.857441 -0.042278
C43   C     C_R   0.192998 0.471028 0.713707 -0.296159
C44   C     C_3   0.783309 0.322728 0.248446 -0.229382
C45   C     C_3   0.014972 0.661821 0.674113 0.302910
C46   C     C_3   0.038525 0.692368 0.751144 -0.347109
C47   C     C_3   0.296645 0.259359 0.382361 0.310987
C48   C     C_3   0.287270 0.155604 0.361672 -0.372927
H1    H     H_    0.177989 0.758266 0.289897 0.073556
H2    H     H_    0.761427 0.387610 0.218794 -0.050913
H3    H     H_    0.898726 0.293138 0.232109 0.114589
H4    H     H_    0.132514 0.641596 0.654973 0.013166
H5    H     H_    0.928291 0.601746 0.668705 0.035287
H6    H     H_    0.126608 0.751789 0.757350 0.155807
H7    H     H_    0.084710 0.634422 0.783867 0.032162
H8    H     H_    0.921305 0.714956 0.770357 0.133745
H9    H     H_    0.173708 0.283943 0.391400 0.009960
H10   H     H_    0.378618 0.269162 0.430609 0.036320
H11   H     H_    0.062859 0.903607 0.225418 0.140504
H12   H     H_    0.209965 0.145201 0.312129 0.139956
H13   H     H_    0.234261 0.114254 0.402854 0.043434
H14   H     H_    0.410340 0.129151 0.353732 0.139026
H15   H     H_    0.245212 0.967319 0.254703 0.123449
H16   H     H_    0.637677 0.718584 0.618393 0.033326
H17   H     H_    0.434934 0.723161 0.575424 0.035340
H18   H     H_    0.572752 0.864780 0.688397 0.149324
H19   H     H_    0.570960 0.882647 0.595554 0.068185
H20   H     H_    0.382840 0.869349 0.636042 0.121270
H21   H     H_    0.111437 0.926704 0.318341 0.121155
H22   H     H_    0.626454 0.906846 0.273135 0.148834
H23   H     H_    0.666265 0.254184 0.753548 0.088870
H24   H     H_    0.765863 0.206298 0.679456 0.101823
H25   H     H_    0.681615 0.076756 0.752145 0.055648
H26   H     H_    0.895074 0.083868 0.757491 0.142190
H27   H     H_    0.294704 0.247887 0.718208 0.047150
H28   H     H_    0.474485 0.190940 0.816029 0.101681
H29   H     H_    0.865613 0.807211 0.348764 0.034106
H30   H     H_    0.421567 0.072943 0.796701 0.079915
H31   H     H_    0.629512 0.702679 0.475194 0.066166
H32   H     H_    0.509309 0.983774 0.422861 0.073157
H33   H     H_    0.310703 0.013209 0.561473 0.068747
H34   H     H_    0.171678 0.297312 0.531183 0.050403
H35   H     H_    0.106180 0.890277 0.550759 0.107964
H36   H     H_    0.709082 0.108527 0.440313 0.110288
H37   H     H_    0.502374 0.559414 0.821881 0.090139
H38   H     H_    0.244491 0.637271 0.947576 0.094831
H39   H     H_    0.327210 0.651397 0.073517 0.124859
H40   H     H_    0.683763 0.755531 0.304764 0.063775
H41   H     H_    0.293916 0.449945 0.190055 0.085387
H42   H     H_    0.549791 0.382266 0.066667 0.106581
H43   H     H_    0.728021 0.592891 0.136147 0.080792
H44   H     H_    0.158645 0.462428 0.658131 0.051490
H45   H     H_    0.647971 0.543933 0.352140 0.054721
H46   H     H_    0.830687 0.946894 0.289475 0.091697
H47   H     H_    0.766133 0.887132 0.206588 0.161499
H48   H     H_    0.679377 0.365881 0.345354 -0.020919
H49   H     H_    0.885935 0.404327 0.337200 0.047778
O1    O     O_2   0.108370 0.727470 0.525290 -0.483302
O2    O     O_3   0.357040 0.307427 0.326950 -0.641639
O3    O     O_3   0.897631 0.743986 0.252003 -0.606440
O4    O     O_2   0.701930 0.272470 0.474700 -0.465611
O5    O     O_3   0.944970 0.388780 0.468720 -0.497461
O6    O     O_3   0.463940 0.328280 0.598320 -0.468978
O7    O     O_3   0.851896 0.265613 0.362431 -0.624676
O8    O     O_3   0.372010 0.546630 0.581240 -0.479243
O9    O     O_3   0.877070 0.374860 0.631520 -0.488003
O10   O     O_2   0.741971 0.422850 0.751654 -0.434244
O11   O     O_3   0.914842 0.269645 0.757301 -0.563070
O12   O     O_3   0.865330 0.611210 0.531230 -0.491407
O13   O     O_3   0.438280 0.453360 0.418700 -0.488282
O14   O     O_2   0.627420 0.543410 0.667830 -0.471541
O15   O     O_3   0.450954 0.696822 0.682078 -0.641482
O16   O     O_2   0.590087 0.164611 0.560701 -0.484312
O17   O     O_3   0.461761 0.156261 0.679163 -0.657891
O18   O     O_3   0.346360 0.671710 0.401620 -0.466457
O19   O     O_2   0.207028 0.839711 0.425141 -0.529582
O20   O     O_3   0.954611 0.738082 0.636947 -0.625645
O21   O     O_3   0.393457 0.830843 0.318860 -0.646588
O22   O     O_2   0.182890 0.456530 0.332150 -0.476478
O23   O     O_3   0.933230 0.625130 0.368420 -0.489227
O24   O     O_2   0.046331 0.581912 0.244017 -0.488309
P1    P     P_3+3 0.937730 0.712710 0.546710 0.979728
P2    P     P_3+3 0.357970 0.428340 0.344000 0.978719
P3    P     P_3+3 0.898707 0.626517 0.277016 0.952306
P4    P     P_3+3 0.872570 0.287280 0.453240 0.985522
P5    P     P_3+3 0.899513 0.382915 0.724365 1.051276
P6    P     P_3+3 0.365837 0.794361 0.404134 0.936464
P7    P     P_3+3 0.446718 0.575331 0.667632 0.951733
P8    P     P_3+3 0.441316 0.204361 0.594906 0.936700
C49   C     C_2   0.647107 0.254724 0.229363 0.570387
H50   H     H_    0.533290 0.279736 0.205705 -0.011296
O25   O     O_2   0.661904 0.171569 0.241713 -0.558414
C50   C     C_2   0.314102 0.787634 0.202138 0.853274
O26   O     O_2   0.240903 0.810273 0.146707 -0.609891
O27   O     O_R   0.458610 0.737897 0.200593 -0.771270
H51   H     H_    0.501421 0.735100 0.151922 0.299929
C51   C     C_2   0.788731 0.125859 0.850997 0.884143
O28   O     O_2   0.797265 0.201460 0.882972 -0.561538
O29   O     O_R   0.782853 0.042117 0.887628 -0.719969
H52   H     H_    0.785997 0.053328 0.940326 0.329564
C52   C     C_2   0.182610 0.112081 0.691919 0.823161
O30   O     O_2   0.061225 0.150014 0.667418 -0.635200
O31   O     O_R   0.185410 0.014073 0.693288 -0.731702
H53   H     H_    0.294641 0.988698 0.709772 0.278958
C53   C     C_2   0.239551 0.153519 0.843264 0.874497
O32   O     O_2   0.185117 0.083225 0.869118 -0.562729
O33   O     O_R   0.181306 0.241661 0.860429 -0.749455
H54   H     H_    0.101283 0.238590 0.898030 0.342118
C54   C     C_2   0.484323 0.341850 0.931230 0.950846
O34   O     O_2   0.518257 0.343520 0.870197 -0.573025
O35   O     O_R   0.494357 0.258282 0.968053 -0.744102
H55   H     H_    0.525013 0.202435 0.938477 0.324587
C55   C     C_2   0.023385 0.427476 0.892044 0.544454
H56   H     H_    0.071155 0.424496 0.946680 -0.016321
O36   O     O_2   0.879421 0.409461 0.879023 -0.507642

loop_
_geom_bond_atom_site_label_1
_geom_bond_atom_site_label_2
_ccdc_geom_bond_type
C4    H19   S    
C9    C16   A    
C4    H20   S    
C36   H42   S    
C3    O15   S    
C55   O36   D    
C48   H14   S    
C25   H45   S    
C17   C18   A    
C3    H17   S    
O31   H53   S    
C7    C52   S    
C50   O26   D    
C5    H23   S    
O16   P8    D    
O20   P1    S    
O5    P4    S    
Ba2   O13   S    
C31   C37   A    
C47   H10   S    
C6    C51   S    
C15   C24   A    
C26   C27   A    
C17   C19   A    
C22   H33   S    
Ba1   P2    S    
C32   C33   A    
Ba1   O13   S    
C44   C49   S    
C3    C4    S    
Ba2   O14   S    
C12   O3    S    
C52   O30   D    
C44   H2    S    
Ba2   O8    S    
C6    H26   S    
C46   H6    S    
Ba1   Ba2   S    
C30   P3    S    
C17   C24   A    
Ba1   O23   S    
C12   H40   S    
C53   O32   D    
C52   O31   S    
C18   C22   A    
C49   H50   S    
C10   P1    S    
O2    P2    S    
C21   C22   A    
C38   C55   S    
C34   C44   S    
C19   P4    S    
O18   P6    S    
C7    C8    S    
C8    C53   S    
Ba2   P4    S    
C45   O20   S    
O12   P1    S    
C54   O34   D    
C19   C20   A    
C48   H13   S    
O15   P7    S    
C39   P5    S    
C1    H15   S    
C35   C36   A    
C35   C54   S    
O8    P7    S    
C43   H44   S    
Ba1   O1    S    
Ba2   O9    S    
C15   C16   A    
C5    H24   S    
C1    H11   S    
C8    H28   S    
C9    C18   A    
Ba2   O12   S    
O14   P7    D    
C2    H1    S    
C34   O7    S    
O21   P6    S    
C46   H7    S    
O6    P8    S    
C8    H30   S    
C14   C15   A    
O24   P3    D    
C32   H38   S    
C29   H43   S    
O7    P4    S    
C6    H25   S    
O1    P1    D    
C40   C43   A    
C20   H34   S    
O23   P3    S    
C1    H21   S    
C41   C42   A    
O22   P2    D    
C27   C28   A    
C31   H39   S    
O10   P5    D    
C45   C46   S    
C13   P6    S    
Ba2   O5    S    
C28   C29   A    
C24   H36   S    
C11   H31   S    
C14   H32   S    
C31   C32   A    
C21   P8    S    
C40   P7    S    
C23   H22   S    
Ba1   O18   S    
C12   H29   S    
O9    P5    S    
C33   C42   S    
Ba1   O5    S    
O13   P2    S    
Ba1   O8    S    
C45   H4    S    
C23   H47   S    
C38   C39   A    
C2    C50   S    
C48   H12   S    
C40   C41   A    
C1    C2    S    
C27   H41   S    
O4    P4    D    
C26   P2    S    
C33   C35   A    
C45   H5    S    
C50   O27   S    
C53   O33   S    
C25   C30   A    
C7    O17   S    
C29   C30   A    
C3    H16   S    
O3    P3    S    
C51   O28   D    
C46   H8    S    
O27   H51   S    
Ba2   O6    S    
C47   H9    S    
C5    O11   S    
C41   H37   S    
C11   C13   A    
C7    H27   S    
Ba1   P1    S    
O19   P6    D    
O33   H54   S    
Ba1   O12   S    
C47   O2    S    
C51   O29   S    
C36   C37   A    
O17   P8    S    
Ba2   O4    S    
C9    H35   S    
C44   H3    S    
C4    H18   S    
C28   C37   S    
C34   H49   S    
C54   O35   S    
C12   C23   S    
Ba1   O22   S    
C5    C6    S    
C38   C42   A    
C10   C11   A    
C23   H46   S    
C49   O25   D    
C47   C48   S    
C10   C16   A    
C55   H56   S    
C39   C43   A    
C20   C21   A    
C2    O21   S    
C34   H48   S    
O35   H55   S    
O29   H52   S    
C13   C14   A    
O11   P5    S    
C25   C26   A    
