data_mof_unit_68611.cif
_audit_creation_date              2012-12-11T14:23:04-0500
_audit_creation_method            fapswitch 2.2
_symmetry_space_group_name_H-M    P1
_symmetry_Int_Tables_number       1
_space_group_crystal_system       triclinic
_cell_length_a                    11.237482
_cell_length_b                    11.321902
_cell_length_c                    18.60812
_cell_angle_alpha                 90.200546
_cell_angle_beta                  90.118422
_cell_angle_gamma                 59.292454
_cell_volume                      2035.53273793

loop_
_atom_site_label
_atom_site_type_symbol
_atom_type_description
_atom_site_fract_x
_atom_site_fract_y
_atom_site_fract_z
_atom_type_partial_charge
C1    C     C_R   0.231185 0.649369 0.606373 0.540449
C2    C     C_3   0.688401 0.524739 0.812985 -0.287794
C3    C     C_3   0.687134 0.662286 0.816876 0.067884
C4    C     C_3   0.643307 0.611325 0.685246 0.022149
C5    C     C_3   0.780259 0.611588 0.690522 -0.199881
C6    C     C_3   0.659593 0.496160 0.735177 -0.262965
C7    C     C_R   0.687351 0.174484 0.829503 0.000611
C8    C     C_R   0.799029 0.157761 0.788305 -0.102592
C9    C     C_R   0.789671 0.160413 0.712518 -0.007738
C10   C     C_R   0.540193 0.256732 0.727374 -0.171008
C11   C     C_R   0.556246 0.250143 0.801354 0.230181
C12   C     C_R   0.626159 0.585325 0.608565 0.560293
C13   C     C_R   0.910188 0.157380 0.821395 -0.105224
C14   C     C_R   0.019600 0.145616 0.781731 0.226110
C15   C     C_R   0.021256 0.129804 0.707209 -0.113666
C16   C     C_R   0.910160 0.128572 0.671955 0.241904
C17   C     C_R   0.656562 0.203690 0.681486 -0.046737
C18   C     C_R   0.133565 0.689407 0.824922 0.022610
C19   C     C_R   0.147674 0.573703 0.786465 0.048912
C20   C     C_R   0.145544 0.576587 0.710547 0.025574
C21   C     C_R   0.144906 0.790071 0.714025 -0.173758
C22   C     C_R   0.120194 0.799931 0.786285 -0.157391
C23   C     C_R   0.624245 0.237588 0.605164 0.576778
C24   C     C_R   0.172985 0.451468 0.819326 -0.049050
C25   C     C_R   0.207157 0.337081 0.777475 -0.054669
C26   C     C_R   0.176890 0.349620 0.704909 -0.142280
C27   C     C_R   0.136972 0.473438 0.672006 -0.125632
C28   C     C_R   0.163113 0.676328 0.675740 -0.007314
C29   C     C_R   0.725700 0.707837 0.189004 -0.047561
C30   C     C_R   0.822562 0.587508 0.229243 0.012111
C31   C     C_R   0.821443 0.596391 0.304777 -0.003010
C32   C     C_R   0.617342 0.816191 0.307069 0.232701
C33   C     C_R   0.634167 0.826117 0.231064 -0.129998
C34   C     C_R   0.285171 0.622549 0.393001 0.553748
C35   C     C_R   0.916719 0.454972 0.201063 -0.096671
C36   C     C_R   0.990083 0.343285 0.246365 -0.119647
C37   C     C_R   0.007222 0.365803 0.317927 -0.127084
C38   C     C_R   0.933596 0.497024 0.345019 -0.087051
C39   C     C_R   0.697296 0.686395 0.338691 -0.006249
C40   C     C_R   0.623852 0.217550 0.158811 -0.020749
C41   C     C_R   0.497425 0.256536 0.191161 -0.010804
C42   C     C_R   0.494691 0.249341 0.266495 0.018559
C43   C     C_R   0.704094 0.263200 0.270132 -0.121498
C44   C     C_R   0.718989 0.241691 0.195602 0.243606
C45   C     C_R   0.649708 0.629204 0.397640 0.542315
C46   C     C_R   0.383636 0.274908 0.149986 -0.075722
C47   C     C_R   0.289909 0.244972 0.179447 -0.122915
C48   C     C_R   0.301920 0.211535 0.251401 -0.136560
C49   C     C_R   0.395835 0.221191 0.294980 -0.066819
C50   C     C_R   0.597389 0.258685 0.307704 -0.052872
C51   C     C_R   0.186830 0.646442 0.171789 -0.006114
C52   C     C_R   0.267858 0.700408 0.194557 0.034241
C53   C     C_R   0.283818 0.711972 0.268636 0.015495
C54   C     C_R   0.197980 0.555776 0.289180 -0.141516
C55   C     C_R   0.159339 0.567697 0.218157 -0.146535
C56   C     C_R   0.584677 0.283668 0.386809 0.542764
C57   C     C_R   0.316868 0.759353 0.145049 -0.081786
C58   C     C_R   0.348078 0.856325 0.167264 -0.122432
C59   C     C_R   0.339849 0.886702 0.239282 -0.129182
C60   C     C_R   0.319262 0.809729 0.290231 -0.089051
C61   C     C_R   0.254121 0.632407 0.316417 -0.001740
C62   C     C_R   0.702998 0.101913 0.897081 0.564793
C63   C     C_R   0.720478 0.685965 0.890222 0.579245
C64   C     C_R   0.102671 0.713860 0.901847 0.540363
C65   C     C_R   0.670908 0.115846 0.099686 0.524657
C66   C     C_R   0.733005 0.714512 0.107102 0.567792
C67   C     C_3   0.542328 0.775587 0.791706 -0.245360
C68   C     C_R   0.098892 0.705556 0.109405 0.537288
C69   C     C_3   0.516247 0.747039 0.714088 -0.240022
C70   C     C_3   0.800314 0.653945 0.765590 0.165513
Cr1   Cr    Cr6+3 0.392940 0.397950 0.502230 0.939975
Cr2   Cr    Cr6+3 0.398400 0.708500 0.501260 0.936450
Cr3   Cr    Cr6+3 0.708640 0.393530 0.496460 0.963951
Cr4   Cr    Cr6+3 0.937880 0.938320 0.007620 0.983433
Cr5   Cr    Cr6+3 0.625560 0.937220 0.994510 0.980283
Cr6   Cr    Cr6+3 0.938080 0.625010 0.001190 0.953645
H1    H     H_    0.530826 0.878568 0.795930 0.137321
H2    H     H_    0.748687 0.398841 0.716342 0.142095
H3    H     H_    0.899925 0.566180 0.784831 0.164796
H4    H     H_    0.869548 0.506260 0.680018 0.116069
H5    H     H_    0.436507 0.311801 0.705938 0.172896
H6    H     H_    0.906403 0.178806 0.877738 0.136327
H7    H     H_    0.112853 0.110305 0.678492 0.083376
H8    H     H_    0.154119 0.870020 0.688376 0.157680
H9    H     H_    0.464101 0.774721 0.827414 0.097123
H10   H     H_    0.189841 0.432826 0.875815 0.162561
H11   H     H_    0.090904 0.894598 0.812602 0.156990
H12   H     H_    0.267762 0.238249 0.801077 0.190396
H13   H     H_    0.194788 0.261820 0.673281 0.110200
H14   H     H_    0.110844 0.483342 0.615503 0.131240
H15   H     H_    0.940491 0.427981 0.146194 0.156970
H16   H     H_    0.570821 0.923752 0.204489 0.151234
H17   H     H_    0.043195 0.240497 0.224198 0.146324
H18   H     H_    0.076270 0.282966 0.352708 0.088564
H19   H     H_    0.423219 0.736357 0.713332 0.132217
H20   H     H_    0.945332 0.513491 0.401414 0.125134
H21   H     H_    0.780066 0.277000 0.298843 0.165609
H22   H     H_    0.376051 0.295984 0.093242 0.117204
H23   H     H_    0.213023 0.241757 0.145844 0.086760
H24   H     H_    0.241154 0.174215 0.274836 0.101803
H25   H     H_    0.393366 0.192270 0.348550 0.189039
H26   H     H_    0.174990 0.493460 0.323625 0.154527
H27   H     H_    0.318302 0.740240 0.088634 0.114869
H28   H     H_    0.101316 0.521728 0.200288 0.155107
H29   H     H_    0.489379 0.836718 0.679378 0.122797
H30   H     H_    0.374126 0.911238 0.128983 0.127738
H31   H     H_    0.357957 0.965252 0.255639 0.171781
H32   H     H_    0.325121 0.836168 0.344749 0.188460
H33   H     H_    0.783328 0.671417 0.645892 0.144030
H34   H     H_    0.789254 0.438218 0.831799 0.142166
H35   H     H_    0.606697 0.533647 0.849133 0.095621
H36   H     H_    0.565144 0.488077 0.733664 0.124273
O1    O     O_R   0.507340 0.255690 0.581430 -0.559148
O2    O     O_R   0.524510 0.695820 0.424050 -0.521365
O3    O     O_R   0.736370 0.504260 0.414810 -0.532807
O4    O     O_R   0.691220 0.277270 0.422180 -0.518729
O5    O     O_3   0.499990 0.499990 0.499980 -0.295459
O6    O     O_R   0.089570 0.825450 0.930590 -0.552404
O7    O     O_R   0.818700 0.054260 0.929860 -0.542559
O8    O     O_R   0.606310 0.077010 0.915520 -0.486696
O9    O     O_R   0.646730 0.806540 0.917560 -0.508344
O10   O     O_R   0.837290 0.593240 0.915240 -0.543799
O11   O     O_R   0.065320 0.635310 0.931580 -0.519353
O12   O     O_R   0.280360 0.527380 0.578910 -0.510246
O13   O     O_R   0.068470 0.828620 0.091850 -0.501689
O14   O     O_R   0.799150 0.057200 0.079350 -0.464090
O15   O     O_R   0.585220 0.080180 0.076770 -0.554489
O16   O     O_R   0.627170 0.809480 0.067050 -0.516885
O17   O     O_R   0.816200 0.596410 0.076500 -0.572206
O18   O     O_R   0.045770 0.638240 0.081070 -0.535335
O19   O     O_3   0.833840 0.833520 0.001110 -0.259573
O20   O     O_R   0.260600 0.739610 0.584580 -0.538780
O21   O     O_R   0.532370 0.695050 0.573830 -0.529347
O22   O     O_R   0.744850 0.503430 0.576380 -0.551282
O23   O     O_R   0.699080 0.276500 0.571950 -0.470120
O24   O     O_R   0.498860 0.256520 0.419860 -0.573806
O25   O     O_R   0.272490 0.528150 0.429140 -0.519806
O26   O     O_R   0.252110 0.740440 0.423010 -0.559699
O27   O     O_3   0.444245 0.315026 0.846983 -0.583106
C71   C     C_3   0.457550 0.408936 0.892423 0.005165
H37   H     H_    0.390468 0.514448 0.871721 0.131045
H38   H     H_    0.563989 0.391074 0.896315 0.102258
C72   C     C_3   0.418388 0.398013 0.969261 -0.259810
H39   H     H_    0.314793 0.409020 0.972037 0.164331
H40   H     H_    0.495260 0.296202 0.990885 0.182474
C73   C     C_3   0.419480 0.507821 0.015704 -0.498186
H41   H     H_    0.520846 0.502398 0.012519 0.128750
H42   H     H_    0.400208 0.493539 0.072446 0.140062
H43   H     H_    0.337063 0.609837 0.996612 0.162472
O28   O     O_3   0.117909 0.163472 0.815691 -0.610387
C74   C     C_3   0.225844 0.039143 0.844403 -0.016355
H44   H     H_    0.323674 0.039158 0.839073 0.138941
H45   H     H_    0.244319 0.947026 0.814394 0.114152
C75   C     C_3   0.203388 0.031981 0.924615 -0.270060
H46   H     H_    0.200108 0.121026 0.951864 0.143401
H47   H     H_    0.104735 0.035460 0.933564 0.186305
C76   C     C_3   0.318193 0.902868 0.959009 -0.453291
H48   H     H_    0.333309 0.809123 0.931457 0.147847
H49   H     H_    0.288595 0.902344 0.015272 0.134255
H50   H     H_    0.414774 0.905657 0.958992 0.189763
O29   O     O_3   0.925847 0.067061 0.605169 -0.591472
C77   C     C_3   0.004477 0.090845 0.554943 0.015649
H51   H     H_    0.116155 0.032891 0.569143 0.118365
H52   H     H_    0.966461 0.202723 0.550659 0.150370
C78   C     C_3   0.987219 0.034837 0.483204 -0.230828
H53   H     H_    0.047163 0.921170 0.484698 0.200262
H54   H     H_    0.877421 0.065154 0.475669 0.203898
C79   C     C_3   0.031116 0.086760 0.419380 -0.463977
H55   H     H_    0.966026 0.200246 0.417410 0.166067
H56   H     H_    0.015787 0.043624 0.368872 0.164384
H57   H     H_    0.141591 0.055075 0.423770 0.129227
O30   O     O_3   0.514748 0.928990 0.345431 -0.607016
C80   C     C_3   0.554039 0.941149 0.416892 0.026456
H58   H     H_    0.581182 0.021594 0.418218 0.177946
H59   H     H_    0.650159 0.849920 0.436557 0.092392
C81   C     C_3   0.437002 0.973215 0.471326 -0.236232
H60   H     H_    0.377436 0.924941 0.454322 0.205662
H61   H     H_    0.484337 0.929486 0.524295 0.136269
C82   C     C_3   0.332102 0.125026 0.482951 -0.455655
H62   H     H_    0.383767 0.180006 0.501486 0.220180
H63   H     H_    0.258072 0.135844 0.525532 0.086746
H64   H     H_    0.271639 0.172329 0.433580 0.130428
O31   O     O_3   0.837566 0.224101 0.162800 -0.558786
C83   C     C_3   0.805264 0.301977 0.098526 0.032185
H65   H     H_    0.764456 0.411210 0.111806 0.157426
H66   H     H_    0.722598 0.303330 0.065258 0.106856
C84   C     C_3   0.935200 0.240919 0.051483 -0.276573
H67   H     H_    0.028463 0.211534 0.084737 0.142606
H68   H     H_    0.949959 0.145871 0.025955 0.187324
C85   C     C_3   0.923145 0.340611 0.993213 -0.456695
H69   H     H_    0.813221 0.411232 0.978253 0.168943
H70   H     H_    0.978984 0.286903 0.944132 0.140820
H71   H     H_    0.973610 0.397352 0.011679 0.196468
O32   O     O_3   0.818318 0.769868 0.769927 -0.564074
C86   C     C_3   0.743189 0.874058 0.718654 0.012388
H72   H     H_    0.710981 0.972445 0.745282 0.157899
H73   H     H_    0.645965 0.882654 0.701738 0.122312
C87   C     C_3   0.832169 0.858296 0.652794 -0.257631
H74   H     H_    0.887405 0.911768 0.664022 0.219609
H75   H     H_    0.914174 0.750958 0.643951 0.162321
C88   C     C_3   0.748169 0.908367 0.583191 -0.459273
H76   H     H_    0.737637 0.824966 0.558449 0.126390
H77   H     H_    0.801656 0.938699 0.543993 0.174618
H78   H     H_    0.642644 0.995815 0.593212 0.162708

loop_
_geom_bond_atom_site_label_1
_geom_bond_atom_site_label_2
_ccdc_geom_bond_type
C72   C73   S    
C76   H48   S    
C29   C33   A    
C41   C42   A    
C35   C36   A    
C67   H1    S    
C71   C72   S    
O31   C83   S    
C1    O20   A    
O29   C77   S    
Cr2   O21   S    
C64   O6    A    
C7    C8    A    
Cr1   O25   S    
C78   H53   S    
C80   H58   S    
O30   C80   S    
C26   H13   S    
C7    C11   A    
Cr4   O7    S    
C26   C27   A    
C85   H69   S    
Cr3   O4    S    
C30   C35   A    
C65   O15   A    
C36   C37   A    
C9    C16   A    
C71   H38   S    
C18   C19   A    
C49   H25   S    
C30   C31   A    
Cr6   O19   S    
C32   C39   A    
Cr4   O13   S    
C10   C17   A    
C72   H39   S    
C73   H43   S    
Cr2   O2    S    
C47   H23   S    
C83   H65   S    
Cr1   O1    S    
C27   H14   S    
Cr5   O16   S    
C88   H76   S    
C74   C75   S    
C11   O27   S    
C84   C85   S    
C85   H71   S    
C56   O24   A    
C46   C47   A    
C53   C61   A    
C45   O2    A    
C79   H57   S    
C2    H34   S    
C19   C20   A    
C83   H66   S    
C8    C9    A    
Cr2   O5    S    
C1    C28   S    
C41   C46   A    
C87   H74   S    
C13   C14   A    
C4    C12   S    
C50   C56   S    
C62   O8    A    
C60   H32   S    
C70   O32   S    
C39   C45   S    
C66   O17   A    
C79   H56   S    
O32   C86   S    
C46   H22   S    
C59   C60   A    
C76   H49   S    
C12   O22   A    
C21   C22   A    
C88   H77   S    
C2    C6    S    
Cr6   O18   S    
C48   H24   S    
C36   H17   S    
C4    C69   S    
C63   O9    A    
C53   C60   A    
Cr5   O19   S    
Cr2   O20   S    
C73   H42   S    
C80   H59   S    
C81   H61   S    
C57   H27   S    
C2    H35   S    
C67   H9    S    
Cr3   O5    S    
Cr1   O5    S    
C51   C52   A    
C79   H55   S    
Cr1   O12   S    
C3    C70   S    
C71   H37   S    
C75   C76   S    
C4    C6    S    
C10   C11   A    
C33   H16   S    
Cr1   O24   S    
C69   H29   S    
Cr4   O6    S    
C15   H7    S    
C20   C28   A    
C58   C59   A    
C55   H28   S    
C34   O26   A    
C25   H12   S    
Cr3   O23   S    
C29   C66   S    
C67   C69   S    
C37   C38   A    
C43   C44   A    
C7    C62   S    
C29   C30   A    
C23   O1    A    
C77   C78   S    
Cr6   O17   S    
C45   O3    A    
C47   C48   A    
C21   H8    S    
C74   H44   S    
C14   O28   S    
C87   C88   S    
C56   O4    A    
C17   C23   S    
C22   H11   S    
C24   C25   A    
C5    H4    S    
C68   O18   A    
C44   O31   S    
C75   H46   S    
C62   O7    A    
C82   H62   S    
C42   C50   A    
C9    C17   A    
C81   H60   S    
C54   C61   A    
C21   C28   A    
C78   C79   S    
C40   C65   S    
C88   H78   S    
C86   H73   S    
C63   O10   A    
C52   C53   A    
C73   H41   S    
C80   C81   S    
C72   H40   S    
C54   C55   A    
C40   C41   A    
C85   H70   S    
C10   H5    S    
C70   H3    S    
Cr5   O9    S    
Cr6   O11   S    
C75   H47   S    
C54   H26   S    
C3    C67   S    
Cr5   O8    S    
C43   H21   S    
C4    C5    S    
C69   H19   S    
C5    C70   S    
C82   H64   S    
C87   H75   S    
O27   C71   S    
C83   C84   S    
C43   C50   A    
C20   C27   A    
C3    C63   S    
C16   O29   S    
C77   H51   S    
C64   O11   A    
C34   O25   A    
Cr3   O3    S    
C31   C38   A    
C23   O23   A    
C12   O21   A    
Cr6   O10   S    
C32   C33   A    
C81   C82   S    
C18   C22   A    
C19   C24   A    
C25   C26   A    
C1    O12   A    
C84   H67   S    
C77   H52   S    
C65   O14   A    
C76   H50   S    
C18   C64   S    
C57   C58   A    
Cr4   O14   S    
C5    H33   S    
C48   C49   A    
C13   H6    S    
Cr2   O26   S    
C31   C39   A    
C37   H18   S    
C2    C3    S    
C51   C55   A    
C51   C68   S    
C74   H45   S    
C32   O30   S    
C59   H31   S    
C84   H68   S    
C6    H2    S    
C52   C57   A    
C42   C49   A    
C86   H72   S    
C8    C13   A    
C40   C44   A    
Cr3   O22   S    
C86   C87   S    
C78   H54   S    
C34   C61   S    
C38   H20   S    
C14   C15   A    
C6    H36   S    
C58   H30   S    
Cr4   O19   S    
C66   O16   A    
C24   H10   S    
C68   O13   A    
C15   C16   A    
O28   C74   S    
C82   H63   S    
Cr5   O15   S    
C35   H15   S    
