data_mof_unit_27306.cif
_audit_creation_date              2012-12-10T21:31:16-0500
_audit_creation_method            fapswitch 2.2
_symmetry_space_group_name_H-M    P1
_symmetry_Int_Tables_number       1
_space_group_crystal_system       triclinic
_cell_length_a                    14.864004
_cell_length_b                    16.211898
_cell_length_c                    16.826592
_cell_angle_alpha                 86.301138
_cell_angle_beta                  91.458476
_cell_angle_gamma                 91.022338
_cell_volume                      4044.4756586

loop_
_atom_site_label
_atom_site_type_symbol
_atom_type_description
_atom_site_fract_x
_atom_site_fract_y
_atom_site_fract_z
_atom_type_partial_charge
C1    C     C_R   0.499155 0.488202 0.652586 0.946449
C2    C     C_R   0.504334 0.511684 0.347139 0.921642
C3    C     C_R   0.959566 0.487180 0.654093 -0.092623
C4    C     C_R   0.041203 0.446611 0.365835 -0.083444
C5    C     C_R   0.507151 0.480246 0.738332 -0.171965
C6    C     C_R   0.521376 0.519887 0.261886 -0.195107
C7    C     C_R   0.466057 0.538322 0.783067 0.429347
C8    C     C_R   0.547158 0.450734 0.221810 0.460374
C9    C     C_R   0.484316 0.536759 0.864479 -0.257459
C10   C     C_R   0.561134 0.459774 0.140622 -0.245369
C11   C     C_R   0.546545 0.480566 0.900638 0.169994
C12   C     C_R   0.551413 0.537105 0.098238 0.175613
C13   C     C_R   0.586176 0.421318 0.855726 -0.018000
C14   C     C_R   0.531841 0.607306 0.139210 -0.015468
C15   C     C_R   0.565726 0.421661 0.774326 -0.244836
C16   C     C_R   0.517513 0.598041 0.221116 -0.272637
C17   C     C_R   0.458576 0.765771 0.457924 -0.054787
C18   C     C_R   0.545002 0.234504 0.539174 -0.095017
C19   C     C_R   0.453623 0.851866 0.466366 0.348833
C20   C     C_R   0.535257 0.147321 0.543058 0.350024
C21   C     C_R   0.512867 0.889768 0.520715 0.063958
C22   C     C_R   0.478138 0.109512 0.487028 0.062845
C23   C     C_R   0.672958 0.498596 0.501920 0.941878
C24   C     C_R   0.327083 0.500972 0.499716 0.967369
C25   C     C_R   0.569751 0.838413 0.569580 0.329521
C26   C     C_R   0.426921 0.161278 0.433432 0.314038
C27   C     C_R   0.564884 0.751867 0.565142 -0.193725
C28   C     C_R   0.430590 0.247766 0.438505 -0.123817
C29   C     C_R   0.183082 0.491203 0.430161 0.374696
C30   C     C_R   0.815543 0.503060 0.576985 0.373684
C31   C     C_R   0.231476 0.501523 0.500606 -0.134121
C32   C     C_R   0.768557 0.493873 0.505231 -0.121436
C33   C     C_R   0.190607 0.500534 0.573513 -0.331796
C34   C     C_R   0.810403 0.472069 0.437572 -0.311544
C35   C     C_R   0.097369 0.491935 0.578006 0.036192
C36   C     C_R   0.903271 0.464502 0.437342 0.035875
C37   C     C_R   0.046931 0.479489 0.506916 0.034767
C38   C     C_R   0.953192 0.476420 0.508747 0.031653
C39   C     C_R   0.090601 0.472015 0.433489 -0.099494
C40   C     C_R   0.908987 0.488173 0.581155 -0.090610
C41   C     C_R   0.054489 0.490913 0.652178 -0.064328
C42   C     C_R   0.946555 0.445551 0.367151 -0.037738
H1    H     H_    0.604721 0.712545 0.605855 0.168347
H2    H     H_    0.387997 0.286889 0.399621 0.188615
H3    H     H_    0.233187 0.506146 0.626108 0.160227
H4    H     H_    0.769358 0.464104 0.384409 0.142201
H5    H     H_    0.575596 0.404668 0.110516 0.160790
H6    H     H_    0.448481 0.578393 0.899747 0.164665
H7    H     H_    0.598036 0.378386 0.738304 0.199521
H8    H     H_    0.500846 0.651561 0.252836 0.237524
N1    N     N_2   0.562481 0.477141 0.983559 -0.187833
N2    N     N_2   0.549464 0.543748 0.014007 -0.190484
N3    N     N_R   0.511030 0.716920 0.509720 -0.169156
N4    N     N_R   0.488970 0.283080 0.490280 -0.176025
N5    N     N_2   0.519027 0.977675 0.528058 -0.071369
N6    N     N_2   0.471003 0.021510 0.480551 -0.070559
O1    O     O_R   0.496050 0.422540 0.612660 -0.663797
O2    O     O_R   0.503950 0.577460 0.387340 -0.656008
O3    O     O_R   0.503140 0.561840 0.618900 -0.592193
O4    O     O_R   0.496860 0.438160 0.381100 -0.547986
O5    O     O_R   0.628610 0.430340 0.496900 -0.656313
O6    O     O_R   0.371390 0.569660 0.503100 -0.661450
O7    O     O_R   0.635690 0.569650 0.503140 -0.615905
O8    O     O_R   0.364310 0.430350 0.496860 -0.600475
Zn1   Zn    Zn3+2 0.495270 0.406980 0.495830 0.956997
Zn2   Zn    Zn3+2 0.504730 0.593020 0.504170 0.935712
O9    O     O_3   0.227608 0.501145 0.358761 -0.645922
C43   C     C_3   0.210080 0.581165 0.324072 0.069401
H9    H     H_    0.229137 0.629613 0.365719 0.128790
H10   H     H_    0.137623 0.587620 0.306849 0.178671
C44   C     C_3   0.264827 0.595914 0.249337 -0.705678
H11   H     H_    0.245997 0.549425 0.205909 0.268727
H12   H     H_    0.252000 0.658771 0.221657 0.230397
H13   H     H_    0.337430 0.590792 0.264942 0.240018
O10   O     O_3   0.768189 0.523919 0.642436 -0.647595
C45   C     C_3   0.776571 0.610092 0.649610 0.086959
H14   H     H_    0.747373 0.644853 0.596229 0.145168
H15   H     H_    0.848288 0.629730 0.657177 0.155089
C46   C     C_3   0.726360 0.632674 0.722624 -0.793029
H16   H     H_    0.756732 0.601205 0.777165 0.281206
H17   H     H_    0.730170 0.700561 0.727999 0.208753
H18   H     H_    0.654657 0.613100 0.717390 0.243437
O11   O     O_3   0.582430 0.100147 0.601108 -0.538314
C47   C     C_3   0.533054 0.097009 0.672021 0.145456
H19   H     H_    0.468169 0.062718 0.664053 0.128619
H20   H     H_    0.518896 0.160132 0.690704 0.126306
C48   C     C_3   0.587441 0.052452 0.738906 -0.723855
H21   H     H_    0.653569 0.084241 0.746852 0.275108
H22   H     H_    0.550393 0.052372 0.795390 0.198304
H23   H     H_    0.598475 0.987556 0.724958 0.283588
O12   O     O_3   0.390682 0.897828 0.421461 -0.534006
C49   C     C_3   0.308285 0.892725 0.461837 0.138753
H24   H     H_    0.314641 0.923516 0.519065 0.132222
H25   H     H_    0.285849 0.827287 0.474352 0.107549
C50   C     C_3   0.235755 0.935958 0.410118 -0.749785
H26   H     H_    0.229066 0.907303 0.352010 0.263215
H27   H     H_    0.170281 0.930226 0.440496 0.191362
H28   H     H_    0.253216 0.002477 0.399574 0.292280
O13   O     O_3   0.625635 0.872855 0.625784 -0.600107
C51   C     C_3   0.715266 0.870637 0.600327 0.119635
H29   H     H_    0.722163 0.902258 0.539880 0.159367
H30   H     H_    0.738442 0.805795 0.599460 0.113989
C52   C     C_3   0.776220 0.915359 0.658026 -0.777385
H31   H     H_    0.770500 0.885723 0.719111 0.249635
H32   H     H_    0.847214 0.912522 0.639511 0.205671
H33   H     H_    0.756825 0.981184 0.658273 0.285329
O14   O     O_3   0.369077 0.126744 0.378844 -0.597944
C53   C     C_3   0.409798 0.132811 0.303781 0.116458
H34   H     H_    0.477639 0.104260 0.306975 0.154654
H35   H     H_    0.416155 0.198638 0.280914 0.157800
C54   C     C_3   0.351467 0.086907 0.245000 -0.745393
H36   H     H_    0.283067 0.113554 0.240402 0.249930
H37   H     H_    0.382049 0.092464 0.185326 0.212385
H38   H     H_    0.346070 0.020431 0.265132 0.285756
C55   C     C_2   0.109203 0.491736 0.727504 0.499874
H39   H     H_    0.160440 0.539301 0.735003 0.064184
O15   O     O_2   0.098695 0.438003 0.780869 -0.515935
C56   C     C_2   0.892338 0.420580 0.297169 0.460649
H40   H     H_    0.851310 0.364589 0.302023 0.020297
O16   O     O_2   0.890071 0.464460 0.235439 -0.502988
C57   C     C_2   0.913698 0.478894 0.731945 0.563542
H41   H     H_    0.858191 0.435065 0.740445 0.119641
O17   O     O_2   0.935507 0.522454 0.786016 -0.554918
C58   C     C_2   0.088958 0.411728 0.298931 0.483256
H42   H     H_    0.147941 0.374186 0.311770 0.095346
O18   O     O_2   0.065229 0.426118 0.229553 -0.508809
O19   O     O_3   0.551757 0.372880 0.260799 -0.599213
C59   C     C_3   0.641775 0.346033 0.264059 0.093325
H43   H     H_    0.690359 0.397036 0.276574 0.129722
H44   H     H_    0.658745 0.320019 0.206866 0.151881
C60   C     C_3   0.652449 0.278552 0.330577 -0.782702
H45   H     H_    0.603906 0.227016 0.321183 0.237371
H46   H     H_    0.721878 0.254312 0.331515 0.206141
H47   H     H_    0.640097 0.304075 0.388873 0.273273
O20   O     O_3   0.401971 0.590853 0.747553 -0.612393
C61   C     C_3   0.431713 0.673894 0.750796 0.143793
H48   H     H_    0.503201 0.682223 0.732910 0.139425
H49   H     H_    0.424445 0.695144 0.811791 0.136791
C62   C     C_3   0.374057 0.728197 0.693451 -0.809635
H50   H     H_    0.302782 0.724747 0.711820 0.249569
H51   H     H_    0.398322 0.793391 0.693476 0.204304
H52   H     H_    0.378043 0.707167 0.632142 0.262606
C63   C     C_2   0.649780 0.359989 0.893385 0.438988
H53   H     H_    0.666893 0.360089 0.956448 0.079512
O21   O     O_2   0.684078 0.308432 0.854394 -0.557110
C64   C     C_2   0.523012 0.689750 0.096114 0.438707
H54   H     H_    0.534547 0.697490 0.032635 0.065839
O22   O     O_2   0.502870 0.750314 0.130991 -0.534725
C65   C     C_2   0.618035 0.271951 0.587399 0.478058
H55   H     H_    0.613450 0.333081 0.607135 0.113071
O23   O     O_2   0.686727 0.234132 0.605255 -0.528339
C66   C     C_2   0.406173 0.729584 0.392280 0.438479
H56   H     H_    0.381213 0.667205 0.397475 0.109268
O24   O     O_2   0.390319 0.770061 0.329906 -0.529599

loop_
_geom_bond_atom_site_label_1
_geom_bond_atom_site_label_2
_ccdc_geom_bond_type
C38   C40   A    
C48   H21   S    
C33   H3    S    
C36   C42   A    
C50   H26   S    
C47   C48   S    
N5    N6    D    
C60   H47   S    
C59   H43   S    
C50   H28   S    
C21   N5    S    
O20   C61   S    
N4    Zn1   S    
C1    C5    S    
C45   H15   S    
C35   C37   A    
C16   H8    S    
C1    O3    A    
O3    Zn2   S    
C62   H52   S    
C2    O4    A    
C63   H53   S    
C11   C13   A    
C53   H34   S    
C4    C58   S    
C63   O21   D    
C56   H40   S    
C51   H29   S    
C3    C57   S    
C33   C35   A    
C29   O9    S    
O2    Zn2   S    
O13   C51   S    
C43   H9    S    
C55   O15   D    
O14   C53   S    
C31   C33   A    
C34   H4    S    
C13   C63   S    
C52   H33   S    
C18   C65   S    
C18   C20   A    
C23   O7    A    
O7    Zn2   S    
C24   O8    A    
C65   O23   D    
C2    C6    S    
C41   C55   S    
C61   C62   S    
C49   H25   S    
C12   N2    S    
C25   O13   S    
C64   O22   D    
C5    C15   A    
O6    Zn2   S    
O9    C43   S    
C19   O12   S    
C47   H19   S    
C61   H49   S    
O12   C49   S    
C46   H17   S    
C28   N4    A    
C42   C56   S    
C22   N6    S    
C28   H2    S    
C51   C52   S    
N1    N2    D    
C32   C34   A    
O10   C45   S    
C7    O20   S    
C37   C38   A    
C1    O1    A    
C44   H13   S    
C5    C7    A    
C8    O19   S    
O11   C47   S    
C4    C39   A    
C20   C22   A    
C29   C31   A    
C29   C39   A    
C51   H30   S    
C30   C40   A    
C54   H37   S    
C45   H14   S    
N3    Zn2   S    
C9    C11   A    
C57   H41   S    
C10   C12   A    
C43   H10   S    
C66   O24   D    
O4    Zn1   S    
C13   C15   A    
C52   H32   S    
C14   C16   A    
C48   H23   S    
C17   C66   S    
C49   C50   S    
C60   H45   S    
C59   C60   S    
C17   N3    A    
C52   H31   S    
C58   O18   D    
C64   H54   S    
C7    C9    A    
C27   H1    S    
C21   C25   A    
C50   H27   S    
C3    C41   A    
C24   O6    A    
C54   H36   S    
C19   C21   A    
O1    Zn1   S    
C61   H48   S    
C60   H46   S    
C59   H44   S    
C26   O14   S    
C3    C40   A    
C46   H18   S    
C6    C8    A    
C62   H50   S    
C27   N3    A    
O19   C59   S    
C25   C27   A    
C14   C64   S    
C26   C28   A    
C53   C54   S    
C23   C32   S    
C48   H22   S    
C12   C14   A    
C24   C31   S    
C44   H11   S    
C37   C39   A    
C65   H55   S    
O8    Zn1   S    
C30   C32   A    
C30   O10   S    
C62   H51   S    
C4    C42   A    
C43   C44   S    
C36   C38   A    
C49   H24   S    
C17   C19   A    
C53   H35   S    
C54   H38   S    
C34   C36   A    
C15   H7    S    
C2    O2    A    
C35   C41   A    
C56   O16   D    
C57   O17   D    
C11   N1    S    
C18   N4    A    
C6    C16   A    
C46   H16   S    
O5    Zn1   S    
C23   O5    A    
C45   C46   S    
C66   H56   S    
C9    H6    S    
C8    C10   A    
C22   C26   A    
C20   O11   S    
C44   H12   S    
C10   H5    S    
C47   H20   S    
C55   H39   S    
C58   H42   S    
