data_mof_unit_43559.cif
_audit_creation_date              2013-03-05T15:50:03-0500
_audit_creation_method            fapswitch 2.2
_symmetry_space_group_name_H-M    P1
_symmetry_Int_Tables_number       1
_space_group_crystal_system       triclinic
_cell_length_a                    18.26137
_cell_length_b                    25.790742
_cell_length_c                    18.301926
_cell_angle_alpha                 89.814627
_cell_angle_beta                  90.076353
_cell_angle_gamma                 89.877608
_cell_volume                      8619.66394777

loop_
_atom_site_label
_atom_site_type_symbol
_atom_site_description
_atom_site_fract_x
_atom_site_fract_y
_atom_site_fract_z
_atom_type_partial_charge
Zn1   Zn    Zn3+2 0.249990 0.293780 0.913250 0.950480
Zn2   Zn    Zn3+2 0.249990 0.706220 0.086750 0.950610
Zn3   Zn    Zn3+2 0.249990 0.706220 0.913250 0.938806
Zn4   Zn    Zn3+2 0.249990 0.293780 0.086750 0.945857
Zn5   Zn    Zn3+2 0.749990 0.793780 0.413250 0.944200
Zn6   Zn    Zn3+2 0.749990 0.206220 0.586750 0.930783
Zn7   Zn    Zn3+2 0.749990 0.206220 0.413250 0.938512
Zn8   Zn    Zn3+2 0.749990 0.793780 0.586750 0.938997
Zn9   Zn    Zn3+2 0.336760 0.206240 0.000000 0.930175
Zn10  Zn    Zn3+2 0.336760 0.793760 0.000000 0.922301
Zn11  Zn    Zn3+2 0.836760 0.706240 0.500000 0.939914
Zn12  Zn    Zn3+2 0.836760 0.293760 0.500000 0.954910
Zn13  Zn    Zn3+2 0.163250 0.206230 0.000000 0.957628
Zn14  Zn    Zn3+2 0.163250 0.793770 0.000000 0.955308
Zn15  Zn    Zn3+2 0.663250 0.706230 0.500000 0.950587
Zn16  Zn    Zn3+2 0.663250 0.293770 0.500000 0.940214
O1    O     O_3   0.249990 0.250010 0.000000 -0.474667
O2    O     O_3   0.249990 0.749990 0.000000 -0.471842
O3    O     O_3   0.749990 0.750010 0.500000 -0.476201
O4    O     O_3   0.749990 0.249990 0.500000 -0.476957
O5    O     O_R   0.335430 0.280650 0.146160 -0.637320
O6    O     O_R   0.335430 0.719350 0.853840 -0.638497
O7    O     O_R   0.335430 0.719350 0.146160 -0.642868
O8    O     O_R   0.335430 0.280650 0.853840 -0.638226
O9    O     O_R   0.835430 0.780650 0.646160 -0.638615
O10   O     O_R   0.835430 0.219350 0.353840 -0.639440
O11   O     O_R   0.835430 0.219350 0.646160 -0.638950
O12   O     O_R   0.835430 0.780650 0.353840 -0.639660
O13   O     O_R   0.164550 0.280640 0.853840 -0.641159
O14   O     O_R   0.164550 0.719360 0.146160 -0.645712
O15   O     O_R   0.164550 0.719360 0.853840 -0.635788
O16   O     O_R   0.164550 0.280640 0.146160 -0.631516
O17   O     O_R   0.664550 0.780640 0.353840 -0.637378
O18   O     O_R   0.664550 0.219360 0.646160 -0.640386
O19   O     O_R   0.664550 0.219360 0.353840 -0.638079
O20   O     O_R   0.664550 0.780640 0.646160 -0.642571
O21   O     O_R   0.396160 0.219380 0.914560 -0.651422
O22   O     O_R   0.396160 0.780620 0.085440 -0.646931
O23   O     O_R   0.396160 0.780620 0.914560 -0.668525
O24   O     O_R   0.396160 0.219380 0.085440 -0.673548
O25   O     O_R   0.896160 0.719380 0.414560 -0.649914
O26   O     O_R   0.896160 0.280620 0.585440 -0.634745
O27   O     O_R   0.896160 0.280620 0.414560 -0.639359
O28   O     O_R   0.896160 0.719380 0.585440 -0.641493
O29   O     O_R   0.103840 0.219370 0.085450 -0.651436
O30   O     O_R   0.103840 0.780630 0.914550 -0.647735
O31   O     O_R   0.103840 0.780630 0.085450 -0.632964
O32   O     O_R   0.103840 0.219370 0.914550 -0.628789
O33   O     O_R   0.603840 0.719370 0.585450 -0.645476
O34   O     O_R   0.603840 0.280630 0.414550 -0.652204
O35   O     O_R   0.603840 0.280630 0.585450 -0.642449
O36   O     O_R   0.603840 0.719370 0.414550 -0.645954
O37   O     O_R   0.310730 0.133160 0.000000 -0.643914
O38   O     O_R   0.310730 0.866840 0.000000 -0.649387
O39   O     O_R   0.810730 0.633160 0.500000 -0.665572
O40   O     O_R   0.810730 0.366840 0.500000 -0.637206
O41   O     O_R   0.249970 0.366860 0.060720 -0.654697
O42   O     O_R   0.249970 0.633140 0.939280 -0.667902
O43   O     O_R   0.249970 0.633140 0.060720 -0.641721
O44   O     O_R   0.249970 0.366860 0.939280 -0.645833
O45   O     O_R   0.749970 0.866860 0.560720 -0.651970
O46   O     O_R   0.749970 0.133140 0.439280 -0.657138
O47   O     O_R   0.749970 0.133140 0.560720 -0.654711
O48   O     O_R   0.749970 0.866860 0.439280 -0.645065
O49   O     O_R   0.189290 0.133150 0.000000 -0.644783
O50   O     O_R   0.189290 0.866850 0.000000 -0.641216
O51   O     O_R   0.689290 0.633150 0.500000 -0.628543
O52   O     O_R   0.689290 0.366850 0.500000 -0.642023
C1    C     C_R   0.394311 0.253482 0.135742 0.794609
C2    C     C_R   0.393974 0.746867 0.863838 0.797906
C3    C     C_R   0.388544 0.751500 0.141084 0.809744
C4    C     C_R   0.390907 0.251233 0.861197 0.821866
C5    C     C_R   0.888800 0.749204 0.640852 0.810727
C6    C     C_R   0.890582 0.249602 0.360873 0.811246
C7    C     C_R   0.891779 0.247482 0.637974 0.794130
C8    C     C_R   0.890160 0.750612 0.360383 0.815249
C9    C     C_R   0.109805 0.250745 0.860634 0.794361
C10   C     C_R   0.110500 0.750237 0.140350 0.787928
C11   C     C_R   0.110054 0.749909 0.860227 0.789523
C12   C     C_R   0.110101 0.249780 0.139817 0.790346
C13   C     C_R   0.610304 0.749728 0.360002 0.787811
C14   C     C_R   0.610341 0.250157 0.640151 0.790688
C15   C     C_R   0.606190 0.246834 0.363229 0.797012
C16   C     C_R   0.606420 0.752888 0.637008 0.792184
C17   C     C_R   0.249859 0.108913 0.008138 0.801374
C18   C     C_R   0.249771 0.891125 0.992059 0.792223
C19   C     C_R   0.750778 0.609379 0.493963 0.788487
C20   C     C_R   0.749490 0.390632 0.496447 0.807763
C21   C     C_R   0.249807 0.391363 0.999866 0.729683
C22   C     C_R   0.249901 0.608636 0.999947 0.738904
C23   C     C_R   0.749812 0.891336 0.499789 0.736535
C24   C     C_R   0.749999 0.108611 0.499949 0.734367
C25   C     C_3   0.177667 0.470030 0.033489 -0.400474
C26   C     C_3   0.254597 0.529785 0.920250 -0.392675
C27   C     C_3   0.178412 0.530016 0.034824 -0.394830
C28   C     C_3   0.255795 0.470324 0.920336 -0.380122
C29   C     C_3   0.681337 0.969968 0.539896 -0.400451
C30   C     C_3   0.748337 0.029916 0.419865 -0.381980
C31   C     C_3   0.681403 0.029912 0.540058 -0.395555
C32   C     C_3   0.748409 0.970372 0.419746 -0.383831
H1    H     H_    0.171040 0.454993 0.090164 0.179445
H2    H     H_    0.305201 0.543976 0.893353 0.178069
H3    H     H_    0.174100 0.543609 0.092314 0.181797
H4    H     H_    0.307564 0.456483 0.894812 0.178359
H5    H     H_    0.680759 0.955499 0.597263 0.175102
H6    H     H_    0.796989 0.044149 0.389212 0.178805
H7    H     H_    0.680994 0.043983 0.597487 0.179542
H8    H     H_    0.797128 0.956226 0.389125 0.179007
H9    H     H_    0.129826 0.456335 0.001179 0.150031
H10   H     H_    0.207044 0.543740 0.887450 0.181226
H11   H     H_    0.129875 0.545235 0.004724 0.148461
H12   H     H_    0.209514 0.455864 0.886431 0.182603
H13   H     H_    0.630609 0.955703 0.512907 0.151103
H14   H     H_    0.698607 0.044295 0.390849 0.169318
H15   H     H_    0.630681 0.044594 0.513208 0.150883
H16   H     H_    0.698751 0.956279 0.390624 0.177610
H17   H     H_    0.111460 0.918566 0.930904 0.158050
H18   H     H_    0.111639 0.082096 0.070072 0.154738
H19   H     H_    0.733854 0.404418 0.631332 0.119233
H20   H     H_    0.730507 0.595849 0.628742 0.125383
H21   H     H_    0.309605 0.456931 0.102506 0.177087
H22   H     H_    0.368165 0.543372 0.017443 0.154077
H23   H     H_    0.315492 0.544814 0.100077 0.183749
H24   H     H_    0.367717 0.454662 0.023520 0.155123
H25   H     H_    0.821872 0.955187 0.595044 0.182088
H26   H     H_    0.869324 0.044096 0.509511 0.147191
H27   H     H_    0.821417 0.042857 0.595024 0.182474
H28   H     H_    0.869395 0.955487 0.509542 0.149646
C33   C     C_3   0.315040 0.470009 0.044871 -0.404758
C34   C     C_3   0.316365 0.529833 0.043119 -0.391416
C35   C     C_3   0.819427 0.969677 0.537722 -0.400315
C36   C     C_3   0.819436 0.029483 0.537669 -0.405916
C37   C     C_3   0.249647 0.449108 0.999557 0.206952
C38   C     C_3   0.249778 0.550892 0.999587 0.205797
C39   C     C_3   0.749740 0.949027 0.499248 0.206302
C40   C     C_3   0.749783 0.050813 0.499454 0.209983
H29   H     H_    0.180430 0.123081 0.680476 0.134932
H30   H     H_    0.221219 0.804506 0.369800 0.150645
H31   H     H_    0.976111 0.588306 0.880560 0.138160
H32   H     H_    0.120331 0.084437 0.267919 0.142624
H33   H     H_    0.409635 0.853444 0.450331 0.139171
H34   H     H_    0.720265 0.316989 0.861821 0.149569
H35   H     H_    0.407176 0.375037 0.412742 0.156984
H36   H     H_    0.409108 0.622660 0.589156 0.154410
C41   C     C_R   0.990233 0.322901 0.862548 -0.150144
C42   C     C_R   0.965027 0.716159 0.108706 -0.144066
C43   C     C_R   0.096444 0.833860 0.758791 -0.155403
C44   C     C_R   0.010622 0.335022 0.154484 -0.149564
C45   C     C_R   0.624571 0.688902 0.230780 -0.146558
C46   C     C_R   0.466579 0.211836 0.611589 -0.159380
C47   C     C_R   0.587888 0.159882 0.257984 -0.120435
C48   C     C_R   0.587082 0.839758 0.741591 -0.124172
C49   C     C_R   0.932411 0.358224 0.863760 -0.138871
C50   C     C_R   0.894309 0.699983 0.092135 -0.144768
C51   C     C_R   0.091175 0.874664 0.709039 -0.142395
C52   C     C_R   0.962126 0.376529 0.160479 -0.149671
C53   C     C_R   0.631726 0.658371 0.168582 -0.149114
C54   C     C_R   0.397085 0.192365 0.596979 -0.147752
C55   C     C_R   0.600782 0.129206 0.196826 -0.149733
C56   C     C_R   0.599780 0.870749 0.802453 -0.149801
C57   C     C_R   0.577662 0.659335 0.115198 -0.146047
C58   C     C_R   0.344187 0.192136 0.651293 -0.141559
C59   C     C_R   0.575916 0.145377 0.128754 -0.162194
C60   C     C_R   0.575137 0.854861 0.870615 -0.164737
C61   C     C_R   0.879610 0.357348 0.809044 -0.155812
C62   C     C_R   0.840468 0.701056 0.145470 -0.159290
C63   C     C_R   0.037455 0.874046 0.655327 -0.156525
C64   C     C_R   0.908407 0.376087 0.214072 -0.140575
C65   C     C_R   0.515994 0.690580 0.124020 -0.151243
C66   C     C_R   0.360466 0.211616 0.720298 -0.142548
C67   C     C_R   0.532821 0.189843 0.122857 -0.139525
C68   C     C_R   0.532290 0.810437 0.876796 -0.139740
C69   C     C_R   0.884180 0.320966 0.753099 -0.141946
C70   C     C_R   0.857150 0.718130 0.215647 -0.150188
C71   C     C_R   0.988578 0.832761 0.651429 -0.160730
C72   C     C_R   0.903220 0.334279 0.262151 -0.142215
C73   C     C_R   0.506938 0.721736 0.187293 0.069700
C74   C     C_R   0.430554 0.232687 0.736338 0.067539
C75   C     C_R   0.512986 0.218696 0.185629 0.079493
C76   C     C_R   0.512729 0.781219 0.814257 0.090419
C77   C     C_R   0.942409 0.284452 0.750728 0.081662
C78   C     C_R   0.928662 0.735565 0.233827 0.063681
C79   C     C_R   0.992262 0.790871 0.701932 0.073124
C80   C     C_R   0.952676 0.291786 0.257938 0.066688
C81   C     C_R   0.996181 0.285751 0.806007 0.066683
C82   C     C_R   0.983111 0.734611 0.179429 0.074533
C83   C     C_R   0.047179 0.791459 0.755965 0.075601
C84   C     C_R   0.006653 0.292127 0.203000 0.075619
C85   C     C_R   0.562049 0.720736 0.241132 0.072544
C86   C     C_R   0.484287 0.232329 0.681267 0.075570
C87   C     C_R   0.549168 0.207381 0.251915 0.080514
C88   C     C_R   0.549034 0.792117 0.748107 0.073363
C89   C     C_R   0.444186 0.753490 0.197330 -0.154612
C90   C     C_R   0.447592 0.253532 0.806031 -0.161774
C91   C     C_R   0.459414 0.258769 0.183936 -0.209997
C92   C     C_R   0.459268 0.741242 0.816027 -0.222395
C93   C     C_R   0.946488 0.245955 0.695766 -0.160352
C94   C     C_R   0.946509 0.753463 0.304914 -0.165406
C95   C     C_R   0.942264 0.748882 0.699263 -0.156320
C96   C     C_R   0.948984 0.249360 0.307292 -0.158712
C97   C     C_R   0.435097 0.784911 0.261111 0.035238
C98   C     C_R   0.518043 0.275029 0.821861 0.036695
C99   C     C_R   0.458077 0.295758 0.240546 0.063879
C100  C     C_R   0.459017 0.703312 0.760514 0.027810
C101  C     C_R   0.003022 0.207369 0.696695 0.022785
C102  C     C_R   0.017577 0.772902 0.321983 0.042245
C103  C     C_R   0.944569 0.707677 0.751604 0.038541
C104  C     C_R   0.999541 0.207146 0.303495 0.039772
C105  C     C_R   0.061886 0.214375 0.745992 0.057353
C106  C     C_R   0.073331 0.766727 0.268705 0.043095
C107  C     C_R   0.004928 0.706430 0.800659 0.046343
C108  C     C_R   0.047676 0.205438 0.242720 0.047386
C109  C     C_R   0.488746 0.779778 0.317165 0.048469
C110  C     C_R   0.573153 0.270053 0.767422 0.044705
C111  C     C_R   0.490102 0.282489 0.308148 0.029010
C112  C     C_R   0.492038 0.715673 0.693083 0.050425
C113  C     C_R   0.055277 0.250641 0.803033 -0.142135
C114  C     C_R   0.054888 0.750142 0.197244 -0.148388
C115  C     C_R   0.053332 0.749156 0.804450 -0.144247
C116  C     C_R   0.053633 0.249005 0.195834 -0.144417
C117  C     C_R   0.552826 0.750179 0.305005 -0.140425
C118  C     C_R   0.555045 0.250702 0.697325 -0.146270
C119  C     C_R   0.544380 0.242999 0.310483 -0.211153
C120  C     C_R   0.545105 0.755947 0.690169 -0.213708
C121  C     C_R   0.375456 0.821085 0.273082 0.179742
C122  C     C_R   0.536939 0.301887 0.888707 0.197406
C123  C     C_R   0.426948 0.346176 0.232428 0.246063
C124  C     C_R   0.426375 0.653428 0.768963 0.231990
C125  C     C_R   0.004037 0.161297 0.652344 0.160713
C126  C     C_R   0.036099 0.799377 0.388995 0.208585
C127  C     C_R   0.889651 0.667630 0.758587 0.196460
C128  C     C_R   0.005950 0.166740 0.357950 0.202251
C129  C     C_R   0.366979 0.843745 0.342407 -0.175921
C130  C     C_R   0.610628 0.314249 0.902521 -0.166324
C131  C     C_R   0.407605 0.373930 0.295417 -0.174529
C132  C     C_R   0.407179 0.625345 0.706299 -0.140679
C133  C     C_R   0.069803 0.133496 0.644384 -0.156271
C134  C     C_R   0.110138 0.807802 0.406039 -0.162691
C135  C     C_R   0.904386 0.624140 0.802803 -0.155326
C136  C     C_R   0.046788 0.121984 0.341847 -0.165138
C137  C     C_R   0.130754 0.145717 0.685853 -0.191099
C138  C     C_R   0.164680 0.796661 0.356206 -0.194561
C139  C     C_R   0.966810 0.621561 0.845460 -0.196920
C140  C     C_R   0.087627 0.118676 0.278435 -0.191750
C141  C     C_R   0.416893 0.834939 0.397805 -0.191424
C142  C     C_R   0.664220 0.305818 0.850711 -0.192960
C143  C     C_R   0.423801 0.354098 0.364337 -0.192928
C144  C     C_R   0.425870 0.643724 0.637412 -0.200165
C145  C     C_R   0.126097 0.184082 0.738457 -0.144774
C146  C     C_R   0.146608 0.778729 0.287325 -0.160741
C147  C     C_R   0.015034 0.662841 0.846764 -0.164477
C148  C     C_R   0.090820 0.160570 0.231045 -0.165789
C149  C     C_R   0.478062 0.804728 0.385033 -0.156745
C150  C     C_R   0.645664 0.285832 0.783214 -0.157538
C151  C     C_R   0.466428 0.309476 0.370933 -0.150195
C152  C     C_R   0.469311 0.687758 0.630643 -0.122254
H37   H     H_    0.030259 0.325195 0.906088 0.111518
H38   H     H_    0.005242 0.713376 0.065572 0.129548
H39   H     H_    0.139927 0.835815 0.798891 0.118224
H40   H     H_    0.050508 0.336778 0.110897 0.120809
H41   H     H_    0.668020 0.686678 0.270965 0.108471
H42   H     H_    0.506197 0.210088 0.567785 0.122516
H43   H     H_    0.606841 0.145280 0.310140 0.146502
H44   H     H_    0.605709 0.854230 0.689338 0.148278
H45   H     H_    0.928655 0.386433 0.907276 0.125431
H46   H     H_    0.881434 0.686158 0.037827 0.137437
H47   H     H_    0.129233 0.906721 0.711935 0.129968
H48   H     H_    0.965885 0.408952 0.122962 0.125474
H49   H     H_    0.679225 0.633660 0.161981 0.122182
H50   H     H_    0.384482 0.176959 0.543475 0.131205
H51   H     H_    0.631482 0.093433 0.202070 0.131989
H52   H     H_    0.630110 0.906558 0.796908 0.132156
H53   H     H_    0.583363 0.635658 0.066790 0.129549
H54   H     H_    0.290349 0.176634 0.640014 0.132619
H55   H     H_    0.588942 0.122988 0.080542 0.134808
H56   H     H_    0.587998 0.877494 0.918642 0.133755
H57   H     H_    0.834665 0.384786 0.810102 0.125382
H58   H     H_    0.785653 0.688218 0.132560 0.136793
H59   H     H_    0.033593 0.905656 0.616429 0.127475
H60   H     H_    0.870448 0.408211 0.218338 0.133424
H61   H     H_    0.475612 0.689744 0.080727 0.115918
H62   H     H_    0.317294 0.209745 0.760567 0.125822
H63   H     H_    0.517497 0.202012 0.068400 0.166764
H64   H     H_    0.517067 0.798577 0.931338 0.167778
H65   H     H_    0.841102 0.321522 0.712447 0.117269
H66   H     H_    0.813269 0.716926 0.255177 0.134238
H67   H     H_    0.947917 0.834369 0.608488 0.123175
H68   H     H_    0.860010 0.335890 0.302445 0.122477
H69   H     H_    0.072919 0.099989 0.608962 0.123130
H70   H     H_    0.126008 0.825801 0.457060 0.131895
H71   H     H_    0.865298 0.592758 0.807534 0.127804
H72   H     H_    0.050638 0.090267 0.380637 0.122793
H73   H     H_    0.322664 0.870638 0.353248 0.127932
H74   H     H_    0.626779 0.333158 0.952794 0.130075
H75   H     H_    0.382033 0.411755 0.291277 0.134615
H76   H     H_    0.378308 0.588848 0.710857 0.140624
H77   H     H_    0.173632 0.190000 0.772785 0.121376
H78   H     H_    0.191317 0.774261 0.249355 0.148225
H79   H     H_    0.060532 0.659802 0.884392 0.137168
H80   H     H_    0.127490 0.156955 0.185049 0.135426
H81   H     H_    0.516690 0.800934 0.429610 0.124375
H82   H     H_    0.689456 0.282943 0.743770 0.141669
H83   H     H_    0.479035 0.295861 0.425435 0.176055
H84   H     H_    0.481646 0.700803 0.575902 0.172561
H85   H     H_    0.996527 0.040977 0.036531 0.142083
H86   H     H_    0.996459 0.960028 0.964377 0.142122
H87   H     H_    0.715331 0.548297 0.742429 0.125377
H88   H     H_    0.718518 0.452603 0.743804 0.128069
C153  C     C_R   0.382153 0.041916 0.050777 0.218783
C154  C     C_R   0.382813 0.957657 0.953063 0.221191
C155  C     C_R   0.795986 0.550262 0.360868 0.135734
C156  C     C_R   0.740564 0.448300 0.354096 0.177737
C157  C     C_R   0.448322 0.019494 0.028144 -0.202549
C158  C     C_R   0.448689 0.979318 0.977708 -0.206427
C159  C     C_R   0.784269 0.525788 0.293832 -0.158706
C160  C     C_R   0.755656 0.476597 0.290607 -0.235183
C161  C     C_R   0.315573 0.975835 0.983216 0.003148
C162  C     C_R   0.315420 0.024044 0.019253 0.009698
C163  C     C_R   0.751268 0.472487 0.424442 0.027229
C164  C     C_R   0.768278 0.526201 0.426352 -0.030778
C165  C     C_R   0.248826 0.947949 0.979814 -0.221993
C166  C     C_R   0.248812 0.052202 0.021476 -0.218636
C167  C     C_R   0.746625 0.446104 0.492910 -0.136071
C168  C     C_R   0.754415 0.553445 0.492941 -0.142144
C169  C     C_R   0.181505 0.974937 0.986209 0.084817
C170  C     C_R   0.181516 0.025400 0.015022 0.082616
C171  C     C_R   0.741226 0.472825 0.559908 0.064713
C172  C     C_R   0.741385 0.527129 0.559389 0.087397
C173  C     C_R   0.113892 0.953369 0.963607 -0.118291
C174  C     C_R   0.113960 0.047224 0.037488 -0.119744
C175  C     C_R   0.733630 0.446305 0.627697 -0.141425
C176  C     C_R   0.731246 0.553989 0.626248 -0.140433
C177  C     C_R   0.047768 0.977473 0.980726 -0.149530
C178  C     C_R   0.047804 0.023342 0.020293 -0.147925
C179  C     C_R   0.724595 0.473436 0.692721 -0.140078
C180  C     C_R   0.722800 0.527224 0.691923 -0.155047
H89   H     H_    0.500069 0.033674 0.048935 0.145568
H90   H     H_    0.500742 0.964704 0.958235 0.144780
H91   H     H_    0.798060 0.544290 0.242632 0.151384
H92   H     H_    0.745988 0.460257 0.236969 0.135433
C181  C     C_3   0.325892 0.844186 0.214369 -0.441746
C182  C     C_3   0.366655 0.885690 0.170753 -0.766146
H93   H     H_    0.387120 0.916330 0.208057 0.236030
H94   H     H_    0.413993 0.868942 0.141146 0.275074
H95   H     H_    0.328863 0.904204 0.130989 0.249523
H96   H     H_    0.299383 0.815335 0.178908 0.192450
H97   H     H_    0.278021 0.863815 0.239804 0.187110
C183  C     C_3   0.482707 0.325310 0.942558 -0.446845
C184  C     C_3   0.442380 0.371391 0.908618 -0.837391
H98   H     H_    0.399402 0.384864 0.946725 0.232607
H99   H     H_    0.481272 0.403729 0.898811 0.247383
H100  H     H_    0.416423 0.361043 0.855892 0.276797
H101  H     H_    0.444719 0.296899 0.966501 0.204598
H102  H     H_    0.511565 0.340382 0.991548 0.195079
C185  C     C_3   0.429668 0.375686 0.160450 -0.407806
C186  C     C_3   0.508605 0.388758 0.140298 -0.934667
H103  H     H_    0.509258 0.412425 0.089499 0.252798
H104  H     H_    0.534880 0.411344 0.184747 0.271989
H105  H     H_    0.540628 0.352750 0.130776 0.259755
H106  H     H_    0.404522 0.354584 0.114455 0.218361
H107  H     H_    0.399198 0.412747 0.165344 0.194857
C187  C     C_3   0.418180 0.627086 0.842806 -0.392945
C188  C     C_3   0.463087 0.577094 0.847844 -0.940005
H108  H     H_    0.459075 0.560931 0.904015 0.246007
H109  H     H_    0.442176 0.547508 0.809215 0.262062
H110  H     H_    0.521577 0.585117 0.835687 0.273114
H111  H     H_    0.437198 0.652198 0.888051 0.190423
H112  H     H_    0.359635 0.618162 0.851789 0.231907
C189  C     C_3   0.935768 0.133899 0.625611 -0.412367
C190  C     C_3   0.888328 0.117136 0.690702 -0.754393
H113  H     H_    0.831815 0.108645 0.672640 0.255355
H114  H     H_    0.912026 0.081845 0.716518 0.228672
H115  H     H_    0.884660 0.147740 0.733018 0.264659
H116  H     H_    0.905616 0.157146 0.584739 0.201571
H117  H     H_    0.950004 0.098054 0.595129 0.169799
C191  C     C_3   0.981541 0.827057 0.438292 -0.433128
C192  C     C_3   0.944540 0.872047 0.398060 -0.846226
H118  H     H_    0.984987 0.903250 0.387283 0.245265
H119  H     H_    0.920821 0.859666 0.345162 0.277689
H120  H     H_    0.899966 0.887884 0.432331 0.235393
H121  H     H_    0.941162 0.800780 0.463378 0.207372
H122  H     H_    0.009699 0.844192 0.486353 0.186032
C193  C     C_3   0.810943 0.671735 0.731476 -0.444862
C194  C     C_3   0.768272 0.712336 0.774805 -0.792176
H123  H     H_    0.711437 0.715039 0.753598 0.250782
H124  H     H_    0.765819 0.700805 0.833291 0.240511
H125  H     H_    0.794319 0.751024 0.771124 0.276541
H126  H     H_    0.806329 0.677946 0.672017 0.203286
H127  H     H_    0.781757 0.634469 0.739931 0.183072
C195  C     C_3   0.983168 0.172398 0.437462 -0.463805
C196  C     C_3   0.028707 0.214344 0.474975 -0.779184
H128  H     H_    0.006435 0.222287 0.529981 0.245121
H129  H     H_    0.086323 0.201037 0.480795 0.246151
H130  H     H_    0.028399 0.251134 0.443472 0.271113
H131  H     H_    0.923859 0.178900 0.444376 0.195485
H132  H     H_    0.993020 0.135770 0.468192 0.178793
C197  C     C_3   0.384363 0.080353 0.113512 -0.354449
C198  C     C_3   0.415700 0.055981 0.183121 -0.911507
H133  H     H_    0.383285 0.021297 0.198826 0.260280
H134  H     H_    0.473839 0.044620 0.175515 0.260988
H135  H     H_    0.413145 0.084570 0.228306 0.257190
H136  H     H_    0.418417 0.114117 0.097603 0.240959
H137  H     H_    0.328912 0.094745 0.127618 0.190156
C199  C     C_3   0.386005 0.919755 0.889717 -0.354297
C200  C     C_3   0.419372 0.944344 0.821372 -0.904025
H138  H     H_    0.477414 0.955140 0.830767 0.260779
H139  H     H_    0.417654 0.916101 0.775716 0.255777
H140  H     H_    0.387763 0.979426 0.805275 0.263725
H141  H     H_    0.419181 0.885519 0.905953 0.240523
H142  H     H_    0.330681 0.906098 0.873903 0.191813
C201  C     C_3   0.846717 0.597142 0.362028 -0.359108
C202  C     C_3   0.902006 0.600639 0.299154 -0.901086
H143  H     H_    0.931523 0.563241 0.292509 0.267484
H144  H     H_    0.874502 0.611438 0.247236 0.254280
H145  H     H_    0.942938 0.631201 0.311424 0.268163
H146  H     H_    0.813743 0.633374 0.362577 0.194645
H147  H     H_    0.881678 0.593969 0.411416 0.252632
C203  C     C_3   0.701955 0.397022 0.340454 -0.424783
C204  C     C_3   0.619602 0.402779 0.352357 -0.752232
H148  H     H_    0.597349 0.433817 0.316361 0.235213
H149  H     H_    0.592066 0.366075 0.337816 0.262625
H150  H     H_    0.606858 0.412670 0.409860 0.272800
H151  H     H_    0.709243 0.384663 0.282716 0.182028
H152  H     H_    0.725722 0.364022 0.370755 0.192545

loop_
_geom_bond_atom_site_label_1
_geom_bond_atom_site_label_2
_geom_bond_distance
_ccdc_geom_bond_type
C196  H130  1.108677 S    
C87   C119  1.416600 A    
C94   C102  1.426869 A    
C109  C149  1.414320 A    
C148  H80   1.080519 S    
C172  C176  1.420214 A    
C149  H81   1.081866 S    
C99   C123  1.425289 A    
C187  H112  1.106475 S    
C177  C178  1.389040 A    
C201  H147  1.108641 S    
C97   C121  1.449910 A    
O26   C7    1.287030 A    
C73   C89   1.419566 A    
C66   C74   1.422196 A    
C130  H74   1.083601 S    
C99   C111  1.408680 A    
C159  H91   1.080480 S    
C4    C90   1.448127 S    
O30   C11   1.278331 A    
C22   C38   1.489311 S    
C191  H122  1.111616 S    
C30   H14   1.113667 S    
C91   C99   1.410826 A    
C136  C140  1.383136 A    
C89   C97   1.432786 A    
C192  H120  1.106528 S    
Zn12  O26   1.930584 S    
C189  H116  1.103096 S    
C110  C118  1.417046 A    
C51   C63   1.388012 A    
H34   C142  1.083002 S    
C169  C173  1.417075 A    
C92   C100  1.412686 A    
C125  C189  1.515682 S    
C76   C92   1.421732 A    
C32   C39   1.554174 S    
H29   C137  1.082487 S    
C96   C104  1.427884 A    
C34   C38   1.549235 S    
C199  H142  1.109018 S    
C44   H40   1.081860 S    
O11   C7    1.269110 A    
C45   H41   1.082454 S    
C60   H56   1.082526 S    
O34   C15   1.284147 A    
C55   H51   1.082494 S    
C136  H72   1.083479 S    
C163  C167  1.426676 A    
C62   C70   1.392667 A    
C41   H37   1.082439 S    
C204  H150  1.108586 S    
C137  C145  1.385352 A    
Zn14  O30   1.933424 S    
Zn1   O44   1.945556 S    
C25   H1    1.113054 S    
C153  C157  1.402121 A    
C182  H93   1.111014 S    
C75   C91   1.421815 A    
C108  C116  1.416068 A    
C141  C149  1.381151 A    
C186  H105  1.110765 S    
Zn5   O48   1.945556 S    
H32   C140  1.082874 S    
Zn6   O47   1.945557 S    
C155  C201  1.524941 S    
C112  C120  1.423009 A    
Zn7   O46   1.942569 S    
C46   C86   1.419223 A    
C127  C193  1.523294 S    
C11   C115  1.453546 S    
C185  C186  1.526529 S    
C42   C50   1.391337 A    
Zn16  O4    1.943268 S    
C155  C164  1.440706 A    
Zn12  O4    1.947495 S    
Zn1   O13   1.931738 S    
C156  C163  1.445681 A    
C71   H67   1.081115 S    
C98   C110  1.422995 A    
C26   C28   1.533654 S    
C72   H68   1.081584 S    
Zn4   O16   1.932844 S    
C57   H53   1.082638 S    
C197  H136  1.109488 S    
C104  C128  1.444102 A    
C9    C113  1.449181 S    
C33   C37   1.551569 S    
C6    C96   1.449794 S    
C28   H4    1.113624 S    
C157  H89   1.083017 S    
C125  C133  1.405405 A    
C193  C194  1.528425 S    
C63   H59   1.082726 S    
C195  H132  1.112031 S    
C31   H7    1.113099 S    
C64   H60   1.082194 S    
C71   C79   1.420977 A    
C154  C158  1.402057 A    
C72   C80   1.420957 A    
C204  H149  1.105933 S    
C193  H127  1.110492 S    
C182  H95   1.108559 S    
C194  H124  1.111001 S    
C14   C118  1.455221 S    
C44   C84   1.418360 A    
C135  H71   1.083639 S    
C45   C85   1.418126 A    
C30   H6    1.113664 S    
Zn10  O22   1.930584 S    
C105  C113  1.409055 A    
C132  H76   1.082903 S    
C48   C88   1.417622 A    
C133  H69   1.083431 S    
C200  H138  1.109783 S    
O25   C8    1.279895 A    
C171  C175  1.421865 A    
C129  C141  1.380427 A    
C15   C119  1.487933 S    
Zn10  O2    1.947495 S    
C183  C184  1.526729 S    
C31   C40   1.550763 S    
O29   C12   1.274119 A    
C167  C171  1.411971 A    
Zn15  O33   1.934949 S    
C18   C165  1.481913 S    
C151  H83   1.080778 S    
C152  H84   1.079997 S    
C203  H151  1.112816 S    
C80   C84   1.408999 A    
C75   C87   1.410059 A    
C26   H2    1.109835 S    
C41   C81   1.416650 A    
C135  C139  1.382160 A    
O48   C23   1.276482 A    
C130  C142  1.380970 A    
Zn13  O29   1.934949 S    
C184  H98   1.106794 S    
C155  C159  1.397981 A    
C132  C144  1.388770 A    
C101  C125  1.441293 A    
C204  H148  1.111039 S    
C164  C168  1.431310 A    
Zn16  O35   1.933988 S    
C77   C93   1.417581 A    
C70   C78   1.421485 A    
C190  H113  1.105810 S    
C181  H97   1.112608 S    
C183  H102  1.111122 S    
C82   C114  1.409525 A    
Zn7   O10   1.932800 S    
O33   C16   1.282658 A    
C202  H143  1.110995 S    
C25   C37   1.551116 S    
C86   C118  1.408193 A    
Zn8   O20   1.932844 S    
O40   C20   1.275940 A    
C187  C188  1.529001 S    
C52   C64   1.388187 A    
C70   H66   1.080728 S    
C156  C203  1.521210 S    
C1    C91   1.486170 S    
H85   C178  1.082494 S    
C102  C106  1.419764 A    
C193  H126  1.102517 S    
C129  H73   1.083621 S    
C80   C96   1.418389 A    
Zn5   O17   1.931738 S    
H33   C141  1.082840 S    
H31   C139  1.082893 S    
C153  C197  1.519891 S    
C150  H82   1.080678 S    
C57   C65   1.393229 A    
C53   H49   1.082384 S    
C25   C27   1.547431 S    
C45   C53   1.392363 A    
C103  C107  1.420925 A    
C67   C75   1.417852 A    
C169  C170  1.405827 A    
C61   H57   1.082784 S    
C65   C73   1.421246 A    
C27   H3    1.112968 S    
C32   H8    1.113553 S    
Zn8   O3    1.951073 S    
C21   C37   1.489265 S    
C199  C200  1.528595 S    
C200  H140  1.110945 S    
O38   C18   1.283981 A    
C146  H78   1.079083 S    
H22   C34   1.113143 S    
C123  C185  1.520167 S    
C179  C180  1.387577 A    
O5    C1    1.296784 A    
C47   C55   1.392787 A    
O32   C9    1.279009 A    
C153  C162  1.425713 A    
H25   C35   1.113330 S    
C52   H48   1.082647 S    
H26   C36   1.113129 S    
C36   C40   1.549785 S    
Zn15  O51   1.942863 S    
C111  C151  1.413140 A    
Zn11  O28   1.933172 S    
Zn12  O40   1.942822 S    
C20   C167  1.432764 S    
H17   C173  1.081409 S    
C184  H100  1.108198 S    
H23   C34   1.113032 S    
C188  H110  1.111047 S    
C198  H134  1.109841 S    
C42   H38   1.081379 S    
C29   C39   1.551650 S    
H28   C35   1.110673 S    
C43   C51   1.392485 A    
O8    C4    1.271139 A    
C63   C71   1.392775 A    
C33   C34   1.543387 S    
C196  H129  1.110887 S    
C49   C61   1.389499 A    
C201  H146  1.110654 S    
C202  H145  1.110700 S    
O50   C18   1.278955 A    
O37   C17   1.285177 A    
C154  C161  1.425880 A    
C107  C115  1.415949 A    
C100  C112  1.410170 A    
Zn1   O1    1.945121 S    
C122  C130  1.406353 A    
Zn13  O1    1.947196 S    
Zn2   O14   1.932909 S    
C29   H5    1.113195 S    
C197  C198  1.528704 S    
C160  H92   1.083980 S    
C48   H44   1.081051 S    
C166  C170  1.416254 A    
C128  C195  1.521428 S    
O9    C5    1.270606 A    
C43   H39   1.081916 S    
O36   C13   1.272510 A    
C192  H119  1.108313 S    
C60   C68   1.393187 A    
C124  C187  1.518384 S    
O13   C9    1.269781 A    
Zn1   O8    1.932865 S    
C2    C92   1.487044 S    
Zn2   O7    1.931693 S    
C173  C177  1.393468 A    
Zn3   O6    1.932800 S    
O18   C14   1.272296 A    
O31   C10   1.277880 A    
C106  C146  1.415553 A    
C25   H9    1.113094 S    
C110  C150  1.415818 A    
C93   C101  1.432436 A    
C32   H16   1.113502 S    
C134  H70   1.083545 S    
C98   C122  1.449480 A    
C59   H55   1.082523 S    
Zn15  O3    1.947196 S    
C74   C90   1.420162 A    
Zn11  O3    1.943567 S    
O41   C21   1.278759 A    
C56   C60   1.387677 A    
C66   H62   1.081001 S    
Zn16  O34   1.933424 S    
C189  C190  1.535436 S    
C158  H90   1.082997 S    
C31   H15   1.113061 S    
C74   C86   1.407626 A    
C182  H94   1.108453 S    
C3    C89   1.446575 S    
Zn2   O2    1.945119 S    
C90   C98   1.431640 A    
C64   C72   1.392988 A    
C78   C82   1.408253 A    
H87   C180  1.082439 S    
C65   H61   1.081994 S    
C109  C117  1.414066 A    
C170  C174  1.416932 A    
C188  H108  1.110661 S    
C108  C148  1.415496 A    
C59   C67   1.393293 A    
C47   H43   1.081206 S    
C68   C76   1.418163 A    
C84   C116  1.409693 A    
C69   C77   1.419691 A    
C159  C160  1.374506 A    
C112  C152  1.414863 A    
C121  C181  1.523110 S    
Zn8   O9    1.929290 S    
C24   C40   1.490716 S    
C185  H107  1.108903 S    
C19   C168  1.444133 S    
C187  H111  1.108794 S    
C7    C93   1.454358 S    
H20   C176  1.080759 S    
C56   H52   1.082477 S    
C162  C166  1.416011 A    
C138  C146  1.383967 A    
O7    C3    1.280669 A    
C88   C120  1.416395 A    
C95   C103  1.428936 A    
C16   C120  1.486483 S    
C195  H131  1.103128 S    
O19   C15   1.290524 A    
C191  H121  1.102199 S    
C83   C115  1.408290 A    
C142  C150  1.382131 A    
C43   C83   1.418578 A    
C181  C182  1.528579 S    
C26   H10   1.113501 S    
C27   C38   1.551504 S    
C147  H79   1.080997 S    
Zn6   O18   1.932909 S    
Zn10  O23   1.934699 S    
C49   H45   1.082581 S    
C79   C83   1.407627 A    
C58   C66   1.392658 A    
C168  C172  1.411510 A    
Zn15  O36   1.930837 S    
O15   C11   1.273710 A    
O42   C22   1.275796 A    
C97   C109  1.423270 A    
C28   C37   1.552342 S    
C46   H42   1.081579 S    
C203  H152  1.102281 S    
Zn4   O1    1.951073 S    
C30   C32   1.535690 S    
Zn9   O37   1.944791 S    
C199  H141  1.109289 S    
C35   C36   1.542446 S    
O12   C8    1.268533 A    
H86   C177  1.082499 S    
C53   C57   1.388216 A    
Zn11  O39   1.944791 S    
C154  C199  1.519966 S    
C46   C54   1.391697 A    
Zn2   O43   1.945557 S    
C42   C82   1.419308 A    
H21   C33   1.111044 S    
C190  H114  1.110826 S    
C181  H96   1.101387 S    
C195  C196  1.529830 S    
Zn5   O3    1.945121 S    
C133  C137  1.383847 A    
C13   C117  1.453283 S    
C54   H50   1.082608 S    
C121  C129  1.407212 A    
C139  C147  1.383361 A    
C202  H144  1.108661 S    
C171  C172  1.400572 A    
C8    C94   1.448279 S    
C10   C114  1.455478 S    
C157  C158  1.389945 A    
H35   C143  1.082451 S    
H24   C33   1.111338 S    
Zn9   O24   1.933172 S    
O28   C5    1.281855 A    
C17   C166  1.482245 S    
C190  H115  1.109584 S    
C197  H137  1.108837 S    
C163  C164  1.420896 A    
Zn3   O42   1.942569 S    
C161  C165  1.417979 A    
C23   C39   1.487903 S    
Zn7   O4    1.951074 S    
O21   C4    1.277545 A    
C201  C202  1.534434 S    
C50   C62   1.386693 A    
C44   C52   1.392564 A    
C175  C179  1.392319 A    
C105  C145  1.414759 A    
C143  C151  1.392835 A    
C145  H77   1.082251 S    
C48   C56   1.392549 A    
C102  C126  1.445707 A    
C58   H54   1.082006 S    
Zn14  O2    1.943268 S    
C78   C94   1.419629 A    
C194  H123  1.109585 S    
C196  H128  1.105866 S    
Zn13  O49   1.942863 S    
O44   C21   1.278065 A    
C28   H12   1.113484 S    
C81   C113  1.408487 A    
Zn12  O27   1.934699 S    
C35   C39   1.549794 S    
C200  H139  1.110729 S    
C85   C117  1.406171 A    
O16   C12   1.280341 A    
C61   C69   1.393513 A    
C30   C40   1.554973 S    
H19   C175  1.082125 S    
Zn3   O2    1.951074 S    
C127  C135  1.406268 A    
H27   C36   1.106558 S    
O10   C6    1.281925 A    
C189  H117  1.111825 S    
O46   C24   1.276155 A    
O47   C24   1.281335 A    
Zn16  O52   1.944833 S    
C100  C124  1.427097 A    
H88   C179  1.082755 S    
H30   C138  1.081380 S    
C104  C108  1.419357 A    
Zn8   O45   1.942567 S    
C41   C49   1.393372 A    
O27   C6    1.273168 A    
C47   C87   1.417134 A    
C185  H106  1.103946 S    
C184  H99   1.110892 S    
O39   C19   1.260945 A    
C188  H109  1.109911 S    
C198  H135  1.110684 S    
C67   H63   1.080280 S    
C131  C143  1.390802 A    
C29   C31   1.546018 S    
C183  H101  1.100486 S    
C73   C85   1.407667 A    
O24   C1    1.275714 A    
C76   C88   1.408898 A    
C77   C81   1.409482 A    
C79   C95   1.418861 A    
C156  C160  1.398187 A    
O43   C22   1.281046 A    
O14   C10   1.271023 A    
C186  H104  1.111102 S    
Zn4   O41   1.942567 S    
Zn3   O15   1.929332 S    
C122  C183  1.523488 S    
Zn5   O12   1.932865 S    
Zn6   O11   1.931693 S    
C101  C105  1.414726 A    
Zn6   O4    1.945119 S    
Zn9   O21   1.933738 S    
Zn14  O50   1.944833 S    
C126  C191  1.523091 S    
O35   C14   1.276016 A    
C192  H118  1.110856 S    
H18   C174  1.081522 S    
Zn9   O1    1.943567 S    
H36   C144  1.082551 S    
O52   C20   1.261666 A    
C55   C59   1.388033 A    
C126  C134  1.404699 A    
C29   H13   1.113082 S    
C194  H125  1.108169 S    
C191  C192  1.528018 S    
C203  C204  1.526852 S    
O22   C3    1.271365 A    
C140  C148  1.384704 A    
Zn7   O19   1.929332 S    
C176  C180  1.393057 A    
C50   H46   1.082762 S    
C111  C119  1.420146 A    
C12   C116  1.455191 S    
Zn13  O32   1.930837 S    
C144  C152  1.391963 A    
O49   C17   1.277614 A    
Zn14  O31   1.933988 S    
C123  C131  1.404089 A    
C134  C138  1.381782 A    
O51   C19   1.283240 A    
C106  C114  1.417747 A    
C27   H11   1.113101 S    
Zn4   O5    1.929290 S    
C103  C127  1.446643 A    
O20   C16   1.292582 A    
C165  C169  1.416616 A    
C5    C95   1.446813 S    
C186  H103  1.110628 S    
C26   C38   1.554887 S    
O23   C2    1.275315 A    
O6    C2    1.297567 A    
Zn11  O25   1.933738 S    
C161  C162  1.409322 A    
Zn10  O38   1.942822 S    
C131  H75   1.083036 S    
C124  C132  1.402924 A    
C54   C58   1.387031 A    
C68   H64   1.079998 S    
C69   H65   1.082099 S    
C174  C178  1.393323 A    
C128  C136  1.405173 A    
C198  H133  1.110983 S    
C107  C147  1.415070 A    
O17   C13   1.277774 A    
C62   H58   1.081082 S    
C51   H47   1.082590 S    
O45   C23   1.279637 A    
