data_mof_unit_15467.cif
_audit_creation_date              2012-12-10T17:33:00-0500
_audit_creation_method            fapswitch 2.2
_symmetry_space_group_name_H-M    P1
_symmetry_Int_Tables_number       1
_space_group_crystal_system       triclinic
_cell_length_a                    12.410163
_cell_length_b                    13.72122
_cell_length_c                    14.50411
_cell_angle_alpha                 93.844326
_cell_angle_beta                  107.928221
_cell_angle_gamma                 117.56584
_cell_volume                      2017.83044181

loop_
_atom_site_label
_atom_site_type_symbol
_atom_type_description
_atom_site_fract_x
_atom_site_fract_y
_atom_site_fract_z
_atom_type_partial_charge
C1    C     C_R   0.653318 0.713703 0.511415 0.837000
C2    C     C_R   0.826137 0.472816 0.917290 0.054019
C3    C     C_R   0.772223 0.487673 0.985794 0.094515
C4    C     C_R   0.927875 0.446341 0.948894 0.020126
C5    C     C_R   0.000508 0.467966 0.052866 0.069976
C6    C     C_R   0.958634 0.506338 0.121721 0.121610
C7    C     C_R   0.838136 0.502985 0.087187 -0.237002
C8    C     C_R   0.956395 0.396420 0.878709 -0.207984
C9    C     C_R   0.070921 0.392195 0.906308 -0.194155
C10   C     C_R   0.152438 0.424504 0.006637 0.145517
C11   C     C_R   0.112959 0.453519 0.081339 0.094455
C12   C     C_R   0.616204 0.513166 0.685834 0.850062
C13   C     C_R   0.269442 0.421454 0.033057 -0.163874
C14   C     C_R   0.346924 0.443724 0.133222 -0.189632
C15   C     C_R   0.184940 0.461816 0.180500 -0.198512
C16   C     C_R   0.223117 0.979816 0.490675 0.474599
C17   C     C_R   0.266780 0.172551 0.499440 -0.235964
C18   C     C_R   0.670805 0.895207 0.473288 0.125584
C19   C     C_R   0.740441 0.001462 0.455640 -0.201933
C20   C     C_R   0.871580 0.047113 0.469545 -0.152224
C21   C     C_R   0.937876 0.989606 0.505871 0.161990
C22   C     C_R   0.869695 0.884184 0.527469 0.045484
C23   C     C_R   0.349379 0.288415 0.492975 0.847420
C24   C     C_R   0.068896 0.030334 0.514459 -0.077031
C25   C     C_R   0.115143 0.954237 0.517291 -0.027484
C26   C     C_R   0.057284 0.860313 0.554368 -0.077077
C27   C     C_R   0.941285 0.832627 0.567980 -0.180262
C28   C     C_R   0.159136 0.144916 0.529120 0.353862
C29   C     C_R   0.294140 0.087644 0.476356 -0.313328
C30   C     C_R   0.733807 0.833931 0.508390 -0.083909
C31   C     C_R   0.246009 0.668466 0.667031 -0.261806
C32   C     C_R   0.651739 0.346305 0.361158 0.083079
C33   C     C_R   0.727153 0.312961 0.328373 -0.258984
C34   C     C_R   0.379108 0.480275 0.313892 0.778864
C35   C     C_R   0.863461 0.369517 0.379355 -0.202139
C36   C     C_R   0.925361 0.460143 0.464031 0.044505
C37   C     C_R   0.842861 0.490063 0.494416 0.291730
C38   C     C_R   0.065034 0.522239 0.520930 -0.010372
C39   C     C_R   0.113814 0.606544 0.608167 0.092082
C40   C     C_R   0.030968 0.631004 0.637108 -0.279375
C41   C     C_R   0.899479 0.576979 0.578468 -0.185358
C42   C     C_R   0.159279 0.505600 0.496761 0.005265
C43   C     C_R   0.335186 0.649708 0.642567 0.633788
C44   C     C_R   0.671401 0.505737 0.789925 -0.058750
C45   C     C_R   0.304068 0.462594 0.207526 -0.061251
C46   C     C_R   0.660234 0.498024 0.953511 -0.181956
C47   C     C_R   0.607091 0.501991 0.855111 -0.133150
C48   C     C_R   0.785297 0.496555 0.823027 0.097910
Cu1   Cu    Cu3+1 0.416420 0.526630 0.522910 1.074003
Cu2   Cu    Cu3+1 0.583580 0.473370 0.477090 0.943516
H1    H     H_    0.804009 0.525448 0.141060 0.158457
H2    H     H_    0.300670 0.401364 0.976048 0.160736
H3    H     H_    0.375100 0.106954 0.452823 0.215258
H4    H     H_    0.106228 0.813824 0.578296 0.205064
H5    H     H_    0.918790 0.124799 0.447278 0.174160
H6    H     H_    0.690657 0.046790 0.426929 0.164329
H7    H     H_    0.907503 0.772582 0.610198 0.137989
H8    H     H_    0.146763 0.460910 0.237629 0.185727
H9    H     H_    0.068953 0.696388 0.703954 0.163340
H10   H     H_    0.279961 0.731574 0.734451 0.188954
H11   H     H_    0.129400 0.442602 0.431310 0.137683
H12   H     H_    0.546305 0.302116 0.320615 0.135297
H13   H     H_    0.917985 0.340682 0.351923 0.140592
H14   H     H_    0.679722 0.243147 0.263207 0.158300
H15   H     H_    0.842743 0.603087 0.602276 0.216873
H16   H     H_    0.437716 0.442478 0.152198 0.157735
H17   H     H_    0.093914 0.360459 0.848990 0.168444
H18   H     H_    0.614923 0.504807 0.004807 0.149658
H19   H     H_    0.518234 0.506283 0.831331 0.230487
H20   H     H_    0.889425 0.358683 0.801685 0.163256
N1    N     N_R   0.290690 0.566960 0.557640 -0.237924
N2    N     N_R   0.709100 0.433710 0.442970 -0.218390
O1    O     O_R   0.545970 0.684450 0.528810 -0.480110
O2    O     O_R   0.687130 0.639470 0.490120 -0.618272
O3    O     O_R   0.519670 0.535100 0.660030 -0.507910
O4    O     O_R   0.660830 0.490120 0.621340 -0.606298
O5    O     O_R   0.312870 0.360530 0.509880 -0.526781
O6    O     O_R   0.454030 0.315550 0.471190 -0.603253
O7    O     O_R   0.339170 0.509880 0.378660 -0.599543
O8    O     O_R   0.480330 0.464900 0.339970 -0.595238
S1    S     S_3+6 0.262623 0.876224 0.464951 -0.046921
O9    O     O_2   0.322270 0.901092 0.387501 -0.339185
O10   O     O_2   0.358834 0.880129 0.560341 -0.307664
O11   O     O_3   0.127270 0.746439 0.421290 -0.570072
H21   H     H_    0.161392 0.694032 0.421129 0.368237
S2    S     S_3+6 0.166014 0.242282 0.622335 0.000288
O12   O     O_2   0.306300 0.324998 0.690337 -0.282669
O13   O     O_2   0.103369 0.306166 0.573302 -0.348245
O14   O     O_3   0.085580 0.171302 0.692468 -0.523734
H22   H     H_    0.035848 0.207565 0.702636 0.362267
N3    N     N_3   0.533916 0.848093 0.451481 -0.495958
H23   H     H_    0.526247 0.906791 0.494364 0.309535
H24   H     H_    0.487602 0.841397 0.375797 0.248128
S3    S     S_3+6 0.498601 0.733451 0.736405 0.040967
O15   O     O_2   0.522219 0.850699 0.767506 -0.270827
O16   O     O_2   0.499498 0.682867 0.825143 -0.338469
O17   O     O_3   0.627726 0.750068 0.710567 -0.520047
H25   H     H_    0.704263 0.789943 0.775142 0.359884
N4    N     N_3   0.872796 0.536482 0.771149 -0.606441
H26   H     H_    0.971072 0.581992 0.821153 0.237077
H27   H     H_    0.854907 0.468231 0.720194 0.242574
N5    N     N_3   0.041850 0.560650 0.224729 -0.608570
H28   H     H_    0.062198 0.644391 0.237260 0.284937
H29   H     H_    0.990208 0.519670 0.268410 0.218839

loop_
_geom_bond_atom_site_label_1
_geom_bond_atom_site_label_2
_ccdc_geom_bond_type
C19   H6    S    
C24   C25   A    
C17   C29   A    
C35   C36   A    
C4    C8    A    
O17   H25   S    
C32   N2    A    
C26   C27   A    
C17   C23   S    
C31   C43   A    
C1    O2    A    
C36   C37   A    
C5    C11   A    
C3    C7    A    
Cu2   O2    S    
C5    C6    A    
N5    H29   S    
S2    O13   D    
Cu2   O6    S    
C43   S3    S    
C18   C19   A    
Cu2   N2    S    
C47   H19   S    
C16   S1    S    
C34   O8    A    
C11   C15   A    
C19   C20   A    
C42   N1    A    
C8    C9    A    
Cu1   O3    S    
C18   C30   A    
C9    C10   A    
C44   C47   A    
C40   H9    S    
C21   C22   A    
N5    H28   S    
C20   H5    S    
C26   H4    S    
S1    O10   D    
S1    O9    D    
C14   C45   A    
O11   H21   S    
C27   H7    S    
C39   C40   A    
S2    O12   D    
C41   H15   S    
S3    O17   S    
C2    C48   A    
C16   C29   A    
C10   C13   A    
Cu1   O7    S    
C31   H10   S    
C2    C4    A    
C9    H17   S    
C46   H18   S    
Cu2   O4    S    
C34   O7    A    
N3    H24   S    
C13   H2    S    
N4    H26   S    
C14   H16   S    
C34   C45   S    
C23   O5    A    
S3    O16   D    
C42   H11   S    
C40   C41   A    
N4    H27   S    
C22   C27   A    
C12   O4    A    
C28   S2    S    
C15   H8    S    
Cu1   O1    S    
C21   C24   A    
C15   C45   A    
N3    H23   S    
S1    O11   S    
C16   C25   A    
C48   N4    S    
C46   C47   A    
C43   N1    A    
C22   C30   A    
C17   C28   A    
C24   C28   A    
C4    C5    A    
S2    O14   S    
Cu2   O8    S    
C38   C42   A    
C6    C7    A    
C3    C46   A    
C8    H20   S    
C1    O1    A    
C32   C33   A    
C36   C38   A    
C2    C3    A    
C25   C26   A    
C7    H1    S    
C12   C44   S    
C37   N2    A    
C38   C39   A    
C29   H3    S    
C33   H14   S    
C1    C30   S    
C33   C35   A    
Cu1   O5    S    
C6    N5    S    
C23   O6    A    
C37   C41   A    
S3    O15   D    
C10   C11   A    
C32   H12   S    
C18   N3    S    
C20   C21   A    
Cu1   Cu2   S    
Cu1   N1    S    
C12   O3    A    
C31   C39   A    
C35   H13   S    
O14   H22   S    
C13   C14   A    
C44   C48   A    
