data_mof_unit_55265.cif
_audit_creation_date              2012-12-11T15:55:43-0500
_audit_creation_method            fapswitch 2.2
_symmetry_space_group_name_H-M    P1
_symmetry_Int_Tables_number       1
_space_group_crystal_system       triclinic
_cell_length_a                    6.95214
_cell_length_b                    14.546458
_cell_length_c                    16.085603
_cell_angle_alpha                 90.021209
_cell_angle_beta                  90.056979
_cell_angle_gamma                 89.964502
_cell_volume                      1626.7199195

loop_
_atom_site_label
_atom_site_type_symbol
_atom_type_description
_atom_site_fract_x
_atom_site_fract_y
_atom_site_fract_z
_atom_type_partial_charge
O1    O     O_R   0.505680 0.583900 0.413320 -0.538417
O2    O     O_R   0.176010 0.594950 0.586080 -0.541438
O3    O     O_R   0.005680 0.416100 0.586680 -0.542766
C1    C     C_R   0.345062 0.617183 0.614955 0.690689
O4    O     O_R   0.175960 0.594930 0.413930 -0.541658
O5    O     O_R   0.005640 0.416080 0.413300 -0.544061
C2    C     C_R   0.344950 0.617169 0.385055 0.691610
O6    O     O_R   0.505720 0.583920 0.586700 -0.538060
O7    O     O_3   0.339190 0.441320 0.500000 -0.381622
V1    V     V_3+5 0.064350 0.510890 0.500000 1.384969
O8    O     O_R   0.675920 0.405050 0.413920 -0.543868
C3    C     C_R   0.844989 0.382505 0.385300 0.677709
O9    O     O_R   0.675960 0.405070 0.586070 -0.546347
C4    C     C_R   0.845857 0.379479 0.611828 0.683016
V2    V     V_3+5 0.564340 0.489110 0.500000 1.378532
O10   O     O_3   0.839370 0.558680 0.500000 -0.365889
C5    C     C_R   0.025137 0.298532 0.725622 0.090984
C6    C     C_R   0.858901 0.308166 0.677791 -0.109572
C7    C     C_R   0.704969 0.249931 0.696839 -0.200317
H1    H     H_    0.584516 0.247624 0.655437 0.138748
C8    C     C_R   0.713207 0.189281 0.765058 -0.184604
H2    H     H_    0.596025 0.141753 0.774693 0.131981
C9    C     C_R   0.876677 0.185604 0.816926 -0.098292
C10   C     C_R   0.030392 0.244162 0.797511 0.075384
C11   C     C_3   0.232404 0.215762 0.781989 -0.443349
C12   C     C_3   0.218376 0.263937 0.698294 -0.091388
H3    H     H_    0.249640 0.139756 0.779173 0.167805
H4    H     H_    0.332681 0.250272 0.825901 0.167238
H5    H     H_    0.321806 0.321479 0.690797 0.143101
C13   C     C_R   0.046413 0.224714 0.217632 -0.157785
H6    H     H_    0.186713 0.206946 0.193247 0.117210
C14   C     C_R   0.035229 0.288278 0.282866 -0.155442
H7    H     H_    0.167467 0.317706 0.306489 0.118777
C15   C     C_R   0.856230 0.313722 0.316819 -0.038294
C16   C     C_R   0.688743 0.273498 0.283902 -0.157012
H8    H     H_    0.548479 0.291128 0.308434 0.115597
C17   C     C_R   0.699899 0.210034 0.218576 -0.152052
H9    H     H_    0.567636 0.180624 0.194961 0.119005
C18   C     C_R   0.878865 0.184906 0.184342 -0.045236
C19   C     C_R   0.188500 0.724816 0.717391 -0.157703
H10   H     H_    0.048095 0.706384 0.693446 0.117425
C20   C     C_R   0.199589 0.788409 0.782603 -0.154126
H11   H     H_    0.067168 0.817153 0.806692 0.118546
C21   C     C_R   0.378719 0.814540 0.816090 -0.046512
C22   C     C_R   0.546458 0.775398 0.782389 -0.158888
H12   H     H_    0.686865 0.793846 0.806321 0.116900
C23   C     C_R   0.535370 0.711809 0.717174 -0.152071
H13   H     H_    0.667796 0.683090 0.693068 0.120073
C24   C     C_R   0.356230 0.685599 0.683748 -0.047530
C25   C     C_R   0.188517 0.724576 0.282248 -0.156853
H14   H     H_    0.048062 0.706017 0.305917 0.117147
C26   C     C_R   0.199765 0.788127 0.217036 -0.150506
H15   H     H_    0.067355 0.816695 0.192684 0.119169
C27   C     C_R   0.378984 0.814449 0.183882 -0.046529
C28   C     C_R   0.546638 0.775459 0.217896 -0.156815
H16   H     H_    0.687088 0.794027 0.194229 0.116877
C29   C     C_R   0.535389 0.711905 0.283111 -0.150778
H17   H     H_    0.667793 0.683340 0.307471 0.119809
C30   C     C_R   0.356161 0.685552 0.316236 -0.048109
O11   O     O_R   0.229200 0.915950 0.913350 -0.541198
O12   O     O_R   0.559090 0.905000 0.086080 -0.542999
O13   O     O_R   0.729280 0.083880 0.086680 -0.540126
C31   C     C_R   0.390136 0.882765 0.115006 0.687593
O14   O     O_R   0.558920 0.904980 0.913920 -0.543693
O15   O     O_R   0.729110 0.083860 0.913300 -0.540298
C32   C     C_R   0.389873 0.882810 0.884996 0.681172
O16   O     O_R   0.229360 0.915970 0.086730 -0.540235
O17   O     O_3   0.395680 0.058580 0.000030 -0.368341
V3    V     V_3+5 0.670570 0.989070 0.999990 1.395649
O18   O     O_R   0.058820 0.094950 0.913870 -0.540018
C33   C     C_R   0.889617 0.116892 0.885019 0.696346
O19   O     O_R   0.058990 0.094970 0.086020 -0.543089
C34   C     C_R   0.890002 0.116955 0.115118 0.686165
V4    V     V_3+5 0.170560 0.010930 0.999930 1.397204
O20   O     O_3   0.895590 0.941310 0.999960 -0.370402
C35   C     C_3   0.213648 0.191522 0.626868 -0.360359
C36   C     C_3   0.244453 0.232592 0.540261 -0.280351
C37   C     C_3   0.268374 0.157484 0.474763 -0.802920
H18   H     H_    0.395577 0.114068 0.489230 0.229191
H19   H     H_    0.137712 0.113636 0.472174 0.233452
H20   H     H_    0.290280 0.189434 0.412823 0.219990
H21   H     H_    0.118929 0.274854 0.522377 0.212745
H22   H     H_    0.375925 0.275663 0.540241 0.210867
H23   H     H_    0.330590 0.140711 0.637888 0.176310
H24   H     H_    0.076095 0.152447 0.627840 0.192931

loop_
_geom_bond_atom_site_label_1
_geom_bond_atom_site_label_2
_ccdc_geom_bond_type
C28   H16   S    
C4    C6    S    
C21   C32   S    
C7    H1    S    
C1    O6    A    
C35   H23   S    
C23   C24   A    
C22   H12   S    
C21   C22   A    
C11   H4    S    
C25   C30   A    
C7    C8    A    
C6    C7    A    
O5    C3    A    
C13   H6    S    
C37   H19   S    
C29   C30   A    
C27   C31   S    
C36   H22   S    
O17   V4    S    
C19   C24   A    
C15   C16   A    
O12   C31   A    
O8    V2    S    
C16   H8    S    
O17   V3    S    
O18   V4    S    
C12   C35   S    
C9    C10   A    
O13   C34   A    
O18   C33   A    
O1    V2    S    
O7    V1    S    
C19   C20   A    
O11   C32   A    
O9    C4    A    
C20   C21   A    
C2    C30   S    
C26   C27   A    
C25   H14   S    
C22   C23   A    
C8    C9    A    
C31   O16   A    
C5    C10   A    
V4    O20   S    
C9    C33   S    
C10   C11   S    
O19   V4    S    
O4    C2    A    
C37   H18   S    
C11   C12   S    
C36   C37   S    
O13   V3    S    
C14   C15   A    
O2    C1    A    
C17   H9    S    
C25   C26   A    
C23   H13   S    
C5    C6    A    
O16   V4    S    
O14   V3    S    
C35   C36   S    
O3    C4    A    
C19   H10   S    
O6    V2    S    
C28   C29   A    
C20   H11   S    
C5    C12   S    
C3    C15   S    
O2    V1    S    
C26   H15   S    
O12   V3    S    
C27   C28   A    
C16   C17   A    
O1    C2    A    
O19   C34   A    
O5    V1    S    
O8    C3    A    
C11   H3    S    
C1    C24   S    
C14   H7    S    
O9    V2    S    
O7    V2    S    
O4    V1    S    
C17   C18   A    
O3    V1    S    
O15   C33   A    
C13   C14   A    
C37   H20   S    
C29   H17   S    
C36   H21   S    
O15   V3    S    
O11   V4    S    
C13   C18   A    
V3    O20   S    
C18   C34   S    
C12   H5    S    
V1    O10   S    
C8    H2    S    
C35   H24   S    
V2    O10   S    
O14   C32   A    
