data_mof_unit_32532.cif
_audit_creation_date              2012-12-10T20:36:13-0500
_audit_creation_method            fapswitch 2.2
_symmetry_space_group_name_H-M    P1
_symmetry_Int_Tables_number       1
_space_group_crystal_system       triclinic
_cell_length_a                    25.623805
_cell_length_b                    39.831636
_cell_length_c                    23.662148
_cell_angle_alpha                 89.997524
_cell_angle_beta                  122.793169
_cell_angle_gamma                 90.001868
_cell_volume                      20301.6542195

loop_
_atom_site_label
_atom_site_type_symbol
_atom_type_description
_atom_site_fract_x
_atom_site_fract_y
_atom_site_fract_z
_atom_type_partial_charge
C1    C     C_R   0.358577 0.750022 0.000200 0.918091
C2    C     C_R   0.640573 0.248910 0.997992 0.923138
C3    C     C_R   0.641428 0.750019 0.999811 0.918331
C4    C     C_R   0.359425 0.248912 0.002005 0.923166
C5    C     C_R   0.858577 0.250023 0.000202 0.918052
C6    C     C_R   0.140574 0.748911 0.997994 0.923091
C7    C     C_R   0.141428 0.250019 0.999809 0.918321
C8    C     C_R   0.859425 0.748912 0.002005 0.923173
C9    C     C_3   0.735443 0.780047 0.002300 0.404079
C10   C     C_3   0.266337 0.215957 0.002774 0.449574
C11   C     C_3   0.264617 0.780041 0.997839 0.403932
C12   C     C_3   0.733619 0.215952 0.997139 0.448994
C13   C     C_3   0.235437 0.280047 0.002289 0.404093
C14   C     C_3   0.766333 0.715957 0.002764 0.449537
C15   C     C_3   0.764613 0.280041 0.997834 0.403916
C16   C     C_3   0.233616 0.715952 0.997135 0.448995
C17   C     C_3   0.242100 0.263205 0.948405 0.400988
C18   C     C_3   0.758887 0.733056 0.056297 0.467706
C19   C     C_3   0.757922 0.263150 0.051659 0.400583
C20   C     C_3   0.241098 0.733104 0.943667 0.467767
C21   C     C_3   0.742102 0.763209 0.948410 0.401008
C22   C     C_3   0.258887 0.233060 0.056300 0.467672
C23   C     C_3   0.257925 0.763149 0.051663 0.400592
C24   C     C_3   0.741101 0.233102 0.943669 0.467774
C25   C     C_3   0.303598 0.247037 0.004484 -0.265261
C26   C     C_3   0.698701 0.749301 0.000667 -0.166779
C27   C     C_3   0.696401 0.247030 0.995520 -0.265723
C28   C     C_3   0.301309 0.749302 0.999356 -0.166834
C29   C     C_3   0.803598 0.747036 0.004483 -0.265278
C30   C     C_3   0.198700 0.249302 0.000664 -0.166753
C31   C     C_3   0.196403 0.747031 0.995523 -0.265714
C32   C     C_3   0.801310 0.249303 0.999357 -0.166818
C33   C     C_3   0.296662 0.264115 0.059472 -0.466231
C34   C     C_3   0.704983 0.731988 0.946398 -0.443197
C35   C     C_3   0.703372 0.264155 0.940593 -0.464820
C36   C     C_3   0.294995 0.731931 0.053559 -0.442810
C37   C     C_3   0.796666 0.764110 0.059478 -0.466237
C38   C     C_3   0.204985 0.231984 0.946402 -0.443225
C39   C     C_3   0.203373 0.764158 0.940597 -0.464848
C40   C     C_3   0.794995 0.231933 0.053562 -0.442809
C41   C     C_R   0.126560 0.756113 0.359367 0.329689
C42   C     C_R   0.823678 0.217526 0.639191 0.337699
C43   C     C_R   0.873556 0.755909 0.640690 0.328853
C44   C     C_R   0.175732 0.217578 0.360840 0.337873
C45   C     C_R   0.626557 0.256113 0.359366 0.329709
C46   C     C_R   0.323678 0.717528 0.639190 0.337703
C47   C     C_R   0.373593 0.255871 0.640702 0.328871
C48   C     C_R   0.675766 0.717597 0.360849 0.338037
C49   C     C_R   0.092185 0.751070 0.288954 0.297121
C50   C     C_R   0.852994 0.217663 0.709850 0.261361
C51   C     C_R   0.907869 0.750893 0.711109 0.297278
C52   C     C_R   0.146421 0.217662 0.290189 0.261009
C53   C     C_R   0.592182 0.251072 0.288953 0.297118
C54   C     C_R   0.352993 0.717664 0.709849 0.261358
C55   C     C_R   0.407893 0.250867 0.711124 0.297271
C56   C     C_R   0.646465 0.717677 0.290200 0.261017
C57   C     C_R   0.124673 0.748900 0.255825 -0.434960
C58   C     C_R   0.869200 0.248922 0.744093 -0.404035
C59   C     C_R   0.875339 0.748896 0.744205 -0.435113
C60   C     C_R   0.130911 0.248912 0.255940 -0.426463
C61   C     C_R   0.624672 0.248899 0.255825 -0.434959
C62   C     C_R   0.369201 0.748923 0.744093 -0.404031
C63   C     C_R   0.375352 0.248886 0.744207 -0.435106
C64   C     C_R   0.630891 0.748924 0.255937 -0.426505
C65   C     C_R   0.190100 0.746452 0.294314 0.266886
C66   C     C_R   0.845144 0.279078 0.706897 0.235654
C67   C     C_R   0.809899 0.746612 0.705718 0.266096
C68   C     C_R   0.155860 0.279006 0.293165 0.292950
C69   C     C_R   0.690098 0.246450 0.294315 0.266895
C70   C     C_R   0.345151 0.779080 0.706898 0.235650
C71   C     C_R   0.309912 0.246604 0.705711 0.266092
C72   C     C_R   0.655747 0.779030 0.293145 0.293141
C73   C     C_R   0.220791 0.740610 0.363902 0.394753
C74   C     C_R   0.800277 0.277025 0.637382 0.350004
C75   C     C_R   0.779168 0.740747 0.636135 0.396646
C76   C     C_R   0.200722 0.276816 0.362665 0.389696
C77   C     C_R   0.720787 0.240607 0.363903 0.394750
C78   C     C_R   0.300286 0.777027 0.637382 0.350002
C79   C     C_R   0.279190 0.240728 0.636132 0.396646
C80   C     C_R   0.700597 0.776861 0.362652 0.389471
C81   C     C_R   0.190386 0.748234 0.396912 -0.261051
C82   C     C_R   0.794015 0.247060 0.603031 -0.256594
C83   C     C_R   0.809658 0.748187 0.603133 -0.261451
C84   C     C_R   0.206151 0.246978 0.397015 -0.273705
C85   C     C_R   0.690382 0.248232 0.396912 -0.261056
C86   C     C_R   0.294021 0.747062 0.603030 -0.256588
C87   C     C_R   0.309694 0.248153 0.603137 -0.261488
C88   C     C_R   0.706104 0.747014 0.397012 -0.273755
C89   C     C_R   0.591044 0.749998 0.181828 1.029475
C90   C     C_R   0.409547 0.249912 0.818231 1.040313
C91   C     C_R   0.408968 0.749991 0.818185 1.028605
C92   C     C_R   0.590449 0.249908 0.181780 1.039291
C93   C     C_R   0.091047 0.249997 0.181830 1.029052
C94   C     C_R   0.909546 0.749913 0.818230 1.040268
C95   C     C_R   0.908968 0.249991 0.818185 1.028599
C96   C     C_R   0.090450 0.749908 0.181780 1.039301
C97   C     C_1   0.225771 0.747554 0.469630 0.269621
C98   C     C_1   0.756374 0.247142 0.530286 0.256086
C99   C     C_1   0.774291 0.747491 0.530415 0.271537
C100  C     C_1   0.243757 0.247042 0.469761 0.262767
C101  C     C_1   0.725766 0.247552 0.469630 0.269624
C102  C     C_1   0.256380 0.747145 0.530286 0.256089
C103  C     C_1   0.274334 0.247450 0.530419 0.271491
C104  C     C_1   0.743711 0.747084 0.469757 0.262744
C105  C     C_R   0.488466 0.431363 0.043964 0.335985
C106  C     C_R   0.478908 0.568851 0.939686 0.292718
C107  C     C_R   0.510901 0.431375 0.955537 0.335694
C108  C     C_R   0.520689 0.568797 0.060011 0.292758
C109  C     C_R   0.988476 0.931363 0.043971 0.335981
C110  C     C_R   0.978920 0.068850 0.939690 0.292711
C111  C     C_R   0.010903 0.931374 0.955537 0.335686
C112  C     C_R   0.020699 0.068797 0.060014 0.292716
C113  C     C_R   0.493591 0.396224 0.047560 0.318148
C114  C     C_R   0.488989 0.603764 0.943002 0.331091
C115  C     C_R   0.506088 0.396219 0.952166 0.317630
C116  C     C_R   0.510835 0.603730 0.056856 0.330998
C117  C     C_R   0.993597 0.896224 0.047565 0.318145
C118  C     C_R   0.988996 0.103764 0.943005 0.331103
C119  C     C_R   0.006082 0.896219 0.952162 0.317642
C120  C     C_R   0.010837 0.103729 0.056857 0.330948
C121  C     C_R   0.499907 0.378310 0.999916 -0.376492
C122  C     C_R   0.499954 0.621712 0.999962 -0.366182
C123  C     C_R   0.999907 0.878310 0.999916 -0.376505
C124  C     C_R   0.999957 0.121712 0.999963 -0.366201
C125  C     C_R   0.499628 0.448938 0.999713 -0.339314
C126  C     C_R   0.499735 0.551132 0.999806 -0.317770
C127  C     C_R   0.999637 0.948938 0.999719 -0.339326
C128  C     C_R   0.999748 0.051132 0.999811 -0.317759
C129  C     C_1   0.499607 0.484982 0.999705 0.301657
C130  C     C_1   0.499642 0.515115 0.999732 0.302339
C131  C     C_1   0.999619 0.984981 0.999712 0.301649
C132  C     C_1   0.999656 0.015115 0.999739 0.302336
C133  C     C_R   0.500002 0.658937 0.000003 0.976873
C134  C     C_R   0.499993 0.341064 0.999991 0.890791
C135  C     C_R   0.000002 0.158936 0.000002 0.976862
C136  C     C_R   0.999992 0.841064 0.999991 0.890786
C137  C     C_R   0.499997 0.840930 0.000011 0.883549
C138  C     C_R   0.499999 0.159023 0.000009 0.846240
C139  C     C_R   0.999997 0.340931 0.000009 0.883513
C140  C     C_R   0.999999 0.659023 0.000009 0.846227
C141  C     C_R   0.444741 0.068742 0.956667 0.469359
C142  C     C_R   0.551657 0.931127 0.052380 0.445382
C143  C     C_R   0.555192 0.068759 0.043891 0.468708
C144  C     C_R   0.448267 0.931172 0.948350 0.448265
C145  C     C_R   0.944741 0.568743 0.956651 0.469354
C146  C     C_R   0.051672 0.431129 0.052338 0.445386
C147  C     C_R   0.055196 0.568758 0.043865 0.468722
C148  C     C_R   0.948262 0.431171 0.948335 0.448289
C149  C     C_R   0.445627 0.103992 0.955382 -0.312850
C150  C     C_R   0.550142 0.895709 0.052561 -0.302275
C151  C     C_R   0.554334 0.104011 0.044925 -0.312908
C152  C     C_R   0.449791 0.895768 0.947844 -0.291642
C153  C     C_R   0.945626 0.603993 0.955375 -0.312847
C154  C     C_R   0.050156 0.395711 0.052531 -0.302031
C155  C     C_R   0.054337 0.604010 0.044909 -0.312910
C156  C     C_R   0.949784 0.395766 0.947839 -0.291661
C157  C     C_R   0.499989 0.121879 0.000092 -0.116376
C158  C     C_R   0.499978 0.878001 0.000122 -0.116862
C159  C     C_R   0.999989 0.621879 0.000085 -0.116372
C160  C     C_R   0.999980 0.378002 0.000111 -0.116851
C161  C     C_R   0.499962 0.051177 0.000339 -0.097024
C162  C     C_R   0.499961 0.948545 0.000411 -0.070218
C163  C     C_R   0.999965 0.551177 0.000313 -0.097032
C164  C     C_R   0.999966 0.448546 0.000379 -0.070208
C165  C     C_1   0.499963 0.014990 0.000426 0.085995
C166  C     C_1   0.499969 0.984752 0.000454 0.108069
C167  C     C_1   0.999966 0.514990 0.000393 0.086006
C168  C     C_1   0.999972 0.484752 0.000419 0.108110
H1    H     H_    0.403611 0.117264 0.919397 0.176569
H2    H     H_    0.587778 0.881774 0.093655 0.201508
H3    H     H_    0.596364 0.117296 0.080827 0.176638
H4    H     H_    0.412120 0.881915 0.906601 0.202170
H5    H     H_    0.903608 0.617266 0.919396 0.176568
H6    H     H_    0.087800 0.381778 0.093620 0.201498
H7    H     H_    0.096368 0.617295 0.080811 0.176636
H8    H     H_    0.912106 0.381911 0.906608 0.202165
H9    H     H_    0.334773 0.276187 0.105958 0.209780
H10   H     H_    0.666892 0.719616 0.900282 0.188138
H11   H     H_    0.665305 0.276269 0.894134 0.209913
H12   H     H_    0.333062 0.719515 0.099628 0.188415
H13   H     H_    0.834780 0.776177 0.105968 0.209792
H14   H     H_    0.166895 0.219609 0.900289 0.188136
H15   H     H_    0.165306 0.776274 0.894141 0.209903
H16   H     H_    0.833063 0.219519 0.099634 0.188417
O1    O     O_3   0.500000 0.749960 0.000000 -0.540271
O2    O     O_3   0.500000 0.250040 0.000000 -0.523237
O3    O     O_3   0.000000 0.249960 0.000000 -0.540286
O4    O     O_3   0.000000 0.750040 0.000000 -0.523239
O5    O     O_R   0.363110 0.769570 0.960780 -0.610476
O6    O     O_R   0.636890 0.230430 0.039220 -0.642614
O7    O     O_R   0.636890 0.769570 0.039220 -0.609703
O8    O     O_R   0.363110 0.230430 0.960780 -0.642879
O9    O     O_R   0.863110 0.269570 0.960780 -0.610473
O10   O     O_R   0.136890 0.730430 0.039220 -0.642613
O11   O     O_R   0.136890 0.269570 0.039220 -0.609663
O12   O     O_R   0.863110 0.730430 0.960780 -0.642871
O13   O     O_R   0.544080 0.730330 0.149660 -0.604111
O14   O     O_R   0.455920 0.269670 0.850340 -0.615896
O15   O     O_R   0.455920 0.730330 0.850340 -0.605907
O16   O     O_R   0.544080 0.269670 0.149660 -0.615747
O17   O     O_R   0.044080 0.230330 0.149660 -0.604074
O18   O     O_R   0.955920 0.769670 0.850340 -0.615886
O19   O     O_R   0.955920 0.230330 0.850340 -0.605901
O20   O     O_R   0.044080 0.769670 0.149660 -0.615753
O21   O     O_R   0.488890 0.675130 0.039250 -0.608185
O22   O     O_R   0.511110 0.324870 0.960750 -0.618112
O23   O     O_R   0.511110 0.675130 0.960750 -0.608297
O24   O     O_R   0.488890 0.324870 0.039250 -0.617800
O25   O     O_R   0.988890 0.175130 0.039250 -0.608132
O26   O     O_R   0.011110 0.824870 0.960750 -0.618088
O27   O     O_R   0.011110 0.175130 0.960750 -0.608291
O28   O     O_R   0.988890 0.824870 0.039250 -0.617799
O29   O     O_R   0.449630 0.824780 0.960760 -0.624265
O30   O     O_R   0.550370 0.175220 0.039240 -0.670399
O31   O     O_R   0.550370 0.824780 0.039240 -0.623504
O32   O     O_R   0.449630 0.175220 0.960760 -0.670388
O33   O     O_R   0.949630 0.324780 0.960760 -0.624272
O34   O     O_R   0.050370 0.675220 0.039240 -0.670401
O35   O     O_R   0.050370 0.324780 0.039240 -0.623489
O36   O     O_R   0.949630 0.675220 0.960760 -0.670391
O37   O     O_R   0.605560 0.769560 0.149640 -0.588363
O38   O     O_R   0.394440 0.230440 0.850360 -0.593467
O39   O     O_R   0.394440 0.769560 0.850360 -0.589564
O40   O     O_R   0.605560 0.230440 0.149640 -0.593173
O41   O     O_R   0.105560 0.269560 0.149640 -0.588217
O42   O     O_R   0.894440 0.730440 0.850360 -0.593460
O43   O     O_R   0.894440 0.269560 0.850360 -0.589554
O44   O     O_R   0.105560 0.730440 0.149640 -0.593170
O45   O     O_R   0.402350 0.730330 0.039260 -0.675447
O46   O     O_R   0.597650 0.269670 0.960740 -0.615386
O47   O     O_R   0.597650 0.730330 0.960740 -0.675552
O48   O     O_R   0.402350 0.269670 0.039260 -0.615071
O49   O     O_R   0.902350 0.230330 0.039260 -0.675450
O50   O     O_R   0.097650 0.769670 0.960740 -0.615389
O51   O     O_R   0.097650 0.230330 0.960740 -0.675564
O52   O     O_R   0.902350 0.769670 0.039260 -0.615074
Zn1   Zn    Zn3+2 0.571950 0.777980 0.056050 1.071760
Zn2   Zn    Zn3+2 0.428050 0.222020 0.943950 1.018602
Zn3   Zn    Zn3+2 0.428050 0.777980 0.943950 1.071510
Zn4   Zn    Zn3+2 0.571950 0.222020 0.056050 1.018720
Zn5   Zn    Zn3+2 0.071950 0.277980 0.056050 1.071802
Zn6   Zn    Zn3+2 0.928050 0.722020 0.943950 1.018595
Zn7   Zn    Zn3+2 0.928050 0.277980 0.943950 1.071476
Zn8   Zn    Zn3+2 0.071950 0.722020 0.056050 1.018706
Zn9   Zn    Zn3+2 0.484110 0.721920 0.056070 1.046297
Zn10  Zn    Zn3+2 0.515890 0.278080 0.943930 1.044135
Zn11  Zn    Zn3+2 0.515890 0.721920 0.943930 1.046000
Zn12  Zn    Zn3+2 0.484110 0.278080 0.056070 1.044426
Zn13  Zn    Zn3+2 0.984110 0.221920 0.056070 1.046267
Zn14  Zn    Zn3+2 0.015890 0.778080 0.943930 1.044142
Zn15  Zn    Zn3+2 0.015890 0.221920 0.943930 1.045992
Zn16  Zn    Zn3+2 0.984110 0.778080 0.056070 1.044425
O53   O     O_3   0.391393 0.051211 0.911181 -0.617639
C169  C     C_3   0.345918 0.054922 0.927289 0.087592
H17   H     H_    0.299833 0.050753 0.880380 0.175940
H18   H     H_    0.344466 0.080589 0.945172 0.110643
C170  C     C_3   0.355176 0.028653 0.979305 -0.374515
H19   H     H_    0.357026 0.003196 0.961264 0.241496
H20   H     H_    0.399842 0.033378 0.027605 0.221054
C171  C     C_3   0.302554 0.029876 0.991567 -0.900832
H21   H     H_    0.300318 0.055057 0.010355 0.266471
H22   H     H_    0.310818 0.010791 0.029781 0.277006
H23   H     H_    0.257443 0.024356 0.944340 0.267912
O54   O     O_3   0.599799 0.949685 0.104693 -0.626265
C172  C     C_3   0.659405 0.936219 0.128117 0.074273
H24   H     H_    0.689649 0.957222 0.131847 0.164194
H25   H     H_    0.660261 0.917691 0.093262 0.126599
C173  C     C_3   0.687371 0.921440 0.198662 -0.314072
H26   H     H_    0.696352 0.942065 0.234499 0.233746
H27   H     H_    0.654232 0.903721 0.199259 0.245958
C174  C     C_3   0.748021 0.902968 0.222257 -0.905620
H28   H     H_    0.739431 0.881233 0.188895 0.271553
H29   H     H_    0.767888 0.893474 0.274162 0.273434
H30   H     H_    0.782126 0.920139 0.222143 0.258344
O55   O     O_3   0.608521 0.051261 0.089534 -0.618380
C175  C     C_3   0.653982 0.054797 0.073362 0.086543
H31   H     H_    0.700098 0.050903 0.120387 0.175662
H32   H     H_    0.655200 0.080328 0.054792 0.110995
C176  C     C_3   0.644980 0.028162 0.022058 -0.373015
H33   H     H_    0.643394 0.002842 0.040790 0.242100
H34   H     H_    0.600261 0.032593 0.973643 0.221625
C177  C     C_3   0.697578 0.029219 0.009746 -0.900149
H35   H     H_    0.699551 0.054253 0.990266 0.266515
H36   H     H_    0.689502 0.009861 0.972055 0.277379
H37   H     H_    0.742751 0.023991 0.057113 0.267737
O56   O     O_3   0.400090 0.949748 0.896157 -0.622038
C178  C     C_3   0.340503 0.936521 0.873596 0.056867
H38   H     H_    0.310876 0.957615 0.870908 0.165919
H39   H     H_    0.339990 0.917833 0.908426 0.125895
C179  C     C_3   0.311301 0.922059 0.802644 -0.285941
H40   H     H_    0.302621 0.942789 0.767110 0.236552
H41   H     H_    0.343565 0.904010 0.801183 0.266214
C180  C     C_3   0.250181 0.904204 0.779432 -0.909658
H42   H     H_    0.258423 0.882314 0.812331 0.268338
H43   H     H_    0.229357 0.895019 0.727166 0.277790
H44   H     H_    0.217008 0.921680 0.780630 0.257753
O57   O     O_3   0.891393 0.551213 0.911163 -0.617638
C181  C     C_3   0.845921 0.554918 0.927279 0.087576
H45   H     H_    0.799834 0.550751 0.880371 0.175942
H46   H     H_    0.844469 0.580584 0.945168 0.110645
C182  C     C_3   0.855186 0.528645 0.979290 -0.374491
H47   H     H_    0.857038 0.503190 0.961243 0.241526
H48   H     H_    0.899854 0.533370 0.027590 0.221067
C183  C     C_3   0.802567 0.529862 0.991558 -0.900771
H49   H     H_    0.800329 0.555040 0.010350 0.266470
H50   H     H_    0.810837 0.510774 0.029769 0.277028
H51   H     H_    0.757455 0.524341 0.944331 0.267898
O58   O     O_3   0.099825 0.449690 0.104633 -0.626239
C184  C     C_3   0.159426 0.436222 0.128037 0.074943
H52   H     H_    0.189664 0.457223 0.131744 0.164121
H53   H     H_    0.160266 0.417688 0.093181 0.126499
C185  C     C_3   0.187414 0.421451 0.198592 -0.314828
H54   H     H_    0.196394 0.442079 0.234422 0.233790
H55   H     H_    0.154287 0.403730 0.199205 0.245455
C186  C     C_3   0.248069 0.402986 0.222181 -0.906238
H56   H     H_    0.239478 0.381245 0.188831 0.271735
H57   H     H_    0.267952 0.393500 0.274095 0.273209
H58   H     H_    0.282159 0.420158 0.222041 0.258533
O59   O     O_3   0.108528 0.551259 0.089497 -0.618363
C187  C     C_3   0.153983 0.554802 0.073318 0.086550
H59   H     H_    0.200102 0.550904 0.120337 0.175660
H60   H     H_    0.155200 0.580336 0.054759 0.110989
C188  C     C_3   0.144972 0.528175 0.021997 -0.373018
H61   H     H_    0.143390 0.502852 0.040720 0.242087
H62   H     H_    0.100248 0.532610 0.973588 0.221621
C189  C     C_3   0.197563 0.529240 0.009672 -0.900129
H63   H     H_    0.199530 0.554277 0.990199 0.266512
H64   H     H_    0.189481 0.509887 0.971971 0.277381
H65   H     H_    0.242740 0.524009 0.057033 0.267735
O60   O     O_3   0.900077 0.449746 0.896149 -0.622063
C190  C     C_3   0.840494 0.436513 0.873587 0.056862
H66   H     H_    0.810858 0.457605 0.870890 0.165920
H67   H     H_    0.839985 0.417828 0.908423 0.125924
C191  C     C_3   0.811301 0.422047 0.802639 -0.285953
H68   H     H_    0.802608 0.442776 0.767099 0.236541
H69   H     H_    0.843577 0.404005 0.801185 0.266230
C192  C     C_3   0.750192 0.404180 0.779433 -0.909610
H70   H     H_    0.758449 0.382291 0.812338 0.268345
H71   H     H_    0.729374 0.394993 0.727170 0.277794
H72   H     H_    0.717009 0.421650 0.780628 0.257737
S1    S     S_3+6 0.470089 0.452796 0.097090 0.068337
O61   O     O_2   0.529662 0.463897 0.159234 -0.242010
O62   O     O_2   0.430078 0.482899 0.061756 -0.281747
O63   O     O_3   0.431793 0.427524 0.119620 -0.531722
H73   H     H_    0.428934 0.440418 0.153640 0.376392
S2    S     S_3+6 0.438697 0.548498 0.860033 0.073803
O64   O     O_2   0.484766 0.534090 0.846065 -0.251407
O65   O     O_2   0.398580 0.520758 0.859347 -0.266353
O66   O     O_3   0.393310 0.576252 0.799310 -0.501436
H74   H     H_    0.376301 0.563754 0.756627 0.391238
S3    S     S_3+6 0.528984 0.452862 0.902211 0.067810
O67   O     O_2   0.469283 0.464028 0.840303 -0.241621
O68   O     O_2   0.569098 0.482932 0.937549 -0.282075
O69   O     O_3   0.566999 0.427648 0.879236 -0.532274
H75   H     H_    0.569805 0.440628 0.845268 0.376539
S4    S     S_3+6 0.560745 0.548337 0.139559 0.073483
O70   O     O_2   0.514563 0.533958 0.153385 -0.251332
O71   O     O_2   0.600745 0.520558 0.140142 -0.266766
O72   O     O_3   0.606237 0.575990 0.200451 -0.502733
H76   H     H_    0.623128 0.563440 0.243060 0.391042
S5    S     S_3+6 0.970100 0.952797 0.097098 0.068343
O73   O     O_2   0.029673 0.963897 0.159242 -0.242015
O74   O     O_2   0.930091 0.982900 0.061764 -0.281747
O75   O     O_3   0.931802 0.927525 0.119625 -0.531707
H77   H     H_    0.928944 0.940419 0.153646 0.376393
S6    S     S_3+6 0.938711 0.048496 0.860038 0.073797
O76   O     O_2   0.984781 0.034088 0.846072 -0.251404
O77   O     O_2   0.898594 0.020757 0.859353 -0.266361
O78   O     O_3   0.893324 0.076250 0.799313 -0.501436
H78   H     H_    0.876314 0.063752 0.756631 0.391237
S7    S     S_3+6 0.028985 0.952859 0.902209 0.067814
O79   O     O_2   0.969283 0.964027 0.840303 -0.241608
O80   O     O_2   0.069103 0.982928 0.937546 -0.282090
O81   O     O_3   0.066994 0.927643 0.879231 -0.532265
H79   H     H_    0.069803 0.940622 0.845264 0.376542
S8    S     S_3+6 0.060756 0.048339 0.139564 0.073464
O82   O     O_2   0.014575 0.033960 0.153393 -0.251237
O83   O     O_2   0.100758 0.020561 0.140150 -0.266892
O84   O     O_3   0.106245 0.075995 0.200453 -0.502615
H80   H     H_    0.123205 0.063433 0.243058 0.391126
O85   O     O_3   0.488579 0.379284 0.095463 -0.555724
C193  C     C_3   0.548667 0.374439 0.153329 0.138837
H81   H     H_    0.570739 0.398975 0.176496 0.173462
H82   H     H_    0.578930 0.360606 0.140753 0.124376
C194  C     C_3   0.543179 0.353847 0.204378 -0.287147
H83   H     H_    0.517123 0.368528 0.221251 0.241608
H84   H     H_    0.516818 0.330483 0.180036 0.277780
C195  C     C_3   0.606823 0.344535 0.265320 -0.857611
H85   H     H_    0.632632 0.328725 0.249735 0.271854
H86   H     H_    0.600980 0.330085 0.301649 0.297889
H87   H     H_    0.634135 0.367534 0.290610 0.271393
O86   O     O_3   0.483493 0.620808 0.888952 -0.519849
C196  C     C_3   0.533987 0.612498 0.882551 0.218306
H88   H     H_    0.518587 0.616159 0.829147 0.201365
H89   H     H_    0.548757 0.585823 0.894587 0.150129
C197  C     C_3   0.590164 0.635145 0.926428 -0.379670
H90   H     H_    0.578372 0.661503 0.908467 0.269163
H91   H     H_    0.603297 0.634018 0.979495 0.230450
C198  C     C_3   0.645759 0.623922 0.923978 -0.953448
H92   H     H_    0.658879 0.597717 0.942440 0.275920
H93   H     H_    0.685761 0.640412 0.956922 0.315249
H94   H     H_    0.634796 0.625485 0.871764 0.262798
O87   O     O_3   0.511311 0.379265 0.904422 -0.556296
C199  C     C_3   0.451307 0.374316 0.846484 0.140089
H95   H     H_    0.429115 0.398813 0.823195 0.173609
H96   H     H_    0.421053 0.360432 0.859010 0.124743
C200  C     C_3   0.457051 0.353733 0.795599 -0.288874
H97   H     H_    0.483139 0.368449 0.778811 0.241755
H98   H     H_    0.483490 0.330401 0.820047 0.277557
C201  C     C_3   0.393520 0.344344 0.734560 -0.855077
H99   H     H_    0.367664 0.328519 0.750066 0.272089
H100  H     H_    0.399547 0.329885 0.698372 0.297640
H101  H     H_    0.366156 0.367311 0.709137 0.271715
O88   O     O_3   0.516412 0.620749 0.110971 -0.520080
C202  C     C_3   0.465877 0.612488 0.117338 0.218812
H102  H     H_    0.481264 0.616137 0.170740 0.201706
H103  H     H_    0.451031 0.585827 0.105269 0.150132
C203  C     C_3   0.409764 0.635177 0.073468 -0.379399
H104  H     H_    0.421596 0.661521 0.091509 0.269461
H105  H     H_    0.396686 0.634085 0.020419 0.230382
C204  C     C_3   0.354100 0.623963 0.075792 -0.953486
H106  H     H_    0.340932 0.597776 0.057230 0.275979
H107  H     H_    0.314151 0.640487 0.042866 0.315282
H108  H     H_    0.365009 0.625479 0.127989 0.262942
O89   O     O_3   0.988584 0.879284 0.095467 -0.555716
C205  C     C_3   0.048671 0.874438 0.153332 0.138839
H109  H     H_    0.070746 0.898973 0.176500 0.173453
H110  H     H_    0.078933 0.860603 0.140756 0.124372
C206  C     C_3   0.043182 0.853846 0.204381 -0.287145
H111  H     H_    0.017127 0.868528 0.221254 0.241606
H112  H     H_    0.016819 0.830483 0.180039 0.277771
C207  C     C_3   0.106825 0.844533 0.265323 -0.857628
H113  H     H_    0.132634 0.828722 0.249738 0.271853
H114  H     H_    0.100981 0.830084 0.301652 0.297886
H115  H     H_    0.134139 0.867532 0.290614 0.271391
O90   O     O_3   0.983501 0.120808 0.888956 -0.519845
C208  C     C_3   0.033998 0.112499 0.882557 0.218309
H116  H     H_    0.018602 0.116163 0.829155 0.201359
H117  H     H_    0.048765 0.085824 0.894588 0.150135
C209  C     C_3   0.090176 0.135144 0.926443 -0.379696
H118  H     H_    0.078389 0.161503 0.908483 0.269160
H119  H     H_    0.103303 0.134016 0.979507 0.230434
C210  C     C_3   0.145774 0.123920 0.924000 -0.953463
H120  H     H_    0.158892 0.097715 0.942463 0.275917
H121  H     H_    0.185776 0.140410 0.956947 0.315250
H122  H     H_    0.134817 0.125482 0.871788 0.262799
O91   O     O_3   0.011284 0.879265 0.904404 -0.556276
C211  C     C_3   0.951272 0.874320 0.846479 0.140045
H123  H     H_    0.929078 0.898819 0.823203 0.173595
H124  H     H_    0.921029 0.860434 0.859016 0.124736
C212  C     C_3   0.956992 0.853742 0.795572 -0.288820
H125  H     H_    0.983072 0.868460 0.778776 0.241788
H126  H     H_    0.983429 0.830408 0.820004 0.277560
C213  C     C_3   0.893450 0.844360 0.734543 -0.855133
H127  H     H_    0.867604 0.828532 0.750056 0.272085
H128  H     H_    0.899460 0.829907 0.698336 0.297659
H129  H     H_    0.866086 0.867329 0.709139 0.271721
O92   O     O_3   0.016403 0.120747 0.110967 -0.520036
C214  C     C_3   0.965864 0.112481 0.117324 0.218976
H130  H     H_    0.981246 0.116123 0.170726 0.201778
H131  H     H_    0.951015 0.085821 0.105240 0.150076
C215  C     C_3   0.909755 0.135173 0.073461 -0.379420
H132  H     H_    0.921590 0.161516 0.091511 0.269482
H133  H     H_    0.896680 0.134086 0.020412 0.230375
C216  C     C_3   0.854088 0.123957 0.075777 -0.953480
H134  H     H_    0.840918 0.097771 0.057207 0.275973
H135  H     H_    0.814141 0.140483 0.042855 0.315291
H136  H     H_    0.864994 0.125469 0.127973 0.262956
O93   O     O_3   0.234671 0.278688 0.890809 -0.600577
C217  C     C_3   0.176549 0.295184 0.854435 0.099650
H137  H     H_    0.181926 0.321173 0.873936 0.169969
H138  H     H_    0.139763 0.282146 0.857838 0.138180
C218  C     C_3   0.154634 0.296895 0.780392 -0.258088
H139  H     H_    0.189569 0.310550 0.775108 0.286310
H140  H     H_    0.149745 0.270945 0.760942 0.253736
C219  C     C_3   0.092242 0.314819 0.738896 -0.909992
H141  H     H_    0.056164 0.301249 0.742328 0.274805
H142  H     H_    0.077745 0.315601 0.685381 0.290214
H143  H     H_    0.096072 0.340970 0.757080 0.271589
O94   O     O_3   0.759908 0.716439 0.109488 -0.627391
C220  C     C_3   0.821299 0.708570 0.161118 0.136139
H144  H     H_    0.843805 0.731283 0.192413 0.150515
H145  H     H_    0.849380 0.699314 0.141163 0.181339
C221  C     C_3   0.818846 0.680927 0.204480 -0.339491
H146  H     H_    0.788706 0.689079 0.222413 0.258930
H147  H     H_    0.798170 0.657970 0.173371 0.246383
C222  C     C_3   0.883084 0.672468 0.265148 -0.828462
H148  H     H_    0.915434 0.666273 0.249072 0.290913
H149  H     H_    0.879738 0.650440 0.291781 0.272922
H150  H     H_    0.901572 0.693957 0.300631 0.277613
O95   O     O_3   0.765379 0.278586 0.109305 -0.599951
C223  C     C_3   0.823575 0.295003 0.145794 0.099255
H151  H     H_    0.818319 0.321023 0.126472 0.168996
H152  H     H_    0.860311 0.281961 0.142312 0.138152
C224  C     C_3   0.845488 0.296595 0.219843 -0.267139
H153  H     H_    0.810614 0.310258 0.225213 0.286497
H154  H     H_    0.850260 0.270613 0.239115 0.254997
C225  C     C_3   0.907956 0.314431 0.261468 -0.889929
H155  H     H_    0.943975 0.300852 0.257951 0.278678
H156  H     H_    0.922448 0.315125 0.314986 0.290343
H157  H     H_    0.904243 0.340611 0.243464 0.269690
O96   O     O_3   0.240060 0.716554 0.890409 -0.627164
C226  C     C_3   0.178698 0.708530 0.838918 0.136335
H158  H     H_    0.156064 0.731151 0.807359 0.150820
H159  H     H_    0.150665 0.699349 0.858986 0.181337
C227  C     C_3   0.181279 0.680746 0.795889 -0.339167
H160  H     H_    0.211294 0.688848 0.777761 0.259675
H161  H     H_    0.202167 0.657899 0.827308 0.246430
C228  C     C_3   0.117067 0.672063 0.735415 -0.827755
H162  H     H_    0.084833 0.665905 0.751667 0.290793
H163  H     H_    0.120537 0.649951 0.709056 0.272943
H164  H     H_    0.098360 0.693427 0.699633 0.278109
O97   O     O_3   0.734673 0.778696 0.890817 -0.600565
C229  C     C_3   0.676557 0.795199 0.854456 0.099667
H165  H     H_    0.681945 0.821186 0.873968 0.169966
H166  H     H_    0.639769 0.782163 0.857859 0.138177
C230  C     C_3   0.654635 0.796916 0.780411 -0.258084
H167  H     H_    0.689573 0.810567 0.775126 0.286293
H168  H     H_    0.649729 0.770967 0.760949 0.253734
C231  C     C_3   0.592250 0.814850 0.738928 -0.909998
H169  H     H_    0.556169 0.801284 0.742361 0.274819
H170  H     H_    0.577747 0.815636 0.685410 0.290193
H171  H     H_    0.596097 0.841000 0.757124 0.271581
O98   O     O_3   0.259900 0.216448 0.109491 -0.627437
C232  C     C_3   0.321289 0.208589 0.161139 0.136214
H172  H     H_    0.343789 0.231311 0.192405 0.150497
H173  H     H_    0.349374 0.199317 0.141201 0.181366
C233  C     C_3   0.318830 0.180966 0.204532 -0.339671
H174  H     H_    0.288673 0.189132 0.222436 0.258789
H175  H     H_    0.298168 0.157999 0.173457 0.246363
C234  C     C_3   0.383062 0.172525 0.265229 -0.828621
H176  H     H_    0.415427 0.166319 0.249181 0.290990
H177  H     H_    0.379712 0.150509 0.291885 0.272881
H178  H     H_    0.401530 0.194026 0.300682 0.277536
O99   O     O_3   0.265388 0.778582 0.109313 -0.599955
C235  C     C_3   0.323585 0.795000 0.145799 0.099263
H179  H     H_    0.318329 0.821019 0.126476 0.168969
H180  H     H_    0.360319 0.781955 0.142314 0.138185
C236  C     C_3   0.345503 0.796592 0.219852 -0.266921
H181  H     H_    0.310630 0.810257 0.225224 0.286477
H182  H     H_    0.350275 0.770610 0.239125 0.254978
C237  C     C_3   0.407973 0.814428 0.261474 -0.890375
H183  H     H_    0.443990 0.800848 0.257953 0.278724
H184  H     H_    0.422469 0.815121 0.314995 0.290342
H185  H     H_    0.404258 0.840608 0.243470 0.269593
O100  O     O_3   0.740071 0.216551 0.890418 -0.627178
C238  C     C_3   0.678714 0.208518 0.838928 0.136345
H186  H     H_    0.656073 0.231135 0.807357 0.150818
H187  H     H_    0.650681 0.199337 0.858996 0.181357
C239  C     C_3   0.681312 0.180730 0.795915 -0.339161
H188  H     H_    0.711325 0.188833 0.777785 0.259678
H189  H     H_    0.702209 0.157888 0.827347 0.246429
C240  C     C_3   0.617105 0.172036 0.735444 -0.827784
H190  H     H_    0.584873 0.165875 0.751696 0.290800
H191  H     H_    0.620588 0.149922 0.709097 0.272932
H192  H     H_    0.598388 0.193395 0.699651 0.278119
O101  O     O_3   0.713179 0.812901 0.998781 -0.648300
C241  C     C_3   0.761341 0.836703 0.020752 0.113992
H193  H     H_    0.742366 0.858361 0.985609 0.159029
H194  H     H_    0.801996 0.827400 0.019834 0.158632
C242  C     C_3   0.781822 0.849105 0.091072 -0.375182
H195  H     H_    0.741588 0.860889 0.089189 0.229808
H196  H     H_    0.797818 0.827598 0.126521 0.236347
C243  C     C_3   0.834200 0.874707 0.117201 -0.850537
H197  H     H_    0.875429 0.863223 0.120807 0.300712
H198  H     H_    0.847630 0.883351 0.167985 0.258063
H199  H     H_    0.818715 0.896776 0.083122 0.281990
O102  O     O_3   0.277857 0.180946 0.009906 -0.651376
C244  C     C_3   0.301139 0.168425 0.971891 0.067278
H200  H     H_    0.306029 0.140847 0.980236 0.162272
H201  H     H_    0.348969 0.177398 0.992390 0.168118
C245  C     C_3   0.257620 0.174306 0.895611 -0.349455
H202  H     H_    0.209919 0.166084 0.878505 0.217764
H203  H     H_    0.255970 0.201336 0.883623 0.278322
C246  C     C_3   0.279303 0.154992 0.856284 -0.851673
H204  H     H_    0.325843 0.163937 0.870237 0.293303
H205  H     H_    0.246221 0.159161 0.801583 0.272508
H206  H     H_    0.281215 0.127663 0.866440 0.226366
O103  O     O_3   0.286844 0.812910 0.001429 -0.648438
C247  C     C_3   0.238797 0.836712 0.980250 0.113290
H207  H     H_    0.258015 0.858213 0.015772 0.158081
H208  H     H_    0.198294 0.827297 0.981350 0.158670
C248  C     C_3   0.217892 0.849472 0.910034 -0.377748
H209  H     H_    0.257965 0.861415 0.911826 0.229247
H210  H     H_    0.201755 0.828122 0.874211 0.236658
C249  C     C_3   0.165502 0.875012 0.884659 -0.846975
H211  H     H_    0.124418 0.863360 0.881116 0.300874
H212  H     H_    0.151794 0.883945 0.833951 0.258302
H213  H     H_    0.181092 0.896915 0.919155 0.281964
O104  O     O_3   0.722038 0.180947 0.989911 -0.651667
C250  C     C_3   0.698729 0.168408 0.027888 0.067332
H214  H     H_    0.693764 0.140838 0.019447 0.162509
H215  H     H_    0.650926 0.177414 0.007431 0.168149
C251  C     C_3   0.742274 0.174222 0.104187 -0.349102
H216  H     H_    0.789966 0.166011 0.121246 0.217863
H217  H     H_    0.743940 0.201239 0.116272 0.278404
C252  C     C_3   0.720614 0.154841 0.143468 -0.851498
H218  H     H_    0.674123 0.163808 0.129640 0.293273
H219  H     H_    0.753763 0.158924 0.198184 0.272744
H220  H     H_    0.718607 0.127529 0.133140 0.226132
O105  O     O_3   0.213167 0.312901 0.998757 -0.648296
C253  C     C_3   0.261325 0.336705 0.020713 0.113983
H221  H     H_    0.242345 0.358358 0.985558 0.159026
H222  H     H_    0.301982 0.327401 0.019801 0.158629
C254  C     C_3   0.281803 0.349117 0.091026 -0.375194
H223  H     H_    0.241565 0.360902 0.089133 0.229819
H224  H     H_    0.297801 0.327615 0.126486 0.236360
C255  C     C_3   0.334175 0.374722 0.117140 -0.850520
H225  H     H_    0.375407 0.363235 0.120754 0.300731
H226  H     H_    0.347603 0.383373 0.167920 0.258072
H227  H     H_    0.318687 0.396785 0.083050 0.281996
O106  O     O_3   0.777846 0.680945 0.009889 -0.651383
C256  C     C_3   0.801131 0.668425 0.971878 0.067253
H228  H     H_    0.806021 0.640847 0.980222 0.162275
H229  H     H_    0.848962 0.677398 0.992379 0.168118
C257  C     C_3   0.757614 0.674306 0.895598 -0.349418
H230  H     H_    0.709913 0.666085 0.878490 0.217760
H231  H     H_    0.755965 0.701337 0.883612 0.278327
C258  C     C_3   0.779298 0.654991 0.856272 -0.851636
H232  H     H_    0.825838 0.663937 0.870225 0.293304
H233  H     H_    0.746216 0.659159 0.801571 0.272510
H234  H     H_    0.781213 0.627662 0.866431 0.226357
O107  O     O_3   0.786836 0.312910 0.001419 -0.648430
C259  C     C_3   0.738787 0.336711 0.980242 0.113315
H235  H     H_    0.758004 0.358212 0.015763 0.158114
H236  H     H_    0.698286 0.327294 0.981344 0.158667
C260  C     C_3   0.717879 0.349470 0.910026 -0.377759
H237  H     H_    0.757949 0.361415 0.911815 0.229256
H238  H     H_    0.701742 0.328120 0.874203 0.236657
C261  C     C_3   0.665486 0.375009 0.884651 -0.846980
H239  H     H_    0.624405 0.363357 0.881112 0.300856
H240  H     H_    0.651775 0.383941 0.833943 0.258295
H241  H     H_    0.681077 0.396912 0.919146 0.281989
O108  O     O_3   0.222033 0.680948 0.989904 -0.651653
C262  C     C_3   0.198725 0.668408 0.027882 0.067334
H242  H     H_    0.193760 0.640838 0.019440 0.162503
H243  H     H_    0.150921 0.677414 0.007426 0.168137
C263  C     C_3   0.242269 0.674222 0.104181 -0.349111
H244  H     H_    0.289961 0.666011 0.121241 0.217854
H245  H     H_    0.243937 0.701239 0.116267 0.278408
C264  C     C_3   0.220609 0.654842 0.143462 -0.851498
H246  H     H_    0.174119 0.663809 0.129634 0.293278
H247  H     H_    0.253758 0.658924 0.198179 0.272739
H248  H     H_    0.218601 0.627529 0.133134 0.226135
S9    S     S_3+6 0.092777 0.775062 0.400336 0.033791
O109  O     O_2   0.033524 0.793095 0.351339 -0.272854
O110  O     O_2   0.080036 0.748554 0.436531 -0.272693
O111  O     O_3   0.142997 0.803315 0.456150 -0.571322
H249  H     H_    0.117677 0.817963 0.466054 0.375754
S10   S     S_3+6 0.827799 0.182200 0.595668 0.064996
O112  O     O_2   0.876003 0.157272 0.642550 -0.219777
O113  O     O_2   0.765438 0.165356 0.556736 -0.269124
O114  O     O_3   0.847183 0.195898 0.542208 -0.573140
H250  H     H_    0.865352 0.176138 0.533575 0.373756
S11   S     S_3+6 0.907563 0.774612 0.599736 0.033740
O115  O     O_2   0.966807 0.792658 0.648713 -0.273067
O116  O     O_2   0.920406 0.747929 0.563934 -0.273245
O117  O     O_3   0.857519 0.802801 0.543559 -0.569165
H251  H     H_    0.882989 0.817356 0.533714 0.375939
S12   S     S_3+6 0.170776 0.182486 0.404307 0.067004
O118  O     O_2   0.121863 0.157870 0.357366 -0.219686
O119  O     O_2   0.232681 0.165161 0.443039 -0.269956
O120  O     O_3   0.151909 0.196585 0.457950 -0.569667
H252  H     H_    0.133214 0.177050 0.466508 0.373529
S13   S     S_3+6 0.592774 0.275065 0.400334 0.033751
O121  O     O_2   0.533527 0.293103 0.351336 -0.272900
O122  O     O_2   0.580022 0.248559 0.436522 -0.272754
O123  O     O_3   0.643000 0.303315 0.456154 -0.571299
H253  H     H_    0.617681 0.317964 0.466057 0.375752
S14   S     S_3+6 0.327796 0.682201 0.595666 0.064997
O124  O     O_2   0.375997 0.657271 0.642549 -0.219782
O125  O     O_2   0.265433 0.665359 0.556732 -0.269109
O126  O     O_3   0.347185 0.695897 0.542209 -0.573150
H254  H     H_    0.365350 0.676136 0.533576 0.373755
S15   S     S_3+6 0.407624 0.274551 0.599753 0.033700
O127  O     O_2   0.466855 0.292608 0.648727 -0.273149
O128  O     O_2   0.420498 0.247851 0.564008 -0.273339
O129  O     O_3   0.357589 0.302725 0.543524 -0.569016
H255  H     H_    0.383072 0.317277 0.533694 0.375945
S16   S     S_3+6 0.670890 0.682486 0.404333 0.066915
O130  O     O_2   0.622051 0.657835 0.357404 -0.219932
O131  O     O_2   0.732842 0.665211 0.443099 -0.269944
O132  O     O_3   0.651961 0.696554 0.457943 -0.569709
H256  H     H_    0.633315 0.676998 0.466512 0.373527
S17   S     S_3+6 0.010482 0.743533 0.244133 0.050966
O133  O     O_2   0.976232 0.775883 0.213951 -0.306723
O134  O     O_2   0.991494 0.718549 0.188623 -0.349324
O135  O     O_3   0.990744 0.727805 0.296023 -0.498960
H257  H     H_    0.954302 0.741055 0.287025 0.375770
S18   S     S_3+6 0.862048 0.179567 0.753927 0.105846
O136  O     O_2   0.925453 0.165529 0.779409 -0.211666
O137  O     O_2   0.855443 0.185884 0.812427 -0.340652
O138  O     O_3   0.807697 0.151473 0.702840 -0.469877
H258  H     H_    0.815664 0.131526 0.731418 0.404520
S19   S     S_3+6 0.989539 0.743228 0.756027 0.051079
O139  O     O_2   0.023934 0.775552 0.786114 -0.306744
O140  O     O_2   0.008364 0.718320 0.811624 -0.349207
O141  O     O_3   0.009268 0.727321 0.704262 -0.498710
H259  H     H_    0.045626 0.740583 0.713040 0.376134
S20   S     S_3+6 0.136730 0.179450 0.246191 0.107272
O142  O     O_2   0.073011 0.165824 0.220503 -0.212163
O143  O     O_2   0.143685 0.185470 0.187841 -0.339713
O144  O     O_3   0.190452 0.151125 0.297407 -0.469573
H260  H     H_    0.182506 0.131227 0.268726 0.404763
S21   S     S_3+6 0.510478 0.243538 0.244130 0.050966
O145  O     O_2   0.476233 0.275889 0.213945 -0.306732
O146  O     O_2   0.491488 0.218553 0.188621 -0.349299
O147  O     O_3   0.490735 0.227815 0.296018 -0.498997
H261  H     H_    0.454303 0.241072 0.287029 0.375764
S22   S     S_3+6 0.362042 0.679568 0.753924 0.105848
O148  O     O_2   0.425445 0.665528 0.779406 -0.211678
O149  O     O_2   0.355437 0.685886 0.812425 -0.340635
O150  O     O_3   0.307687 0.651476 0.702836 -0.469870
H262  H     H_    0.315659 0.631527 0.731410 0.404528
S23   S     S_3+6 0.489564 0.243199 0.756066 0.051074
O151  O     O_2   0.523960 0.275525 0.786135 -0.306761
O152  O     O_2   0.508377 0.218303 0.811680 -0.349197
O153  O     O_3   0.509310 0.227273 0.704328 -0.498748
H263  H     H_    0.545649 0.240543 0.713079 0.376156
S24   S     S_3+6 0.636852 0.679470 0.246216 0.107201
O154  O     O_2   0.573165 0.665801 0.220549 -0.212453
O155  O     O_2   0.643779 0.685508 0.187853 -0.339361
O156  O     O_3   0.690644 0.651177 0.297442 -0.469764
H264  H     H_    0.682407 0.631180 0.268916 0.404990
S25   S     S_3+6 0.234496 0.755847 0.259000 0.018815
O157  O     O_2   0.236026 0.726013 0.221052 -0.339456
O158  O     O_2   0.205494 0.784834 0.211056 -0.307201
O159  O     O_3   0.307376 0.766563 0.320122 -0.518181
H265  H     H_    0.333333 0.746725 0.326516 0.360926
S26   S     S_3+6 0.874614 0.319155 0.744574 0.028328
O160  O     O_2   0.846146 0.329687 0.783094 -0.292394
O161  O     O_2   0.943895 0.317353 0.792385 -0.337048
O162  O     O_3   0.858055 0.348379 0.685816 -0.494465
H266  H     H_    0.881838 0.341497 0.665856 0.372602
S27   S     S_3+6 0.765597 0.756218 0.741055 0.019094
O163  O     O_2   0.763869 0.726461 0.779055 -0.339686
O164  O     O_2   0.794823 0.785201 0.788963 -0.307463
O165  O     O_3   0.692786 0.767057 0.679951 -0.516495
H267  H     H_    0.666691 0.747279 0.673542 0.360484
S28   S     S_3+6 0.127743 0.319236 0.255584 0.023406
O166  O     O_2   0.156261 0.329003 0.216684 -0.337255
O167  O     O_2   0.058342 0.317979 0.208454 -0.327493
O168  O     O_3   0.145703 0.348422 0.314831 -0.496838
H268  H     H_    0.135288 0.370184 0.290792 0.371072
S29   S     S_3+6 0.734496 0.255844 0.259004 0.018815
O169  O     O_2   0.736024 0.226011 0.221054 -0.339466
O170  O     O_2   0.705497 0.284833 0.211062 -0.307200
O171  O     O_3   0.807376 0.266558 0.320128 -0.518163
H269  H     H_    0.833333 0.246722 0.326510 0.360931
S30   S     S_3+6 0.374627 0.819155 0.744577 0.028324
O172  O     O_2   0.346160 0.829689 0.783096 -0.292393
O173  O     O_2   0.443908 0.817350 0.792390 -0.337060
O174  O     O_3   0.358075 0.848379 0.685821 -0.494466
H270  H     H_    0.381857 0.841496 0.665862 0.372596
S31   S     S_3+6 0.265600 0.256222 0.741032 0.019090
O175  O     O_2   0.263866 0.226473 0.779045 -0.339686
O176  O     O_2   0.294822 0.285211 0.788925 -0.307481
O177  O     O_3   0.192791 0.267058 0.679916 -0.516431
H271  H     H_    0.166696 0.247280 0.673509 0.360479
S32   S     S_3+6 0.627505 0.819241 0.255528 0.022880
O178  O     O_2   0.655989 0.829068 0.216627 -0.336007
O179  O     O_2   0.558108 0.817903 0.208398 -0.329340
O180  O     O_3   0.645357 0.848429 0.314736 -0.497597
H272  H     H_    0.632942 0.870087 0.290257 0.371702
O181  O     O_3   0.281434 0.728958 0.401512 -0.567131
C265  C     C_3   0.285325 0.695792 0.381779 0.108090
H273  H     H_    0.334348 0.687605 0.415049 0.179342
H274  H     H_    0.275361 0.695102 0.330039 0.165896
C266  C     C_3   0.243146 0.670413 0.387905 -0.406282
H275  H     H_    0.247105 0.673733 0.436543 0.297297
H276  H     H_    0.193916 0.674787 0.347015 0.211563
C267  C     C_3   0.260090 0.634359 0.382544 -0.849572
H277  H     H_    0.255841 0.630459 0.333721 0.255227
H278  H     H_    0.228125 0.616778 0.385693 0.284831
H279  H     H_    0.308373 0.628700 0.424324 0.265684
O182  O     O_3   0.763722 0.304302 0.601120 -0.569127
C268  C     C_3   0.720748 0.311880 0.619744 0.180824
H280  H     H_    0.692066 0.333288 0.588029 0.175129
H281  H     H_    0.744520 0.320821 0.672366 0.185426
C269  C     C_3   0.677322 0.282374 0.609276 -0.455315
H282  H     H_    0.658981 0.270721 0.559456 0.300148
H283  H     H_    0.703643 0.262890 0.648321 0.214555
C270  C     C_3   0.623108 0.293909 0.614167 -0.819656
H284  H     H_    0.640557 0.305499 0.664044 0.257070
H285  H     H_    0.593639 0.272000 0.607981 0.292618
H286  H     H_    0.594214 0.312428 0.573977 0.264588
O183  O     O_3   0.718419 0.729252 0.598528 -0.565331
C271  C     C_3   0.714232 0.696146 0.618301 0.107463
H287  H     H_    0.665105 0.688106 0.585161 0.179287
H288  H     H_    0.724347 0.695508 0.670103 0.165679
C272  C     C_3   0.756028 0.670578 0.611977 -0.407001
H289  H     H_    0.751910 0.673813 0.563243 0.297280
H290  H     H_    0.805349 0.674834 0.652729 0.211577
C273  C     C_3   0.738777 0.634609 0.617436 -0.848107
H291  H     H_    0.743170 0.630793 0.666354 0.255034
H292  H     H_    0.770474 0.616885 0.614134 0.285042
H293  H     H_    0.690383 0.629066 0.575785 0.265768
O184  O     O_3   0.238141 0.303851 0.398897 -0.547033
C274  C     C_3   0.281255 0.310760 0.380149 0.158475
H294  H     H_    0.310457 0.332093 0.411621 0.175872
H295  H     H_    0.257687 0.319532 0.327432 0.180621
C275  C     C_3   0.323948 0.280826 0.390907 -0.458540
H296  H     H_    0.342147 0.269446 0.440924 0.300329
H297  H     H_    0.297111 0.261288 0.352179 0.212205
C276  C     C_3   0.378300 0.291635 0.385638 -0.811820
H298  H     H_    0.360987 0.302941 0.335560 0.256424
H299  H     H_    0.407236 0.269425 0.392057 0.291214
H300  H     H_    0.407687 0.310190 0.425515 0.265037
O185  O     O_3   0.781430 0.228954 0.401514 -0.567113
C277  C     C_3   0.785320 0.195789 0.381779 0.108118
H301  H     H_    0.834343 0.187601 0.415048 0.179341
H302  H     H_    0.775354 0.195099 0.330039 0.165897
C278  C     C_3   0.743141 0.170410 0.387906 -0.406303
H303  H     H_    0.747103 0.173729 0.436545 0.297299
H304  H     H_    0.693911 0.174785 0.347018 0.211560
C279  C     C_3   0.760083 0.134356 0.382543 -0.849580
H305  H     H_    0.755833 0.130456 0.333718 0.255230
H306  H     H_    0.728119 0.116775 0.385692 0.284822
H307  H     H_    0.808367 0.128696 0.424321 0.265691
O186  O     O_3   0.263736 0.804307 0.601120 -0.569138
C280  C     C_3   0.220762 0.811888 0.619743 0.180829
H308  H     H_    0.192081 0.833295 0.588023 0.175135
H309  H     H_    0.244535 0.820832 0.672363 0.185441
C281  C     C_3   0.177335 0.782384 0.609282 -0.455324
H310  H     H_    0.158991 0.770729 0.559463 0.300146
H311  H     H_    0.203656 0.762901 0.648329 0.214557
C282  C     C_3   0.123125 0.793923 0.614176 -0.819638
H312  H     H_    0.140577 0.805514 0.664052 0.257060
H313  H     H_    0.093654 0.772015 0.607994 0.292609
H314  H     H_    0.094230 0.812442 0.573984 0.264606
O187  O     O_3   0.218439 0.229238 0.598523 -0.565277
C283  C     C_3   0.214242 0.196136 0.618306 0.107433
H315  H     H_    0.165108 0.188105 0.585187 0.179260
H316  H     H_    0.224384 0.195501 0.670119 0.165663
C284  C     C_3   0.256005 0.170559 0.611948 -0.406962
H317  H     H_    0.251856 0.173788 0.563198 0.297293
H318  H     H_    0.305336 0.174809 0.652677 0.211564
C285  C     C_3   0.238745 0.134594 0.617425 -0.848073
H319  H     H_    0.243167 0.130783 0.666358 0.255022
H320  H     H_    0.270418 0.116863 0.614098 0.285035
H321  H     H_    0.190339 0.129057 0.575795 0.265796
O188  O     O_3   0.737924 0.803924 0.398882 -0.546890
C286  C     C_3   0.781028 0.810900 0.380150 0.159645
H322  H     H_    0.810181 0.832240 0.411651 0.175928
H323  H     H_    0.757444 0.819693 0.327444 0.180952
C287  C     C_3   0.823793 0.781008 0.390874 -0.459197
H324  H     H_    0.842005 0.769599 0.440870 0.300344
H325  H     H_    0.797006 0.761476 0.352111 0.212301
C288  C     C_3   0.878132 0.791891 0.385642 -0.811966
H326  H     H_    0.860806 0.803227 0.335585 0.256433
H327  H     H_    0.907120 0.769710 0.392035 0.291320
H328  H     H_    0.907470 0.810442 0.425552 0.264951

loop_
_geom_bond_atom_site_label_1
_geom_bond_atom_site_label_2
_ccdc_geom_bond_type
O7    Zn1   S    
C270  H286  S    
C214  H130  S    
C246  H205  S    
C116  O88   S    
C263  H244  S    
S11   O117  S    
C179  C180  S    
C240  H190  S    
S27   O163  D    
C235  C236  S    
C240  H191  S    
O94   C220  S    
O50   Zn14  S    
C41   S9    S    
O126  H254  S    
S27   O165  S    
C15   C32   S    
C182  H47   S    
C16   C31   S    
S23   O152  D    
S30   O174  S    
C273  H291  S    
C193  H81   S    
C137  C158  S    
O101  C241  S    
C4    O48   A    
C197  H91   S    
O21   Zn9   S    
C140  C159  S    
C237  H183  S    
C145  O57   S    
C208  C209  S    
C174  H28   S    
C46   S14   S    
C153  H5    S    
C228  H162  S    
C216  H136  S    
O102  C244  S    
C62   C70   A    
C245  H203  S    
C275  H296  S    
O89   C205  S    
C200  C201  S    
O4    Zn16  S    
C221  H146  S    
C169  H18   S    
S14   O126  S    
C241  H193  S    
C140  O36   A    
C279  H307  S    
C138  O30   A    
C224  H153  S    
S8    O83   D    
C233  H174  S    
C242  H196  S    
C18   C26   S    
S12   O120  S    
C189  H63   S    
S15   O128  D    
C93   O17   A    
O46   Zn10  S    
C243  H199  S    
C74   O182  S    
O1    Zn11  S    
C264  H248  S    
C60   C93   S    
S16   O131  D    
C113  O85   S    
C282  H312  S    
C256  H229  S    
C79   C87   A    
C137  O31   A    
S14   O125  D    
C258  H233  S    
C110  C118  A    
C64   C89   S    
C267  H279  S    
C73   C81   A    
S28   O166  D    
C288  H327  S    
S32   O179  D    
C9    C26   S    
C192  H70   S    
C235  H179  S    
C226  H159  S    
S5    O75   S    
O60   C190  S    
C12   C27   S    
C109  C117  A    
C284  H317  S    
C84   C100  S    
C283  C284  S    
C15   O107  S    
C13   C30   S    
C92   O40   A    
S15   O129  S    
C112  C120  A    
C244  C245  S    
C20   C28   S    
C263  C264  S    
C27   C35   S    
C227  H160  S    
O93   C217  S    
C21   C29   S    
S4    O72   S    
C80   O188  S    
O35   Zn5   S    
O37   Zn1   S    
C218  C219  S    
C23   C31   S    
C12   C40   S    
O30   Zn4   S    
C286  H322  S    
C24   C32   S    
C13   C33   S    
C265  H273  S    
C10   O102  S    
C230  C231  S    
C253  H222  S    
C274  H294  S    
C241  C242  S    
C271  C272  S    
C68   S28   S    
C16   C20   S    
C260  C261  S    
C37   H13   S    
C189  H65   S    
C225  H155  S    
C177  H35   S    
C274  C275  S    
C222  H149  S    
C79   O187  S    
O159  H265  S    
S13   O123  S    
C116  C122  A    
C7    O51   A    
C136  O26   A    
C207  H113  S    
C119  O91   S    
C217  H138  S    
S9    O109  D    
C240  H192  S    
C277  H301  S    
C123  C136  S    
O5    Zn3   S    
C33   H9    S    
C115  O87   S    
C6    O10   A    
C192  H72   S    
O90   C208  S    
C253  C254  S    
O117  H251  S    
S25   O159  S    
C198  H93   S    
S30   O172  D    
C124  C135  S    
C13   O105  S    
C287  H324  S    
C3    C26   S    
O47   Zn11  S    
C2    O6    A    
O147  H261  S    
O23   Zn11  S    
C248  C249  S    
C223  C224  S    
C119  C123  A    
C276  H300  S    
C196  H88   S    
O88   C202  S    
C54   S22   S    
C105  C125  A    
C10   C38   S    
C17   C25   S    
C211  H123  S    
O32   Zn2   S    
C80   C88   A    
O39   Zn3   S    
S28   O168  S    
C191  C192  S    
C9    C21   S    
C56   C64   A    
C150  H2    S    
C258  H232  S    
C233  C234  S    
C17   O93   S    
C11   C23   S    
C44   S12   S    
C281  H311  S    
C215  H133  S    
O103  C247  S    
C272  H290  S    
O3    Zn15  S    
C127  C131  S    
C210  H121  S    
C244  H201  S    
S10   O112  D    
O187  C283  S    
C93   O41   A    
C231  H170  S    
C251  H216  S    
C147  O59   S    
O72   H76   S    
S22   O149  D    
C52   S20   S    
C284  H318  S    
O105  C253  S    
C227  H161  S    
C143  C161  A    
C257  C258  S    
C161  C165  S    
S31   O175  D    
C187  H60   S    
C194  H84   S    
C9    O101  S    
C254  H223  S    
C115  C121  A    
C271  H287  S    
O87   C199  S    
C43   C83   A    
C43   S11   S    
S15   O127  D    
C287  C288  S    
C48   C56   A    
C108  C116  A    
C75   C83   A    
C238  H187  S    
C71   C79   A    
S18   O136  D    
S3    O69   S    
C206  H111  S    
C223  H151  S    
C214  H131  S    
C30   C38   S    
C276  H298  S    
C249  H212  S    
C149  H1    S    
C8    C29   S    
C96   O44   A    
C105  C113  A    
O123  H253  S    
C234  H177  S    
S12   O119  D    
O100  C238  S    
C51   S19   S    
C247  C248  S    
C89   O37   A    
O53   C169  S    
C152  H4    S    
O42   Zn6   S    
C284  C285  S    
O1    Zn9   S    
C95   O19   A    
C260  H237  S    
C66   C74   A    
C49   C57   A    
C185  H54   S    
C111  C119  A    
C266  H275  S    
O13   Zn9   S    
O81   H79   S    
C52   C60   A    
C59   C67   A    
C136  O28   A    
C134  O24   A    
C207  H115  S    
O1    Zn1   S    
C185  H55   S    
C195  H85   S    
S21   O146  D    
C249  H213  S    
C55   C63   A    
S9    O111  S    
C202  H103  S    
C213  H127  S    
O31   Zn1   S    
O34   Zn8   S    
C182  C183  S    
C268  H280  S    
C224  H154  S    
C170  H19   S    
C219  H142  S    
C212  C213  S    
O45   Zn9   S    
S21   O147  S    
C183  H50   S    
C6    O50   A    
C45   C53   A    
C232  H172  S    
C62   C91   S    
C236  C237  S    
C21   O97   S    
O52   Zn16  S    
S4    O71   D    
C259  H235  S    
C88   C104  S    
C243  H198  S    
C96   O20   A    
C203  H105  S    
C183  H51   S    
C35   H11   S    
C196  C197  S    
C282  H313  S    
O92   C214  S    
C154  H6    S    
C155  C159  A    
C148  C164  A    
C211  C212  S    
C156  C160  A    
C238  C239  S    
O6    Zn4   S    
C199  H95   S    
C107  C125  A    
C239  C240  S    
C267  H278  S    
S11   O115  D    
C3    O47   A    
C208  H117  S    
C191  H68   S    
C247  H207  S    
C111  S7    S    
C145  C163  A    
C169  C170  S    
C146  C164  A    
C24   O100  S    
C19   O95   S    
S20   O142  D    
O48   Zn12  S    
C261  H241  S    
C283  H316  S    
O3    Zn13  S    
O4    Zn14  S    
C58   C95   S    
O24   Zn12  S    
C65   S25   S    
C180  H42   S    
C125  C129  S    
C203  C204  S    
C286  H323  S    
S2    O65   D    
C163  C167  S    
C176  H33   S    
S7    O81   S    
C255  H225  S    
C213  H129  S    
C178  H39   S    
C220  H144  S    
C230  H168  S    
C173  H26   S    
C67   S27   S    
S29   O170  D    
S6    O78   S    
C28   C36   S    
C201  H99   S    
C285  H319  S    
C42   C50   A    
S24   O156  S    
C73   O181  S    
C259  C260  S    
C10   C25   S    
C271  H288  S    
C23   C36   S    
C204  H108  S    
O17   Zn13  S    
O19   Zn15  S    
C45   S13   S    
C14   C29   S    
C86   C102  S    
O2    Zn10  S    
C147  C155  A    
O186  C280  S    
S2    O66   S    
S9    O110  D    
C129  C130  T    
C252  H220  S    
C140  O34   A    
C270  H285  S    
O177  H271  S    
C183  H49   S    
C186  H58   S    
C263  H245  S    
C22   C30   S    
C237  H185  S    
C171  H21   S    
C217  C218  S    
C14   C34   S    
C250  C251  S    
O44   Zn8   S    
S8    O84   S    
C218  H140  S    
C89   O13   A    
C12   C24   S    
C177  H36   S    
C38   H14   S    
C185  C186  S    
C13   C17   S    
C45   C85   A    
C266  C267  S    
C108  C126  A    
C72   S32   S    
C251  C252  S    
C20   O96   S    
C229  H165  S    
C71   S31   S    
C66   S26   S    
C172  H25   S    
C147  C163  A    
C16   C36   S    
C237  H184  S    
C215  C216  S    
S26   O160  D    
O1    Zn3   S    
C195  H87   S    
C143  C151  A    
C216  H135  S    
C99   C104  T    
C224  C225  S    
C275  H297  S    
C17   C38   S    
C200  H98   S    
C190  C191  S    
O162  H266  S    
C19   C40   S    
C2    O46   A    
C212  H125  S    
C139  O35   A    
C67   C75   A    
O63   H73   S    
C273  H293  S    
C247  H208  S    
C242  H195  S    
C232  C233  S    
C110  C128  A    
O168  H268  S    
O165  H267  S    
C23   O99   S    
C189  H64   S    
C212  H126  S    
C92   O16   A    
O26   Zn14  S    
C221  C222  S    
C208  H116  S    
C25   C33   S    
C264  H247  S    
C1    O5    A    
C203  H104  S    
C174  H30   S    
C135  O27   A    
C256  H228  S    
C110  S6    S    
C275  C276  S    
C82   C98   S    
C4    O8    A    
O4    Zn6   S    
O183  C271  S    
C36   H12   S    
C199  C200  S    
O132  H256  S    
O38   Zn2   S    
C76   C84   A    
C257  H231  S    
C288  H326  S    
O49   Zn13  S    
O180  H272  S    
C278  H303  S    
C243  H197  S    
C15   C19   S    
S5    O74   D    
C138  O32   A    
O66   H74   S    
C181  H46   S    
S20   O144  S    
C151  C157  A    
C47   C55   A    
C70   C78   A    
O22   Zn10  S    
C286  C287  S    
C264  H246  S    
C180  H44   S    
C230  H167  S    
C280  C281  S    
C42   S10   S    
C205  H109  S    
C126  C130  S    
O41   Zn5   S    
C270  H284  S    
C255  H227  S    
C220  C221  S    
C209  H118  S    
S11   O116  D    
C179  H40   S    
O57   C181  S    
C278  H304  S    
C41   C49   A    
C69   S29   S    
S6    O76   D    
C257  H230  S    
C265  H274  S    
C108  S4    S    
C162  C166  S    
C280  H309  S    
C69   C77   A    
S3    O67   D    
C260  H238  S    
C57   C96   S    
C12   O104  S    
C1    C28   S    
C225  H156  S    
C272  H289  S    
C274  H295  S    
C2    C27   S    
C94   O18   A    
C59   C94   S    
C121  C134  S    
S13   O122  D    
S24   O154  D    
C97   C102  T    
C61   C92   S    
C5    C32   S    
C137  O29   A    
C254  C255  S    
C227  C228  S    
C207  H114  S    
C6    C31   S    
O11   Zn5   S    
C246  H206  S    
C146  O58   S    
C186  H56   S    
O108  C262  S    
C7    C30   S    
C83   C99   S    
C143  O55   S    
O9    Zn7   S    
C76   O184  S    
C277  H302  S    
C74   C82   A    
C171  H23   S    
O2    Zn12  S    
C219  H141  S    
C192  H71   S    
C72   C80   A    
C11   O103  S    
C4    C25   S    
C152  C158  A    
S25   O158  D    
S23   O153  S    
C241  H194  S    
C225  H157  S    
O188  C286  S    
C141  C149  A    
O91   C211  S    
C50   C58   A    
C22   O98   S    
C197  H90   S    
O3    Zn7   S    
C167  C168  T    
C248  H210  S    
C20   C39   S    
C215  H132  S    
O111  H249  S    
C262  C263  S    
C21   C34   S    
C54   C62   A    
C193  C194  S    
C252  H218  S    
O36   Zn6   S    
C100  C103  T    
C188  H61   S    
O12   Zn6   S    
C245  H202  S    
S1    O63   S    
C181  C182  S    
C118  O90   S    
S19   O139  D    
C187  C188  S    
C169  H17   S    
C120  O92   S    
C139  O33   A    
C178  H38   S    
C48   S16   S    
C175  C176  S    
C164  C168  S    
C226  H158  S    
C242  C243  S    
C41   C81   A    
C46   C54   A    
C285  H321  S    
S27   O164  D    
C178  C179  S    
O56   C178  S    
C182  H48   S    
S10   O113  D    
C144  O56   S    
O2    Zn4   S    
C8    O52   A    
S16   O130  D    
C135  O25   A    
C139  C160  S    
C256  C257  S    
C251  H217  S    
C268  H281  S    
O135  H257  S    
S14   O124  D    
C258  H234  S    
O4    Zn8   S    
C105  S1    S    
C91   O39   A    
C131  C132  T    
C288  H328  S    
S32   O178  D    
C206  C207  S    
C5    O9    A    
C194  H83   S    
C226  C227  S    
C155  H7    S    
O96   C226  S    
C156  H8    S    
C150  C158  A    
C50   S18   S    
C198  H92   S    
O153  H263  S    
C273  H292  S    
S25   O157  D    
C57   C65   A    
O86   C196  S    
C44   C84   A    
S10   O114  S    
S7    O79   D    
C142  C162  A    
C228  H164  S    
S18   O137  D    
S3    O68   D    
C90   O38   A    
S8    O82   D    
C98   C101  T    
C106  C126  A    
C107  S3    S    
C235  H180  S    
C209  C210  S    
C141  O53   S    
C170  C171  S    
S19   O140  D    
O40   Zn4   S    
C190  H66   S    
C187  H59   S    
C176  H34   S    
C239  H189  S    
C43   C51   A    
C253  H221  S    
O181  C265  S    
C11   C28   S    
O14   Zn10  S    
O182  C268  S    
C205  H110  S    
C238  H186  S    
C109  C127  A    
C8    O12   A    
C222  H150  S    
C287  H325  S    
C204  H106  S    
C261  H240  S    
C112  C128  A    
S18   O138  S    
C94   O42   A    
C148  O60   S    
O59   C187  S    
C248  H209  S    
C269  H282  S    
C60   C68   A    
C195  H86   S    
S21   O145  D    
C29   C37   S    
C112  S8    S    
C280  H308  S    
C213  H128  S    
C148  C156  A    
O141  H259  S    
S17   O134  D    
C149  C157  A    
O84   H80   S    
C219  H143  S    
C39   H15   S    
C144  C152  A    
C211  H124  S    
C40   H16   S    
C47   C87   A    
C48   C88   A    
C198  H94   S    
S23   O151  D    
S24   O155  D    
C141  C161  A    
C165  C166  T    
C236  H182  S    
C53   S21   S    
O150  H262  S    
C14   C18   S    
O107  C259  S    
C42   C82   A    
C197  C198  S    
O51   Zn15  S    
C142  C150  A    
O3    Zn5   S    
C221  H147  S    
C24   C35   S    
C244  H200  S    
C151  H3    S    
C262  H242  S    
C184  H52   S    
O75   H77   S    
C196  H89   S    
C277  C278  S    
O99   C235  S    
O10   Zn8   S    
C106  C114  A    
C245  C246  S    
C184  C185  S    
C18   C37   S    
C199  H96   S    
O174  H270  S    
C231  H171  S    
O43   Zn7   S    
O184  C274  S    
C191  H69   S    
C272  C273  S    
C133  O21   A    
C65   C73   A    
C281  H310  S    
C236  H181  S    
C234  H176  S    
S20   O143  D    
O97   C229  S    
C176  C177  S    
C16   O108  S    
S4    O70   D    
C210  H122  S    
C106  S2    S    
O28   Zn16  S    
C261  H239  S    
S1    O62   D    
O8    Zn2   S    
C26   C34   S    
S16   O132  S    
O156  H264  S    
C223  H152  S    
C231  H169  S    
S7    O80   D    
C109  S5    S    
C200  H97   S    
O25   Zn13  S    
S22   O148  D    
C19   C27   S    
C172  H24   S    
C201  H100  S    
O185  C277  S    
O15   Zn11  S    
C194  C195  S    
C91   O15   A    
C78   C86   A    
C32   C40   S    
C204  H107  S    
C5    O49   A    
C269  H283  S    
C278  C279  S    
C53   C61   A    
S30   O173  D    
O138  H258  S    
C49   S17   S    
C128  C132  S    
C15   C35   S    
C268  C269  S    
C58   C66   A    
C209  H119  S    
C252  H219  S    
C214  C215  S    
C186  H57   S    
C262  H243  S    
C249  H211  S    
C206  H112  S    
C117  O89   S    
C234  H178  S    
S12   O118  D    
C201  H101  S    
C171  H22   S    
S19   O141  S    
C228  H163  S    
C250  H215  S    
C114  O86   S    
O104  C250  S    
O54   C172  S    
C118  C124  A    
C265  C266  S    
S31   O176  D    
C218  H139  S    
C10   C22   S    
C246  H204  S    
C255  H226  S    
C266  H276  S    
O20   Zn16  S    
C153  C159  A    
C188  H62   S    
C146  C154  A    
O33   Zn7   S    
C122  C133  S    
C154  C160  A    
C3    O7    A    
S26   O161  D    
C202  H102  S    
C56   S24   S    
C173  C174  S    
O95   C223  S    
S31   O177  S    
C55   S23   S    
S22   O150  S    
C9    C37   S    
C216  H134  S    
C202  C203  S    
C113  C121  A    
C142  O54   S    
C68   C76   A    
C175  H31   S    
C11   C39   S    
O16   Zn12  S    
C190  H67   S    
C134  O22   A    
C107  C115  A    
C177  H37   S    
C233  H175  S    
C279  H305  S    
O18   Zn14  S    
O55   C175  S    
C175  H32   S    
O69   H75   S    
C232  H173  S    
C111  C127  A    
O129  H255  S    
C87   C103  S    
C229  C230  S    
C51   C59   A    
C222  H148  S    
C85   C101  S    
O58   C184  S    
S26   O162  S    
C77   O185  S    
O78   H78   S    
S29   O169  D    
S17   O135  S    
C61   C69   A    
C145  C153  A    
C174  H29   S    
C22   C33   S    
S17   O133  D    
C282  H314  S    
C193  H82   S    
C144  C162  A    
S29   O171  S    
C173  H27   S    
C276  H299  S    
C63   C71   A    
C267  H277  S    
O29   Zn3   S    
C44   C52   A    
S32   O180  S    
C14   O106  S    
C239  H188  S    
C90   O14   A    
C133  O23   A    
C18   O94   S    
S5    O73   D    
C281  C282  S    
C259  H236  S    
C188  C189  S    
C70   S30   S    
C283  H315  S    
C95   O43   A    
C117  C123  A    
C47   S15   S    
C210  H120  S    
C180  H43   S    
O114  H250  S    
C138  C157  S    
O144  H260  S    
S2    O64   D    
O85   C193  S    
C184  H53   S    
C81   C97   S    
O171  H269  S    
C229  H166  S    
C78   O186  S    
C63   C90   S    
C279  H306  S    
O106  C256  S    
C220  H145  S    
C31   C39   S    
C179  H41   S    
C64   C72   A    
C172  C173  S    
S6    O77   D    
C217  H137  S    
C34   H10   S    
C269  C270  S    
C77   C85   A    
C250  H214  S    
C114  C122  A    
C75   O183  S    
C1    O45   A    
O120  H252  S    
O98   C232  S    
C254  H224  S    
C181  H45   S    
S1    O61   D    
C285  H320  S    
O27   Zn15  S    
S13   O121  D    
C170  H20   S    
C7    O11   A    
O2    Zn2   S    
C120  C124  A    
S28   O167  D    
C46   C86   A    
C205  C206  S    
