data_mof_unit_25113.cif
_audit_creation_date              2012-12-10T19:45:51-0500
_audit_creation_method            fapswitch 2.2
_symmetry_space_group_name_H-M    P1
_symmetry_Int_Tables_number       1
_space_group_crystal_system       triclinic
_cell_length_a                    10.759383
_cell_length_b                    15.004975
_cell_length_c                    14.277078
_cell_angle_alpha                 90.365626
_cell_angle_beta                  103.997381
_cell_angle_gamma                 90.411785
_cell_volume                      2236.37495275

loop_
_atom_site_label
_atom_site_type_symbol
_atom_type_description
_atom_site_fract_x
_atom_site_fract_y
_atom_site_fract_z
_atom_type_partial_charge
C1    C     C_R   0.502636 0.328460 0.499983 0.857413
C2    C     C_R   0.493555 0.672074 0.499164 0.838962
C3    C     C_R   0.478843 0.049554 0.492177 0.105279
C4    C     C_R   0.470778 0.952876 0.490046 0.109857
C5    C     C_R   0.385306 0.475679 0.084055 -0.138100
C6    C     C_R   0.552722 0.571960 0.906184 -0.133698
C7    C     C_R   0.391032 0.473368 0.185026 0.250365
C8    C     C_R   0.556019 0.569484 0.806730 0.272908
C9    C     C_R   0.607562 0.521903 0.221430 0.305376
C10   C     C_R   0.444749 0.430719 0.785251 0.307123
C11   C     C_R   0.608848 0.514742 0.123418 -0.337707
C12   C     C_R   0.450012 0.427708 0.884811 -0.320488
C13   C     C_R   0.497049 0.495964 0.052329 0.051146
C14   C     C_R   0.499358 0.499208 0.946400 0.049267
C15   C     C_R   0.259019 0.497103 0.459659 0.931314
C16   C     C_R   0.740914 0.497647 0.540434 0.943760
C17   C     C_2   0.122168 0.486211 0.436878 -0.403486
C18   C     C_2   0.877661 0.488464 0.563868 -0.403888
C19   C     C_2   0.067886 0.469519 0.509294 -0.185909
C20   C     C_2   0.932174 0.468538 0.492464 -0.114770
C21   C     C_R   0.380830 0.100161 0.514386 -0.179933
C22   C     C_R   0.515758 0.905429 0.420732 -0.186690
C23   C     C_R   0.391846 0.191888 0.518884 -0.228276
C24   C     C_R   0.521637 0.813983 0.424933 -0.217744
C25   C     C_R   0.498121 0.233373 0.497540 -0.055770
C26   C     C_R   0.478191 0.768048 0.496081 -0.077257
C27   C     C_R   0.595599 0.183510 0.472321 -0.018747
C28   C     C_R   0.421222 0.815057 0.561244 0.000911
C29   C     C_R   0.586688 0.091382 0.472951 -0.214362
C30   C     C_R   0.422317 0.907836 0.559095 -0.219563
H1    H     H_    0.876794 0.456926 0.419207 0.201837
H2    H     H_    0.123175 0.464011 0.583353 0.201128
H3    H     H_    0.697580 0.527588 0.102752 0.164401
H4    H     H_    0.414848 0.369004 0.913889 0.166714
H5    H     H_    0.933353 0.499224 0.637576 0.140549
H6    H     H_    0.066241 0.492554 0.362835 0.148950
H7    H     H_    0.295559 0.069087 0.527506 0.131076
H8    H     H_    0.549046 0.939077 0.364345 0.129350
H9    H     H_    0.315890 0.230780 0.536442 0.142234
H10   H     H_    0.562096 0.779441 0.372866 0.155267
H11   H     H_    0.663975 0.052370 0.457631 0.136598
H12   H     H_    0.384416 0.945027 0.611099 0.128996
N1    N     N_R   0.500000 0.499980 0.252470 -0.114832
N2    N     N_R   0.500000 0.500020 0.747530 -0.121102
O1    O     O_R   0.500010 0.369070 0.579480 -0.612311
O2    O     O_R   0.499990 0.630930 0.420520 -0.615508
O3    O     O_R   0.500010 0.369060 0.420520 -0.619197
O4    O     O_R   0.499990 0.630940 0.579480 -0.582958
O5    O     O_R   0.317810 0.500010 0.549800 -0.596015
O6    O     O_R   0.682190 0.499990 0.450200 -0.583693
O7    O     O_R   0.317810 0.500000 0.390840 -0.593079
O8    O     O_R   0.682190 0.500000 0.609160 -0.617967
Zn1   Zn    Zn3+2 0.500000 0.500010 0.606140 0.968903
Zn2   Zn    Zn3+2 0.500000 0.499990 0.393860 0.960325
C31   C     C_R   0.706863 0.223982 0.444082 0.093232
C32   C     C_R   0.692213 0.259912 0.351464 -0.088546
C33   C     C_R   0.799560 0.287428 0.319882 -0.177853
C34   C     C_R   0.922245 0.277949 0.379886 -0.119789
C35   C     C_R   0.937546 0.242829 0.472395 -0.108710
C36   C     C_R   0.830313 0.215787 0.504468 -0.173925
H13   H     H_    0.598183 0.264327 0.302827 0.125498
H14   H     H_    0.787750 0.314997 0.248419 0.125894
H15   H     H_    0.005364 0.298607 0.355078 0.129251
H16   H     H_    0.032578 0.235832 0.518864 0.119216
H17   H     H_    0.843503 0.186660 0.575375 0.128098
C37   C     C_R   0.351479 0.771379 0.626853 0.132716
C38   C     C_R   0.252914 0.709194 0.590430 -0.080367
C39   C     C_R   0.180549 0.673643 0.650714 -0.123866
C40   C     C_R   0.204530 0.700628 0.747219 -0.128362
C41   C     C_R   0.300337 0.763631 0.783573 -0.147524
C42   C     C_R   0.373668 0.798810 0.723961 -0.185182
H18   H     H_    0.230426 0.689649 0.515024 0.097646
H19   H     H_    0.103980 0.626675 0.622215 0.135578
H20   H     H_    0.147348 0.674058 0.793352 0.119748
H21   H     H_    0.316414 0.786445 0.857532 0.126887
H22   H     H_    0.447328 0.847856 0.753434 0.127095
C43   C     C_R   0.261306 0.460233 0.013125 0.149275
C44   C     C_R   0.191418 0.532740 0.966557 -0.145853
C45   C     C_R   0.073509 0.518553 0.900659 -0.167424
C46   C     C_R   0.025047 0.432063 0.880462 -0.117183
C47   C     C_R   0.094153 0.359580 0.926563 -0.147645
C48   C     C_R   0.211811 0.373496 0.992828 -0.173697
H23   H     H_    0.227595 0.600085 0.981917 0.109220
H24   H     H_    0.019412 0.574606 0.865523 0.117187
H25   H     H_    0.934004 0.421225 0.829148 0.124515
H26   H     H_    0.056791 0.292570 0.910687 0.126353
H27   H     H_    0.265225 0.316771 0.027267 0.123951
C49   C     C_R   0.602651 0.651089 0.966967 0.141754
C50   C     C_R   0.518648 0.705287 0.002880 -0.135209
C51   C     C_R   0.565662 0.778162 0.062763 -0.158872
C52   C     C_R   0.696980 0.796958 0.087909 -0.115776
C53   C     C_R   0.781529 0.742427 0.053853 -0.147307
C54   C     C_R   0.734772 0.669463 0.994001 -0.176463
H28   H     H_    0.417142 0.690391 0.985367 0.111943
H29   H     H_    0.500394 0.819677 0.090224 0.122934
H30   H     H_    0.733359 0.853122 0.134698 0.120994
H31   H     H_    0.883446 0.756102 0.074705 0.124685
H32   H     H_    0.801668 0.625845 0.971094 0.131819
N3    N     N_2   0.282094 0.443873 0.216341 -0.262066
H33   H     H_    0.195474 0.469802 0.179925 0.207927
C55   C     C_3   0.277133 0.349581 0.236908 -0.720437
H34   H     H_    0.200680 0.316151 0.181252 0.200954
H35   H     H_    0.253678 0.340802 0.307824 0.242037
H36   H     H_    0.369747 0.316232 0.238993 0.226438
N4    N     N_2   0.612108 0.641693 0.766921 -0.251100
H37   H     H_    0.591426 0.704184 0.788933 0.221208
C56   C     C_3   0.745286 0.632233 0.764732 -0.744216
H38   H     H_    0.806207 0.679415 0.816650 0.198316
H39   H     H_    0.756655 0.649587 0.691859 0.248795
H40   H     H_    0.780169 0.563356 0.782587 0.227464
N5    N     N_2   0.719212 0.554857 0.286947 -0.269973
H41   H     H_    0.803320 0.531022 0.274060 0.184692
C57   C     C_3   0.722843 0.650505 0.301837 -0.706364
H42   H     H_    0.796402 0.681246 0.269042 0.210334
H43   H     H_    0.748627 0.665272 0.380454 0.237756
H44   H     H_    0.629087 0.681640 0.268942 0.230847
N6    N     N_2   0.383819 0.360241 0.724016 -0.255450
H45   H     H_    0.439725 0.304060 0.729706 0.222212
C58   C     C_3   0.253508 0.339645 0.728018 -0.813259
H46   H     H_    0.253042 0.295956 0.790439 0.227564
H47   H     H_    0.204080 0.303968 0.660900 0.229395
H48   H     H_    0.199875 0.401453 0.734628 0.254033

loop_
_geom_bond_atom_site_label_1
_geom_bond_atom_site_label_2
_ccdc_geom_bond_type
C9    N5    S    
C31   C32   A    
C55   H34   S    
C27   C29   A    
C19   C20   S    
C8    N4    S    
C47   C48   A    
C51   C52   A    
C51   H29   S    
C43   C44   A    
C2    O2    A    
N4    C56   S    
C35   H16   S    
O6    Zn2   S    
C7    N3    S    
C24   C26   A    
N6    C58   S    
C45   H24   S    
C27   C31   S    
C48   H27   S    
C22   H8    S    
C6    C49   S    
C32   C33   A    
C38   H18   S    
C50   H28   S    
C3    C29   A    
C17   C19   D    
C52   H30   S    
N2    Zn1   S    
N3    H33   S    
C39   C40   A    
C56   H38   S    
C41   C42   A    
C17   H6    S    
C7    N1    A    
C18   H5    S    
C5    C13   A    
C47   H26   S    
C57   H44   S    
C23   C25   A    
C37   C38   A    
O1    Zn1   S    
C35   C36   A    
C55   H35   S    
C31   C36   A    
C1    C25   S    
C56   H39   S    
C19   H2    S    
C44   H23   S    
C53   H31   S    
C58   H47   S    
O4    Zn1   S    
C9    N1    A    
C10   N2    A    
C38   C39   A    
C16   O8    A    
C11   H3    S    
N5    C57   S    
C52   C53   A    
C5    C7    A    
C44   C45   A    
C1    O3    A    
C6    C8    A    
C2    O4    A    
C39   H19   S    
C28   C37   S    
C46   H25   S    
C6    C14   A    
C4    C22   A    
N1    Zn2   S    
C37   C42   A    
O2    Zn2   S    
C40   H20   S    
C2    C26   S    
C9    C11   A    
C10   C12   A    
O3    Zn2   S    
N3    C55   S    
C12   C14   A    
C36   H17   S    
C55   H36   S    
C15   O7    A    
C21   C23   A    
C56   H40   S    
C22   C24   A    
C3    C21   A    
C33   H14   S    
C5    C43   S    
C3    C4    S    
O8    Zn1   S    
C57   H42   S    
C58   H48   S    
C34   H15   S    
C15   C17   S    
C49   C54   A    
N5    H41   S    
C29   H11   S    
C8    N2    A    
C16   O6    A    
C46   C47   A    
C58   H46   S    
C25   C27   A    
N4    H37   S    
C26   C28   A    
O7    Zn2   S    
C28   C30   A    
C34   C35   A    
C10   N6    S    
N6    H45   S    
C11   C13   A    
C1    O1    A    
C33   C34   A    
C42   H22   S    
C43   C48   A    
O5    Zn1   S    
C53   C54   A    
C24   H10   S    
C18   C20   D    
C15   O5    A    
C40   C41   A    
C45   C46   A    
C21   H7    S    
C49   C50   A    
C16   C18   S    
C41   H21   S    
C32   H13   S    
C30   H12   S    
C50   C51   A    
C13   C14   S    
C12   H4    S    
C54   H32   S    
C23   H9    S    
C4    C30   A    
C57   H43   S    
C20   H1    S    
