data_mof_unit_35866.cif
_audit_creation_date              2012-12-10T18:52:13-0500
_audit_creation_method            fapswitch 2.2
_symmetry_space_group_name_H-M    P1
_symmetry_Int_Tables_number       1
_space_group_crystal_system       triclinic
_cell_length_a                    15.725474
_cell_length_b                    10.715307
_cell_length_c                    9.821515
_cell_angle_alpha                 88.646829
_cell_angle_beta                  90.576571
_cell_angle_gamma                 90.325544
_cell_volume                      1654.38767701

loop_
_atom_site_label
_atom_site_type_symbol
_atom_type_description
_atom_site_fract_x
_atom_site_fract_y
_atom_site_fract_z
_atom_type_partial_charge
C1    C     C_R   0.501539 0.259931 0.501432 1.033935
C2    C     C_R   0.498571 0.740123 0.497646 1.016659
C3    C     C_R   0.536571 0.939713 0.386798 0.405375
C4    C     C_R   0.455404 0.060787 0.602132 0.379269
C5    C     C_R   0.493539 0.872679 0.490704 -0.422979
C6    C     C_R   0.502080 0.127312 0.502816 -0.415132
C7    C     C_R   0.559825 0.566057 0.071584 -0.349087
C8    C     C_R   0.440382 0.433527 0.928393 -0.320405
C9    C     C_R   0.560819 0.565429 0.926605 0.598117
C10   C     C_R   0.439382 0.434084 0.073529 0.555831
C11   C     C_R   0.337851 0.499920 0.499325 0.889205
C12   C     C_R   0.662133 0.500319 0.500644 0.913981
C13   C     C_3   0.971865 0.390699 0.558141 -0.390578
C14   C     C_3   0.028255 0.604470 0.435671 -0.312342
C15   C     C_3   0.026870 0.398293 0.427229 0.079822
C16   C     C_3   0.973875 0.597712 0.566283 0.095607
C17   C     C_1   0.249058 0.499393 0.497676 -0.160628
C18   C     C_1   0.750890 0.500386 0.501903 -0.152275
C19   C     C_3   0.029175 0.490644 0.623528 0.561934
C20   C     C_3   0.970470 0.504962 0.370367 0.570165
C21   C     C_3   0.083033 0.497440 0.495125 -0.035637
C22   C     C_3   0.916808 0.499096 0.499354 -0.068227
C23   C     C_1   0.173836 0.498631 0.496232 0.073446
C24   C     C_1   0.826081 0.500086 0.501598 0.034653
C25   C     C_R   0.544978 0.068004 0.397627 0.379769
C26   C     C_R   0.447820 0.932784 0.591623 0.363686
H1    H     H_    0.946565 0.304234 0.607707 0.194791
H2    H     H_    0.053029 0.690387 0.384212 0.197244
H3    H     H_    0.606001 0.620385 0.127308 0.202251
H4    H     H_    0.394221 0.379508 0.872384 0.194764
N1    N     N_R   0.499980 0.499970 0.857200 -0.130959
N2    N     N_R   0.500020 0.500030 0.142800 -0.138634
O1    O     O_R   0.499990 0.316750 0.614620 -0.607481
O2    O     O_R   0.500010 0.683250 0.385380 -0.619858
O3    O     O_R   0.500000 0.316780 0.385290 -0.579818
O4    O     O_R   0.500000 0.683220 0.614710 -0.540329
O5    O     O_R   0.376780 0.499970 0.614640 -0.607265
O6    O     O_R   0.623220 0.500030 0.385360 -0.615399
O7    O     O_R   0.376780 0.500000 0.385310 -0.588279
O8    O     O_R   0.623220 0.500000 0.614690 -0.594545
Zn1   Zn    Zn3+2 0.500000 0.499980 0.653120 1.021582
Zn2   Zn    Zn3+2 0.500000 0.500020 0.346880 0.994051
I1    I     I_    0.077006 0.238917 0.328671 -0.387017
I2    I     I_    0.931461 0.757000 0.673098 -0.325110
O9    O     O_3   0.937902 0.523939 0.236927 -0.591350
C27   C     C_3   0.895786 0.415747 0.191986 -0.276691
H5    H     H_    0.858808 0.366411 0.273086 0.176303
H6    H     H_    0.942104 0.351177 0.147303 0.188410
H7    H     H_    0.850187 0.443420 0.109941 0.173027
O10   O     O_3   0.067378 0.486613 0.754220 -0.586936
C28   C     C_3   0.006875 0.448212 0.851545 -0.239404
H8    H     H_    0.991945 0.347281 0.842141 0.158861
H9    H     H_    0.947617 0.504337 0.843992 0.167839
H10   H     H_    0.034525 0.461607 0.954554 0.216722
O11   O     O_3   0.607642 0.132130 0.325051 -0.567851
C29   C     C_3   0.579986 0.162255 0.190971 -0.182162
H11   H     H_    0.606014 0.255486 0.161896 0.169864
H12   H     H_    0.509544 0.167743 0.178613 0.149589
H13   H     H_    0.606615 0.094912 0.119031 0.166911
O12   O     O_3   0.397986 0.866184 0.683671 -0.576888
C30   C     C_3   0.316421 0.850279 0.625461 -0.197014
H14   H     H_    0.276513 0.796350 0.698704 0.196256
H15   H     H_    0.319071 0.796237 0.530185 0.113138
H16   H     H_    0.285001 0.941817 0.605409 0.187075
O13   O     O_3   0.578456 0.879647 0.283760 -0.551522
C31   C     C_3   0.524362 0.874048 0.167489 -0.261482
H17   H     H_    0.482035 0.956210 0.152869 0.108238
H18   H     H_    0.564421 0.868049 0.075550 0.186775
H19   H     H_    0.483484 0.789660 0.171273 0.196491
O14   O     O_3   0.411481 0.121664 0.702380 -0.566476
C32   C     C_3   0.456487 0.107505 0.827041 -0.218828
H20   H     H_    0.420751 0.155028 0.907388 0.170376
H21   H     H_    0.520672 0.151443 0.820955 0.145814
H22   H     H_    0.462368 0.007956 0.860065 0.184746
O15   O     O_3   0.618544 0.637147 0.852849 -0.574538
C33   C     C_3   0.702613 0.606518 0.892299 -0.280603
H23   H     H_    0.746220 0.640961 0.811499 0.219112
H24   H     H_    0.712224 0.503758 0.903424 0.133142
H25   H     H_    0.720977 0.653957 0.987597 0.174453
O16   O     O_3   0.382219 0.361761 0.147894 -0.597982
C34   C     C_3   0.297937 0.385551 0.104218 -0.256980
H26   H     H_    0.254296 0.353776 0.186143 0.218688
H27   H     H_    0.281968 0.331200 0.012451 0.170741
H28   H     H_    0.285875 0.486939 0.085290 0.159984

loop_
_geom_bond_atom_site_label_1
_geom_bond_atom_site_label_2
_ccdc_geom_bond_type
C31   H18   S    
O11   C29   S    
C7    H3    S    
O2    Zn2   S    
C33   H25   S    
C4    O14   S    
C34   H26   S    
C1    O1    A    
O9    C27   S    
C27   H7    S    
C17   C23   T    
C18   C24   T    
C14   C21   S    
C19   C21   S    
C33   H24   S    
O6    Zn2   S    
C6    C25   A    
C29   H11   S    
C11   O5    A    
C30   H15   S    
O3    Zn2   S    
O14   C32   S    
C16   I2    S    
C20   O9    S    
C8    H4    S    
C2    O2    A    
C31   H17   S    
C12   O6    A    
O4    Zn1   S    
C3    O13   S    
C34   H27   S    
O7    Zn2   S    
C15   C20   S    
C27   H6    S    
C13   C19   S    
C1    C6    S    
C14   C20   S    
C3    C25   A    
C33   H23   S    
C4    C6    A    
C32   H21   S    
C10   O16   S    
C28   H8    S    
O12   C30   S    
C28   H9    S    
C12   O8    A    
C30   H16   S    
O15   C33   S    
O10   C28   S    
C11   O7    A    
O8    Zn1   S    
C20   C22   S    
C21   C23   S    
C22   C24   S    
C2    C5    S    
C34   H28   S    
C1    O3    A    
C2    O4    A    
C7    C9    A    
C27   H5    S    
C11   C17   S    
C16   C22   S    
C7    N2    A    
N1    Zn1   S    
C8    N1    A    
C25   O11   S    
O16   C34   S    
C3    C5    A    
C32   H22   S    
C4    C26   A    
C29   H13   S    
C28   H10   S    
O1    Zn1   S    
C13   C15   S    
C15   I1    S    
C32   H20   S    
C19   O10   S    
C16   C19   S    
C29   H12   S    
C13   C22   S    
C14   C16   S    
O5    Zn1   S    
C30   H14   S    
C9    N1    A    
C5    C26   A    
C31   H19   S    
C10   N2    A    
C15   C21   S    
C8    C10   A    
O13   C31   S    
C12   C18   S    
N2    Zn2   S    
C13   H1    S    
C9    O15   S    
C14   H2    S    
C26   O12   S    
