data_mof_unit_40445.cif
_audit_creation_date              2012-12-11T14:54:33-0500
_audit_creation_method            fapswitch 2.2
_symmetry_space_group_name_H-M    P1
_symmetry_Int_Tables_number       1
_space_group_crystal_system       triclinic
_cell_length_a                    18.963774
_cell_length_b                    10.95945
_cell_length_c                    18.740105
_cell_angle_alpha                 90.025946
_cell_angle_beta                  90.152985
_cell_angle_gamma                 90.025401
_cell_volume                      3894.7888222

loop_
_atom_site_label
_atom_site_type_symbol
_atom_type_description
_atom_site_fract_x
_atom_site_fract_y
_atom_site_fract_z
_atom_type_partial_charge
C1    C     C_R   0.731764 0.381575 0.647924 0.559236
C2    C     C_R   0.309015 0.899284 0.466728 -0.149290
C3    C     C_R   0.952427 0.568326 0.474294 -0.151518
C4    C     C_3   0.918003 0.049206 0.448379 -0.105089
C5    C     C_3   0.119341 0.142029 0.585555 -0.104713
C6    C     C_3   0.409772 0.581840 0.443323 -0.112004
C7    C     C_3   0.633181 0.657860 0.595024 -0.100566
C8    C     C_3   0.442938 0.448195 0.068620 -0.024442
C9    C     C_3   0.557319 0.458460 0.935322 -0.014821
C10   C     C_3   0.942942 0.948193 0.068625 -0.024355
C11   C     C_3   0.057317 0.958471 0.935324 -0.014596
C12   C     C_R   0.176951 0.431901 0.527354 -0.132343
C13   C     C_R   0.800624 0.386607 0.463488 -0.162917
C14   C     C_R   0.685458 0.907157 0.454606 -0.191724
C15   C     C_R   0.304254 0.874787 0.539117 -0.196414
C16   C     C_R   0.186104 0.401049 0.455712 -0.191682
C17   C     C_R   0.796488 0.361287 0.535585 -0.203543
C18   C     C_R   0.747808 0.940700 0.419595 0.039355
C19   C     C_R   0.256623 0.939076 0.581720 0.043015
C20   C     C_R   0.245991 0.441816 0.418971 0.038448
C21   C     C_R   0.268819 0.381534 0.352702 0.558529
C22   C     C_R   0.755840 0.434296 0.580598 0.040519
C23   C     C_R   0.797261 0.017422 0.454728 0.273021
C24   C     C_R   0.222738 0.043882 0.554220 0.273514
C25   C     C_R   0.291942 0.527011 0.452013 0.277531
C26   C     C_R   0.727697 0.545106 0.555239 0.278105
C27   C     C_R   0.789117 0.039704 0.526904 -0.123491
C28   C     C_R   0.230078 0.070758 0.481347 -0.125040
C29   C     C_R   0.283824 0.551362 0.524408 -0.126864
C30   C     C_R   0.734522 0.572894 0.482466 -0.120271
C31   C     C_R   0.730244 0.997761 0.563559 -0.008073
C32   C     C_R   0.231881 0.882257 0.648069 0.555698
C33   C     C_R   0.269501 0.994228 0.436761 -0.021372
C34   C     C_R   0.229047 0.499387 0.563180 -0.017302
C35   C     C_R   0.767912 0.490829 0.436057 -0.027117
C36   C     C_R   0.484377 0.054325 0.959449 0.190219
C37   C     C_R   0.497717 0.049371 0.032673 0.192613
C38   C     C_R   0.984383 0.554330 0.959453 0.189989
C39   C     C_R   0.997726 0.549376 0.032677 0.192529
C40   C     C_R   0.496774 0.160239 0.072584 -0.054486
C41   C     C_R   0.496901 0.164968 0.923047 -0.042449
C42   C     C_R   0.996781 0.660243 0.072588 -0.054428
C43   C     C_R   0.769088 0.881329 0.352775 0.554980
C44   C     C_R   0.996905 0.664971 0.923050 -0.042367
C45   C     C_R   0.500085 0.273299 0.036372 0.190609
C46   C     C_R   0.501472 0.275693 0.961135 0.199286
C47   C     C_R   0.000092 0.773303 0.036375 0.190603
C48   C     C_R   0.001477 0.775697 0.961138 0.199281
C49   C     C_R   0.531905 0.155573 0.646758 0.542028
C50   C     C_R   0.465229 0.154136 0.355105 0.541212
C51   C     C_R   0.032659 0.655637 0.646443 0.542181
C52   C     C_R   0.965548 0.654178 0.354709 0.539910
C53   C     C_R   0.784173 0.028339 0.974026 -0.143454
C54   C     C_3   0.561333 0.345509 0.448947 -0.278649
C55   C     C_R   0.274599 0.035141 0.022515 -0.099270
C56   C     C_R   0.284165 0.528352 0.974029 -0.143479
C57   C     C_R   0.774589 0.535156 0.022513 -0.099232
C58   C     C_R   0.781555 0.017816 0.047147 -0.170647
C59   C     C_R   0.267485 0.015505 0.949730 -0.091936
C60   C     C_R   0.281548 0.517824 0.047150 -0.170604
C61   C     C_R   0.767474 0.515519 0.949728 -0.092056
C62   C     C_R   0.748781 0.916720 0.077227 0.038814
C63   C     C_R   0.243903 0.902159 0.926164 0.071135
C64   C     C_R   0.248781 0.416720 0.077228 0.038763
C65   C     C_3   0.571761 0.350250 0.528833 -0.249556
C66   C     C_R   0.743905 0.402165 0.926161 0.071072
C67   C     C_R   0.710854 0.834581 0.034035 -0.076416
C68   C     C_R   0.225457 0.810200 0.974815 -0.123415
C69   C     C_R   0.210862 0.334573 0.034034 -0.076541
C70   C     C_R   0.725469 0.310200 0.974812 -0.123399
C71   C     C_R   0.709229 0.850070 0.960634 -0.107552
C72   C     C_R   0.230568 0.831032 0.047537 -0.120691
C73   C     C_R   0.209237 0.350065 0.960634 -0.107580
C74   C     C_R   0.730581 0.331031 0.047534 -0.120732
C75   C     C_R   0.747546 0.945267 0.930379 0.019468
C76   C     C_3   0.087472 0.802512 0.441681 -0.276675
C77   C     C_R   0.254856 0.943673 0.070998 0.067880
C78   C     C_R   0.247545 0.445273 0.930381 0.019426
C79   C     C_R   0.754856 0.443679 0.070996 0.067938
C80   C     C_R   0.726961 0.021077 0.640195 0.568274
C81   C     C_R   0.272673 0.020012 0.360146 0.559280
C82   C     C_R   0.226789 0.521424 0.640196 0.565985
C83   C     C_R   0.772401 0.519458 0.360168 0.555416
C84   C     C_R   0.730147 0.378852 0.852062 0.555930
C85   C     C_R   0.269307 0.379225 0.148190 0.544596
C86   C     C_R   0.230146 0.878849 0.852064 0.555153
C87   C     C_3   0.101073 0.804475 0.521010 -0.250643
C88   C     C_R   0.769307 0.879224 0.148189 0.544140
C89   C     C_R   0.529595 0.157173 0.852147 0.603323
C90   C     C_R   0.468876 0.156261 0.146285 0.596609
C91   C     C_R   0.029596 0.657174 0.852148 0.602596
C92   C     C_R   0.968879 0.656262 0.146286 0.596282
C93   C     C_R   0.740792 0.974390 0.855594 0.558769
C94   C     C_R   0.258876 0.971735 0.145553 0.550830
C95   C     C_R   0.240791 0.474394 0.855595 0.558173
C96   C     C_R   0.758877 0.471739 0.145551 0.550427
C97   C     C_R   0.481726 0.157551 0.430130 0.026344
C98   C     C_R   0.675725 0.939264 0.526004 -0.139837
C99   C     C_R   0.497745 0.166530 0.578146 0.030667
C100  C     C_R   0.981865 0.657895 0.429397 0.029540
C101  C     C_R   0.002531 0.668196 0.576381 0.031164
C102  C     C_R   0.498717 0.267054 0.463010 0.006607
C103  C     C_R   0.508010 0.271032 0.536126 0.012803
C104  C     C_R   0.015210 0.758211 0.458871 -0.011419
C105  C     C_R   0.026956 0.761687 0.531622 0.006492
C106  C     C_R   0.469676 0.061779 0.546282 -0.153672
C107  C     C_R   0.463521 0.056306 0.472700 -0.154332
C108  C     C_R   0.961865 0.574129 0.547594 -0.150957
Cr1   Cr    Cr6+3 0.771950 0.169480 0.750100 1.033780
Cr2   Cr    Cr6+3 0.383410 0.010620 0.249390 1.084195
Cr3   Cr    Cr6+3 0.116590 0.510620 0.750610 1.068382
Cr4   Cr    Cr6+3 0.883410 0.510620 0.249390 1.084435
Cr5   Cr    Cr6+3 0.228050 0.169480 0.249900 1.016755
Cr6   Cr    Cr6+3 0.271950 0.669480 0.750100 1.032140
Cr7   Cr    Cr6+3 0.728050 0.669480 0.249900 1.016784
Cr8   Cr    Cr6+3 0.614930 0.323340 0.749170 1.028876
Cr9   Cr    Cr6+3 0.385070 0.323340 0.250830 1.044080
Cr10  Cr    Cr6+3 0.114930 0.823340 0.749170 1.034548
Cr11  Cr    Cr6+3 0.885070 0.823340 0.250830 1.044076
Cr12  Cr    Cr6+3 0.616590 0.010620 0.750610 1.061293
H1    H     H_    0.459448 0.980026 0.577083 0.133946
H2    H     H_    0.280485 0.087312 0.912301 0.137412
H3    H     H_    0.310596 0.582365 0.079752 0.142124
H4    H     H_    0.780465 0.587331 0.912299 0.137508
H5    H     H_    0.685520 0.754828 0.056489 0.166021
H6    H     H_    0.202763 0.725337 0.956096 0.109256
H7    H     H_    0.185535 0.254813 0.056487 0.166033
H8    H     H_    0.702783 0.225330 0.956094 0.109351
H9    H     H_    0.679547 0.786991 0.927658 0.150547
H10   H     H_    0.214262 0.761396 0.085039 0.124660
H11   H     H_    0.179560 0.286980 0.927656 0.150854
H12   H     H_    0.446295 0.971262 0.449200 0.136712
H13   H     H_    0.714283 0.261388 0.085036 0.124485
H14   H     H_    0.086811 0.894937 0.417237 0.147279
H15   H     H_    0.141180 0.736715 0.538580 0.134262
H16   H     H_    0.546724 0.435024 0.425403 0.132795
H17   H     H_    0.621081 0.304538 0.546567 0.151091
H18   H     H_    0.604270 0.296337 0.420606 0.156059
H19   H     H_    0.562058 0.442100 0.550926 0.127790
H20   H     H_    0.119791 0.733709 0.412844 0.157564
H21   H     H_    0.108748 0.897590 0.541329 0.145217
H22   H     H_    0.627157 0.914348 0.552300 0.131337
H23   H     H_    0.942347 0.500575 0.580755 0.137096
H24   H     H_    0.342796 0.842576 0.434185 0.175145
H25   H     H_    0.130947 0.399015 0.555253 0.143500
H26   H     H_    0.829441 0.324511 0.429382 0.187413
H27   H     H_    0.645888 0.852322 0.427851 0.125801
H28   H     H_    0.335431 0.801931 0.561272 0.120912
H29   H     H_    0.148418 0.340769 0.430249 0.125609
H30   H     H_    0.822636 0.281670 0.555825 0.131467
H31   H     H_    0.830307 0.087740 0.554883 0.122166
H32   H     H_    0.205695 0.151293 0.459260 0.122676
H33   H     H_    0.321649 0.608401 0.551201 0.120090
H34   H     H_    0.924216 0.491458 0.452398 0.143600
H35   H     H_    0.715009 0.658824 0.462219 0.123816
H36   H     H_    0.921294 0.956104 0.471971 0.127258
H37   H     H_    0.930850 0.119395 0.489156 0.088790
H38   H     H_    0.958838 0.054917 0.406236 0.147906
H39   H     H_    0.088384 0.062779 0.604530 0.135046
H40   H     H_    0.108108 0.160298 0.528345 0.072105
H41   H     H_    0.099943 0.221431 0.616436 0.145388
H42   H     H_    0.419947 0.491722 0.468778 0.126640
H43   H     H_    0.417327 0.656725 0.482524 0.082892
H44   H     H_    0.449777 0.594330 0.400884 0.142823
H45   H     H_    0.813326 0.104368 0.951861 0.185273
H46   H     H_    0.616711 0.669340 0.538397 0.072525
H47   H     H_    0.621084 0.743758 0.623576 0.154530
H48   H     H_    0.601181 0.586916 0.621618 0.138991
H49   H     H_    0.396023 0.907222 0.810638 0.363801
H50   H     H_    0.586024 0.849236 0.161566 0.358231
H51   H     H_    0.896063 0.407278 0.810621 0.364082
H52   H     H_    0.086047 0.349253 0.161565 0.358528
H53   H     H_    0.436844 0.504633 0.117300 0.174132
H54   H     H_    0.396093 0.388357 0.061980 0.132131
H55   H     H_    0.444319 0.512413 0.023175 0.162568
H56   H     H_    0.294659 0.121972 0.041348 0.091788
H57   H     H_    0.567019 0.512634 0.886417 0.170497
H58   H     H_    0.604745 0.404292 0.947619 0.124181
H59   H     H_    0.549365 0.525498 0.978640 0.166528
H60   H     H_    0.936849 0.004629 0.117306 0.174272
H61   H     H_    0.896098 0.888351 0.061986 0.132182
H62   H     H_    0.944319 0.012411 0.023180 0.162547
H63   H     H_    0.067018 0.012638 0.886416 0.171268
H64   H     H_    0.104744 0.904311 0.947627 0.123918
H65   H     H_    0.049358 0.025515 0.978637 0.166489
H66   H     H_    0.313313 0.604387 0.951865 0.185315
H67   H     H_    0.794640 0.621992 0.041346 0.091853
H68   H     H_    0.810607 0.082353 0.079748 0.141939
O1    O     O_R   0.787510 0.042610 0.670410 -0.511855
O2    O     O_R   0.454250 0.051070 0.169440 -0.431316
O3    O     O_R   0.045750 0.551070 0.830560 -0.445441
O4    O     O_R   0.954250 0.551070 0.169440 -0.431204
O5    O     O_R   0.681210 0.959150 0.825320 -0.484769
O6    O     O_R   0.318790 0.959150 0.174680 -0.467846
O7    O     O_R   0.181210 0.459150 0.825320 -0.484327
O8    O     O_R   0.818790 0.459150 0.174680 -0.467989
O9    O     O_3   0.667820 0.167810 0.749960 -0.296372
O10   O     O_3   0.332180 0.167810 0.250040 -0.296748
O11   O     O_3   0.167820 0.667810 0.749960 -0.298736
O12   O     O_R   0.212490 0.042610 0.329590 -0.514949
O13   O     O_3   0.832180 0.667810 0.250040 -0.296393
O14   O     O_R   0.765670 0.292090 0.675090 -0.538026
O15   O     O_R   0.234330 0.292090 0.324910 -0.535369
O16   O     O_R   0.265670 0.792090 0.675090 -0.539537
O17   O     O_R   0.734330 0.792090 0.324910 -0.535420
O18   O     O_R   0.670220 0.409020 0.668560 -0.505611
O19   O     O_R   0.329780 0.409020 0.331440 -0.455211
O20   O     O_R   0.170220 0.909020 0.668560 -0.494842
O21   O     O_R   0.829780 0.909020 0.331440 -0.452688
O22   O     O_R   0.556580 0.251590 0.674980 -0.504641
O23   O     O_R   0.287510 0.542610 0.670410 -0.509053
O24   O     O_R   0.443420 0.251590 0.325020 -0.498804
O25   O     O_R   0.056580 0.751590 0.674980 -0.503745
O26   O     O_R   0.943420 0.751590 0.325020 -0.500428
O27   O     O_R   0.545890 0.049670 0.670030 -0.539491
O28   O     O_R   0.454110 0.049670 0.329970 -0.531081
O29   O     O_R   0.045890 0.549670 0.670030 -0.535980
O30   O     O_R   0.954110 0.549670 0.329970 -0.527832
O31   O     O_R   0.681340 0.957860 0.676500 -0.490963
O32   O     O_R   0.318660 0.957860 0.323500 -0.494710
O33   O     O_R   0.181340 0.457860 0.676500 -0.484036
O34   O     O_R   0.712490 0.542610 0.329590 -0.509841
O35   O     O_R   0.818660 0.457860 0.323500 -0.498899
O36   O     O_R   0.787380 0.044010 0.830940 -0.500230
O37   O     O_R   0.212620 0.044010 0.169060 -0.510774
O38   O     O_R   0.287380 0.544010 0.830940 -0.500734
O39   O     O_R   0.712620 0.544010 0.169060 -0.510850
O40   O     O_R   0.765540 0.293390 0.823910 -0.483745
O41   O     O_R   0.234460 0.293390 0.176090 -0.507311
O42   O     O_R   0.265540 0.793390 0.823910 -0.484234
O43   O     O_R   0.734460 0.793390 0.176090 -0.507332
O44   O     O_R   0.670090 0.410410 0.829090 -0.546066
O45   O     O_R   0.556450 0.252890 0.823790 -0.472224
O46   O     O_R   0.329910 0.410410 0.170910 -0.546252
O47   O     O_R   0.170090 0.910410 0.829090 -0.545274
O48   O     O_R   0.829910 0.910410 0.170910 -0.546653
O49   O     O_3   0.851543 0.073708 0.417126 -0.550096
O50   O     O_3   0.191796 0.126625 0.600793 -0.533242
O51   O     O_3   0.342112 0.589063 0.411804 -0.544634
O52   O     O_3   0.705661 0.632970 0.603574 -0.537669
O53   O     O_2   0.502816 0.842198 0.887131 -0.245334
O54   O     O_2   0.398786 0.855884 0.963095 -0.243875
O55   O     O_3   0.398650 0.977093 0.844072 -0.554421
O56   O     O_R   0.443550 0.252890 0.176210 -0.479538
O57   O     O_2   0.457711 0.841429 0.099233 -0.239458
O58   O     O_2   0.557423 0.825396 0.018093 -0.270573
O59   O     O_3   0.578465 0.930619 0.139897 -0.534878
O60   O     O_2   0.002807 0.342201 0.887137 -0.244479
O61   O     O_2   0.898785 0.355899 0.963111 -0.243992
O62   O     O_3   0.898639 0.477108 0.844089 -0.554042
O63   O     O_2   0.957730 0.341431 0.099239 -0.239234
O64   O     O_2   0.057438 0.325410 0.018093 -0.270631
O65   O     O_3   0.078481 0.430637 0.139898 -0.534725
O66   O     O_3   0.505852 0.380541 0.075141 -0.557987
O67   O     O_R   0.056450 0.752890 0.823790 -0.472605
O68   O     O_3   0.497066 0.385134 0.923733 -0.551558
O69   O     O_3   0.005859 0.880545 0.075143 -0.557984
O70   O     O_3   0.997067 0.885137 0.923735 -0.551471
O71   O     O_R   0.943550 0.752890 0.176210 -0.479607
O72   O     O_R   0.545750 0.051070 0.830560 -0.445189
S1    S     S_3+6 0.446135 0.926348 0.913994 0.061729
S2    S     S_3+6 0.522151 0.906111 0.071842 0.060762
S3    S     S_3+6 0.946132 0.426357 0.914004 0.062011
S4    S     S_3+6 0.022166 0.406120 0.071844 0.060913

loop_
_geom_bond_atom_site_label_1
_geom_bond_atom_site_label_2
_ccdc_geom_bond_type
C58   C62   A    
C41   C89   S    
C7    H48   S    
C73   H11   S    
Cr3   O3    S    
C74   C79   A    
C55   C59   A    
C43   O17   A    
C2    H24   S    
C80   O1    A    
C21   O15   A    
Cr7   O34   S    
Cr1   O9    S    
C17   H30   S    
Cr11  O13   S    
C65   H19   S    
C80   O31   A    
C8    H55   S    
C24   O50   S    
C31   C80   S    
C82   O33   A    
C54   H18   S    
C45   C46   A    
C51   O29   A    
Cr12  O27   S    
C15   C19   A    
H51   O62   S    
C48   O70   S    
C41   C46   A    
C62   C67   A    
C61   H4    S    
Cr4   O13   S    
Cr1   O14   S    
H49   O55   S    
C13   C35   A    
C37   C40   A    
C90   O56   A    
C39   S4    S    
C67   H5    S    
C38   C39   A    
C23   O49   S    
C8    H54   S    
C67   C71   A    
Cr2   O10   S    
C106  C107  A    
C25   O51   S    
C38   S3    S    
C74   H13   S    
C77   C94   S    
C100  C104  A    
C56   C78   A    
C59   H2    S    
Cr3   O33   S    
C31   C98   A    
C89   O45   A    
C14   C18   A    
C37   S2    S    
Cr4   O8    S    
Cr8   O22   S    
C94   O37   A    
Cr3   O11   S    
C49   O27   A    
C83   O34   A    
C3    C100  A    
O54   S1    D    
C4    H38   S    
C6    H42   S    
Cr1   O1    S    
C5    H39   S    
C20   C25   A    
C35   C83   S    
Cr8   O45   S    
C70   C74   A    
C47   C48   A    
C95   O7    A    
Cr5   O10   S    
C9    H58   S    
C69   C73   A    
C16   H29   S    
C23   C27   A    
C32   O20   A    
Cr2   O32   S    
Cr10  O25   S    
Cr7   O43   S    
C97   C102  A    
O58   S2    D    
C68   C72   A    
O63   S4    D    
O60   S3    D    
C65   H17   S    
C92   O4    A    
C51   O25   A    
C101  C108  A    
C50   O24   A    
C1    C22   S    
C94   O6    A    
C98   H22   S    
C25   C29   A    
C36   C41   A    
C53   C75   A    
C89   O72   A    
C13   H26   S    
C81   O12   A    
Cr5   O41   S    
C1    O14   A    
C61   C66   A    
C46   O68   S    
C104  C105  A    
Cr1   O40   S    
C38   C44   A    
C14   C98   A    
C39   C42   A    
C76   H20   S    
C101  C105  A    
C40   C45   A    
C88   O48   A    
Cr10  O11   S    
H52   O65   S    
Cr11  O21   S    
C5    O50   S    
C58   H68   S    
C85   O46   A    
C86   O42   A    
C96   O39   A    
C12   C16   A    
Cr2   O6    S    
C11   H63   S    
C99   C103  A    
C43   O21   A    
C54   C65   S    
C76   H14   S    
C8    H53   S    
O55   S1    S    
C86   O47   A    
Cr12  O72   S    
C73   C78   A    
C62   C88   S    
C29   C34   A    
Cr2   O2    S    
C3    H34   S    
C87   H21   S    
C56   C60   A    
C5    H41   S    
C71   H9    S    
C49   O22   A    
C60   H3    S    
Cr2   O28   S    
C76   C104  S    
C11   O70   S    
Cr7   O39   S    
C72   C77   A    
C2    C15   A    
Cr6   O38   S    
C87   H15   S    
C32   O16   A    
C49   C99   S    
C14   H27   S    
Cr5   O37   S    
C4    H37   S    
C87   C105  S    
C50   O28   A    
C78   C95   S    
C16   C20   A    
C5    H40   S    
C54   H16   S    
C20   C21   S    
C12   H25   S    
C52   O26   A    
Cr12  O9    S    
C10   O69   S    
C85   O41   A    
C64   C69   A    
O61   S3    D    
C57   C61   A    
C1    O18   A    
C44   C91   S    
C76   C87   S    
Cr1   O36   S    
Cr4   O4    S    
C30   C35   A    
O65   S4    S    
C53   H45   S    
C30   H35   S    
C4    H36   S    
C7    H46   S    
C56   H66   S    
C28   C33   A    
C28   H32   S    
Cr8   O18   S    
Cr6   O11   S    
Cr7   O17   S    
C27   C31   A    
C4    O49   S    
C10   H62   S    
Cr10  O20   S    
Cr6   O16   S    
H50   O59   S    
C9    O68   S    
C65   C103  S    
C12   C34   A    
C84   O40   A    
C68   H6    S    
C64   C85   S    
C92   O71   A    
C9    H57   S    
C75   C93   S    
C29   H33   S    
C82   O23   A    
C90   O2    A    
C70   H8    S    
C99   C106  A    
C7    H47   S    
C63   C68   A    
C36   C37   A    
C50   C97   S    
C27   H31   S    
C11   H65   S    
C59   C63   A    
C19   C32   S    
C54   C102  S    
Cr9   O24   S    
C93   O5    A    
C11   H64   S    
C24   C28   A    
Cr12  O5    S    
C6    H44   S    
C107  H12   S    
Cr9   O19   S    
C9    H59   S    
Cr11  O71   S    
Cr6   O42   S    
C53   C58   A    
C72   H10   S    
C15   H28   S    
C3    C108  A    
C51   C101  S    
Cr3   O29   S    
C6    O51   S    
C45   O66   S    
C52   O30   A    
C17   C22   A    
C13   C17   A    
C60   C64   A    
C10   H60   S    
C36   S1    S    
C21   O19   A    
Cr6   O23   S    
C19   C24   A    
C95   O38   A    
C83   O35   A    
C79   C96   S    
C63   C86   S    
C18   C43   S    
C71   C75   A    
Cr8   O9    S    
C81   O32   A    
C66   C70   A    
C91   O67   A    
Cr9   O46   S    
C47   O69   S    
C18   C23   A    
C55   C77   A    
Cr7   O13   S    
C106  H1    S    
C8    O66   S    
Cr4   O35   S    
Cr5   O12   S    
C52   C100  S    
C93   O36   A    
C42   C92   S    
C42   C47   A    
Cr5   O15   S    
C91   O3    A    
C102  C103  A    
C84   O44   A    
C57   C79   A    
O57   S2    D    
O62   S3    S    
C57   H67   S    
O59   S2    S    
Cr10  O67   S    
O64   S4    D    
C66   C84   S    
C97   C107  A    
Cr9   O56   S    
C26   O52   S    
Cr11  O48   S    
C96   O8    A    
C88   O43   A    
C6    H43   S    
C69   H7    S    
Cr11  O26   S    
C22   C26   A    
Cr3   O7    S    
C10   H61   S    
Cr4   O30   S    
C55   H56   S    
O53   S1    D    
C7    O52   S    
C34   C82   S    
C40   C90   S    
Cr12  O31   S    
Cr10  O47   S    
C33   C81   S    
C108  H23   S    
Cr8   O44   S    
Cr9   O10   S    
C44   C48   A    
C2    C33   A    
C26   C30   A    
