data_mof_unit_49787.cif
_audit_creation_date              2012-12-10T21:00:41-0500
_audit_creation_method            fapswitch 2.2
_symmetry_space_group_name_H-M    P1
_symmetry_Int_Tables_number       1
_space_group_crystal_system       triclinic
_cell_length_a                    18.136699
_cell_length_b                    18.175449
_cell_length_c                    18.330435
_cell_angle_alpha                 119.901005
_cell_angle_beta                  89.896446
_cell_angle_gamma                 120.03797
_cell_volume                      4280.45461097

loop_
_atom_site_label
_atom_site_type_symbol
_atom_type_description
_atom_site_fract_x
_atom_site_fract_y
_atom_site_fract_z
_atom_type_partial_charge
C1    C     C_R   0.109280 0.220108 0.609857 0.785429
C2    C     C_3   0.449847 0.897022 0.947225 -0.133352
C3    C     C_3   0.476594 0.030606 0.072447 0.511684
C4    C     C_3   0.523242 0.969340 0.927673 0.465528
C5    C     C_3   0.413204 0.437146 0.448702 -0.103723
C6    C     C_3   0.586814 0.562920 0.551329 -0.103154
C7    C     C_3   0.476932 0.402851 0.443223 -0.118773
C8    C     C_3   0.523072 0.597193 0.556790 -0.101071
C9    C     C_3   0.550647 0.499771 0.449253 0.018055
C10   C     C_3   0.449369 0.500278 0.550765 0.016779
C11   C     C_3   0.487837 0.534064 0.453891 -0.222650
C12   C     C_R   0.890733 0.779891 0.390145 0.785995
C13   C     C_3   0.512177 0.465985 0.546126 -0.214079
C14   C     C_R   0.046872 0.134208 0.829348 -0.100513
C15   C     C_R   0.954244 0.866399 0.170853 -0.102098
C16   C     C_R   0.392753 0.781003 0.888140 0.873595
C17   C     C_R   0.607224 0.218994 0.111919 0.862927
C18   C     C_R   0.050983 0.094903 0.742838 -0.138876
C19   C     C_R   0.949767 0.905486 0.257229 -0.139753
C20   C     C_R   0.005358 0.097599 0.683375 0.148515
C21   C     C_R   0.994929 0.902424 0.316716 0.148743
C22   C     C_R   0.955131 0.139342 0.711171 -0.113819
C23   C     C_3   0.983617 0.430569 0.414105 -0.131442
C24   C     C_R   0.045044 0.860510 0.289067 -0.114556
C25   C     C_R   0.950522 0.177706 0.797498 -0.123050
C26   C     C_R   0.050021 0.822367 0.202877 -0.122346
C27   C     C_R   0.996381 0.175161 0.856533 -0.088574
C28   C     C_R   0.004642 0.825303 0.143829 -0.087834
C29   C     C_R   0.954975 0.943287 0.534717 -0.245476
C30   C     C_R   0.045071 0.056711 0.465299 -0.245825
C31   C     C_R   0.948510 0.892225 0.444954 -0.054481
C32   C     C_R   0.051531 0.107772 0.555058 -0.053943
C33   C     C_R   0.994583 0.949548 0.409677 -0.011967
C34   C     C_3   0.016381 0.569429 0.585894 -0.130622
C35   C     C_R   0.005502 0.050450 0.590348 -0.012228
C36   C     C_R   0.649062 0.640659 0.817711 -0.194847
C37   C     C_R   0.350294 0.356007 0.180187 -0.215852
C38   C     C_R   0.596995 0.578957 0.846567 -0.196302
C39   C     C_R   0.402326 0.418719 0.152159 -0.191226
C40   C     C_R   0.111581 0.501496 0.890403 0.793215
C41   C     C_R   0.888489 0.498563 0.109666 0.793787
C42   C     C_R   0.596943 0.625419 0.934903 0.168380
C43   C     C_R   0.402935 0.373355 0.063983 0.167340
C44   C     C_R   0.650085 0.734140 0.994010 -0.235849
C45   C     C_3   0.412198 0.963489 0.976746 -0.253600
C46   C     C_R   0.350249 0.264734 0.004158 -0.244106
C47   C     C_R   0.702294 0.795673 0.965170 -0.254089
C48   C     C_R   0.298016 0.202209 0.032140 -0.226515
C49   C     C_R   0.702316 0.749216 0.876984 0.559930
C50   C     C_R   0.297616 0.247541 0.120211 0.558449
C51   C     C_R   0.593718 0.561339 0.025044 -0.259459
C52   C     C_R   0.406276 0.438570 0.974844 -0.259264
C53   C     C_R   0.550026 0.500784 0.057145 -0.053518
C54   C     C_R   0.449964 0.499108 0.942741 -0.051935
C55   C     C_R   0.454975 0.438938 0.032487 0.005606
C56   C     C_3   0.587678 0.036467 0.023360 -0.300032
C57   C     C_R   0.545000 0.560779 0.967234 0.004646
C58   C     C_R   0.164091 0.819489 0.991630 -0.068221
C59   C     C_R   0.839235 0.181952 0.010919 -0.075408
C60   C     C_R   0.137850 0.744831 0.009032 -0.143524
C61   C     C_R   0.864249 0.255723 0.992622 -0.133010
C62   C     C_R   0.054544 0.647539 0.955984 0.123145
C63   C     C_R   0.946918 0.353789 0.045477 0.121142
C64   C     C_R   0.392410 0.500204 0.607791 0.801110
C65   C     C_R   0.607592 0.499805 0.392212 0.793814
C66   C     C_R   0.997739 0.625889 0.885704 -0.143808
C67   C     C_3   0.486786 0.036710 0.956702 -0.270993
C68   C     C_R   0.004275 0.377121 0.116494 -0.143841
C69   C     C_R   0.024587 0.700532 0.868093 -0.136149
C70   C     C_R   0.978656 0.303360 0.134974 -0.132477
C71   C     C_R   0.107693 0.797250 0.921016 -0.083481
C72   C     C_R   0.896220 0.205843 0.082204 -0.086000
C73   C     C_R   0.969340 0.563031 0.025752 -0.271522
C74   C     C_R   0.030876 0.437126 0.974456 -0.271361
C75   C     C_R   0.943968 0.496134 0.052188 -0.046768
C76   C     C_R   0.056232 0.504017 0.948015 -0.046562
C77   C     C_R   0.974170 0.431062 0.025051 -0.003434
C78   C     C_3   0.513089 0.963255 0.043405 -0.289617
C79   C     C_R   0.026255 0.569301 0.975382 -0.002481
C80   C     C_R   0.394039 0.499074 0.887663 0.796148
C81   C     C_R   0.605957 0.500880 0.112287 0.801712
C82   C     C_R   0.108939 0.500278 0.607804 0.784808
C83   C     C_R   0.891061 0.499721 0.392195 0.784207
C84   C     C_3   0.078208 0.526234 0.483141 -0.170057
C85   C     C_3   0.921790 0.473763 0.516857 -0.169517
C86   C     C_3   0.042603 0.594989 0.517044 -0.172202
C87   C     C_3   0.957395 0.405009 0.482954 -0.172606
C88   C     C_3   0.948823 0.499357 0.448845 0.045168
C89   C     C_3   0.550033 0.102974 0.052921 -0.117270
C90   C     C_3   0.051176 0.500641 0.551153 0.044861
H1    H     H_    0.076815 0.672997 0.530199 0.139062
H2    H     H_    0.081053 0.858741 0.334572 0.112661
H3    H     H_    0.911172 0.209101 0.818496 0.136191
H4    H     H_    0.089305 0.790864 0.182006 0.136488
H5    H     H_    0.918626 0.899592 0.561738 0.180674
H6    H     H_    0.081438 0.100412 0.438289 0.180368
H7    H     H_    0.648722 0.603903 0.749511 0.158606
H8    H     H_    0.350237 0.391915 0.248283 0.163326
H9    H     H_    0.557015 0.495167 0.800371 0.133535
H10   H     H_    0.441906 0.502419 0.198882 0.135022
H11   H     H_    0.651385 0.771131 0.062555 0.153900
H12   H     H_    0.923183 0.327001 0.469799 0.138976
H13   H     H_    0.349314 0.228585 0.935707 0.154899
H14   H     H_    0.143274 0.547839 0.470115 0.143187
H15   H     H_    0.856723 0.452157 0.529880 0.143329
H16   H     H_    0.743219 0.879353 0.011960 0.173665
H17   H     H_    0.257349 0.118615 0.984786 0.176653
H18   H     H_    0.666688 0.608322 0.043407 0.181088
H19   H     H_    0.333301 0.391529 0.956430 0.181068
H20   H     H_    0.128252 0.855076 0.907517 0.155790
H21   H     H_    0.876631 0.148673 0.096337 0.150734
H22   H     H_    0.227936 0.894693 0.033098 0.207850
H23   H     H_    0.992849 0.204827 0.923322 0.152341
H24   H     H_    0.775915 0.106137 0.969640 0.178580
H25   H     H_    0.182023 0.762782 0.063873 0.150517
H26   H     H_    0.819662 0.236471 0.937224 0.150120
H27   H     H_    0.933139 0.551306 0.844559 0.128637
H28   H     H_    0.068401 0.452307 0.157499 0.128088
H29   H     H_    0.980886 0.683513 0.813582 0.146157
H30   H     H_    0.022812 0.321670 0.190020 0.143646
H31   H     H_    0.945580 0.612020 0.045182 0.176244
H32   H     H_    0.054712 0.388216 0.955085 0.176279
H33   H     H_    0.969509 0.373492 0.342831 0.146587
H34   H     H_    0.008486 0.795844 0.077157 0.152913
H35   H     H_    0.030480 0.626499 0.657169 0.146948
H36   H     H_    0.476729 0.067143 0.920931 0.177247
H37   H     H_    0.523156 0.932797 0.079145 0.178828
H38   H     H_    0.340037 0.933587 0.957729 0.177256
H39   H     H_    0.659866 0.066422 0.042290 0.167839
H40   H     H_    0.459064 0.323256 0.395561 0.186748
H41   H     H_    0.540889 0.676770 0.604416 0.207764
H42   H     H_    0.340962 0.386423 0.408057 0.191161
H43   H     H_    0.659033 0.613815 0.592142 0.189896
H44   H     H_    0.478814 0.561712 0.414856 0.140944
H45   H     H_    0.082271 0.132224 0.875091 0.150189
H46   H     H_    0.521171 0.438293 0.585129 0.138485
H47   H     H_    0.750031 0.835539 0.730933 0.386806
H48   H     H_    0.247618 0.162736 0.267344 0.390584
H49   H     H_    0.441424 0.202933 0.208309 0.387031
H50   H     H_    0.635570 0.898475 0.882741 0.354601
H51   H     H_    0.919219 0.868689 0.125098 0.151066
H52   H     H_    0.089324 0.062054 0.721998 0.128624
H53   H     H_    0.911536 0.938490 0.277960 0.128807
H54   H     H_    0.918789 0.140852 0.665693 0.112894
O1    O     O_3   0.251620 0.500000 0.748430 -0.493158
O2    O     O_R   0.570330 0.268390 0.136490 -0.636027
O3    O     O_R   0.134680 0.268390 0.572240 -0.647274
O4    O     O_R   0.865320 0.731610 0.427760 -0.646543
O5    O     O_R   0.306670 0.731630 0.863510 -0.644628
O6    O     O_R   0.693330 0.268370 0.136490 -0.636322
O7    O     O_R   0.135450 0.439270 0.865360 -0.645103
O8    O     O_R   0.864550 0.560730 0.134640 -0.644905
O9    O     O_R   0.429670 0.560710 0.692610 -0.607941
O10   O     O_R   0.570330 0.439290 0.307390 -0.639955
O11   O     O_R   0.308540 0.439240 0.865360 -0.653297
O12   O     O_3   0.748380 0.500000 0.251570 -0.488376
O13   O     O_R   0.691460 0.560760 0.134640 -0.652577
O14   O     O_R   0.133580 0.439310 0.571150 -0.636964
O15   O     O_R   0.866420 0.560690 0.428850 -0.636720
O16   O     O_R   0.430770 0.560690 0.864590 -0.641213
O17   O     O_R   0.569230 0.439310 0.135410 -0.638219
O18   O     O_R   0.133580 0.560760 0.692610 -0.642371
O19   O     O_R   0.866420 0.439240 0.307390 -0.642316
O20   O     O_2   0.814396 0.939143 0.911919 -0.334860
O21   O     O_2   0.842814 0.807634 0.820450 -0.313391
O22   O     O_3   0.707489 0.790618 0.747933 -0.550779
O23   O     O_R   0.134680 0.560740 0.864590 -0.636298
O24   O     O_2   0.151259 0.178588 0.166714 -0.313416
O25   O     O_2   0.193364 0.057734 0.086800 -0.302559
O26   O     O_3   0.289463 0.211098 0.252938 -0.572383
O27   O     O_2   0.379039 0.977656 0.169441 -0.299576
O28   O     O_2   0.526182 0.146034 0.251312 -0.343217
O29   O     O_3   0.394019 0.127246 0.169049 -0.498732
O30   O     O_2   0.473872 0.862327 0.749490 -0.291520
O31   O     O_2   0.627990 0.020555 0.833934 -0.322271
O32   O     O_3   0.591434 0.856727 0.823058 -0.472443
O33   O     O_R   0.865320 0.439260 0.135410 -0.635867
O34   O     O_R   0.306670 0.439270 0.571150 -0.649797
O35   O     O_R   0.693330 0.560730 0.428850 -0.643835
O36   O     O_R   0.135450 0.268370 0.694460 -0.638178
O37   O     O_R   0.864550 0.731630 0.305540 -0.637957
O38   O     O_R   0.429670 0.731610 0.863510 -0.603463
S1    S     S_3+6 0.770915 0.825869 0.840988 -0.000215
S2    S     S_3+6 0.228948 0.169401 0.154940 0.017836
S3    S     S_3+6 0.444187 0.070708 0.169411 0.009815
S4    S     S_3+6 0.554640 0.927734 0.830139 0.021574
Zn1   Zn    Zn3+2 0.207400 0.586780 0.791530 0.985964
Zn2   Zn    Zn3+2 0.792600 0.413220 0.208470 0.986727
Zn3   Zn    Zn3+2 0.208510 0.413230 0.792630 0.961154
Zn4   Zn    Zn3+2 0.791490 0.586770 0.207370 0.964228
Zn5   Zn    Zn3+2 0.383150 0.586740 0.791530 1.022117
Zn6   Zn    Zn3+2 0.616850 0.413260 0.208470 0.989998
Zn7   Zn    Zn3+2 0.207400 0.413250 0.618010 0.975192
Zn8   Zn    Zn3+2 0.792600 0.586750 0.381990 0.975548

loop_
_geom_bond_atom_site_label_1
_geom_bond_atom_site_label_2
_ccdc_geom_bond_type
C26   H4    S    
O15   Zn8   S    
C25   H3    S    
H48   O26   S    
C14   C18   A    
O12   Zn8   S    
C17   O6    A    
C84   C90   S    
C76   C79   A    
C6    C9    S    
C7    C13   S    
C39   H10   S    
C47   C49   A    
C41   O8    A    
C26   C28   A    
C15   C19   A    
O29   S3    S    
C69   H29   S    
O33   Zn2   S    
C74   C76   A    
O1    Zn1   S    
C58   H22   S    
C53   C81   S    
C19   C21   A    
C84   C86   S    
C5    C11   S    
C6    H43   S    
O36   Zn3   S    
C59   H24   S    
O6    Zn2   S    
O18   Zn1   S    
C82   O14   A    
C1    O36   A    
C16   O38   A    
C58   C71   A    
C80   O16   A    
C66   C69   A    
C21   C33   S    
C14   H45   S    
C45   H38   S    
C58   C60   A    
C71   H20   S    
C3    S3    S    
C67   C89   S    
C56   C78   S    
C60   C62   A    
C34   C86   S    
O12   Zn2   S    
C4    S4    S    
C69   C71   A    
C1    O3    A    
O13   Zn4   S    
H47   O22   S    
C7    H40   S    
O8    Zn4   S    
O11   Zn3   S    
C68   H28   S    
C15   H51   S    
C20   C35   S    
C5    H42   S    
C28   H34   S    
C70   H30   S    
C51   H18   S    
O24   S2    D    
C74   C77   A    
C45   C67   S    
C30   H6    S    
C31   C33   A    
C36   H7    S    
C51   C57   A    
C14   C27   A    
C2    C16   S    
O1    Zn7   S    
C56   H39   S    
C44   C47   A    
C59   C72   A    
O26   S2    S    
C85   C87   S    
C83   C88   S    
C72   H21   S    
C23   C87   S    
O1    Zn5   S    
C73   C75   A    
O2    Zn6   S    
C42   C44   A    
C8    H41   S    
O17   Zn6   S    
C85   H15   S    
C78   H37   S    
C24   H2    S    
C42   C57   S    
C37   H8    S    
C52   C54   A    
C54   C80   S    
C53   C55   A    
C2    C45   S    
C39   C43   A    
O34   Zn7   S    
C46   C48   A    
C59   C61   A    
O14   Zn7   S    
C81   O13   A    
C23   C84   S    
O27   S3    D    
C86   C88   S    
O21   S1    D    
C32   C35   A    
C62   C79   S    
C18   H52   S    
C17   C89   S    
C11   H44   S    
C29   H5    S    
C62   C66   A    
C6    C8    S    
C82   O18   A    
C64   O9    A    
C22   C25   A    
C1    C32   S    
C40   C76   S    
C40   O7    A    
O19   Zn2   S    
C51   C53   A    
C34   C85   S    
C2    C4    S    
C34   C90   S    
O25   S2    D    
C65   O10   A    
C2    C78   S    
C41   C75   S    
C87   H12   S    
C64   O34   A    
O37   Zn4   S    
C12   O37   A    
C8    C11   S    
O28   S3    D    
H50   O32   S    
C47   H16   S    
O23   Zn1   S    
C61   H26   S    
C61   C63   A    
C73   C79   A    
C75   C77   A    
C16   O5    A    
O12   Zn6   S    
O4    Zn8   S    
C56   C89   S    
C74   H32   S    
C20   C22   A    
O5    Zn1   S    
C73   H31   S    
C23   C88   S    
C9    C11   S    
C12   C31   S    
C84   H14   S    
C13   H46   S    
C67   H36   S    
O38   Zn5   S    
C21   C24   A    
C27   H23   S    
C80   O11   A    
C5    C7    S    
O9    Zn5   S    
C85   C88   S    
C41   O33   A    
C7    C9    S    
C83   O19   A    
C63   C68   A    
C19   H53   S    
C66   H27   S    
C30   C33   A    
O1    Zn3   S    
C70   C72   A    
O10   Zn6   S    
C8    C10   S    
C50   S2    S    
O22   S1    S    
O16   Zn5   S    
C24   C26   A    
C38   H9    S    
C10   C13   S    
C4    C67   S    
C23   H33   S    
C44   H11   S    
C52   C55   A    
O32   S4    S    
C43   C55   S    
C25   C27   A    
C65   O35   A    
C46   H13   S    
C29   C35   A    
C10   C64   S    
C82   C90   S    
C3    C89   S    
C86   H1    S    
C12   O4    A    
C36   C38   A    
C17   O2    A    
C5    C10   S    
C29   C31   A    
O20   S1    D    
C49   S1    S    
O30   S4    D    
O31   S4    D    
C30   C32   A    
C37   C50   A    
C15   C28   A    
C52   H19   S    
C34   H35   S    
C48   C50   A    
C48   H17   S    
C3    C45   S    
O3    Zn7   S    
C18   C20   A    
C43   C46   A    
C9    C65   S    
H49   O29   S    
C40   O23   A    
C38   C42   A    
O7    Zn3   S    
C83   O15   A    
C37   C39   A    
C87   C90   S    
C22   H54   S    
C63   C77   S    
C68   C70   A    
C60   H25   S    
C81   O17   A    
C3    C78   S    
O35   Zn8   S    
C4    C56   S    
C36   C49   A    
C6    C13   S    
C54   C57   A    
O12   Zn4   S    
