data_mof_unit_9056.cif
_audit_creation_date              2012-12-10T18:42:28-0500
_audit_creation_method            fapswitch 2.2
_symmetry_space_group_name_H-M    P1
_symmetry_Int_Tables_number       1
_space_group_crystal_system       triclinic
_cell_length_a                    8.594321
_cell_length_b                    10.729053
_cell_length_c                    9.846372
_cell_angle_alpha                 89.999921
_cell_angle_beta                  98.655725
_cell_angle_gamma                 90.119296
_cell_volume                      897.580578326

loop_
_atom_site_label
_atom_site_type_symbol
_atom_type_description
_atom_site_fract_x
_atom_site_fract_y
_atom_site_fract_z
_atom_type_partial_charge
C1    C     C_R   0.499889 0.259864 0.499938 0.863999
C2    C     C_R   0.500111 0.740136 0.500062 0.863999
C3    C     C_R   0.201085 0.499977 0.464061 0.972467
C4    C     C_R   0.798915 0.500023 0.535938 0.972467
C5    C     C_2   0.035971 0.500075 0.444721 -0.386672
C6    C     C_2   0.964029 0.499925 0.555279 -0.386671
C7    C     C_R   0.502036 0.063815 0.376392 -0.196585
C8    C     C_R   0.497963 0.936185 0.623608 -0.196585
C9    C     C_R   0.502216 0.936161 0.376447 -0.196588
C10   C     C_R   0.497784 0.063839 0.623553 -0.196588
C11   C     C_R   0.500135 0.872604 0.500049 -0.009269
C12   C     C_R   0.499864 0.127395 0.499951 -0.009269
C13   C     C_R   0.594669 0.580000 0.084328 -0.077347
C14   C     C_R   0.405331 0.420000 0.915672 -0.077347
C15   C     C_R   0.594613 0.579977 0.940463 -0.075171
C16   C     C_R   0.405387 0.420023 0.059537 -0.075171
H1    H     H_    0.503683 0.112202 0.280021 0.156592
H2    H     H_    0.496317 0.887798 0.719979 0.156592
N1    N     N_R   0.499960 0.499970 0.857200 -0.079904
N2    N     N_R   0.500040 0.500030 0.142800 -0.079904
O1    O     O_R   0.499990 0.316750 0.614620 -0.630668
O2    O     O_R   0.500010 0.683250 0.385380 -0.630668
O3    O     O_R   0.499990 0.316780 0.385290 -0.630609
O4    O     O_R   0.500010 0.683220 0.614710 -0.630609
O5    O     O_R   0.271750 0.499990 0.587840 -0.614569
O6    O     O_R   0.728250 0.500010 0.412160 -0.614569
O7    O     O_R   0.271750 0.500010 0.358510 -0.625204
O8    O     O_R   0.728250 0.499990 0.641490 -0.625205
Zn1   Zn    Zn3+2 0.500000 0.499980 0.653120 0.942427
Zn2   Zn    Zn3+2 0.500000 0.500020 0.346880 0.942426
H3    H     H_    0.974060 0.500314 0.339855 0.179569
H4    H     H_    0.025940 0.499686 0.660145 0.179569
H5    H     H_    0.504030 0.887754 0.280115 0.156315
H6    H     H_    0.495970 0.112246 0.719885 0.156315
H7    H     H_    0.670394 0.643955 0.148725 0.125560
H8    H     H_    0.329606 0.356045 0.851275 0.125560
H9    H     H_    0.670263 0.643932 0.895886 0.125658
H10   H     H_    0.329737 0.356068 0.104114 0.125658

loop_
_geom_bond_atom_site_label_1
_geom_bond_atom_site_label_2
_ccdc_geom_bond_type
C2    O2    A    
C15   N1    A    
C1    O1    A    
C4    O6    A    
C16   N2    A    
C3    O7    A    
C10   H6    S    
N2    Zn2   S    
O7    Zn2   S    
C9    H5    S    
C9    C11   A    
C5    C6    D    
C1    C12   S    
C10   C12   A    
C8    C11   A    
C2    C11   S    
C8    C10   A    
O8    Zn1   S    
C4    O8    A    
C1    O3    A    
C13   C15   A    
C2    O4    A    
C7    C12   A    
C14   C16   A    
N1    Zn1   S    
O3    Zn2   S    
C3    O5    A    
O5    Zn1   S    
C4    C6    S    
C6    H4    S    
C7    C9    A    
O4    Zn1   S    
C15   H9    S    
C14   H8    S    
O2    Zn2   S    
C13   N2    A    
C5    H3    S    
O1    Zn1   S    
C14   N1    A    
C13   H7    S    
C8    H2    S    
C16   H10   S    
C3    C5    S    
O6    Zn2   S    
C7    H1    S    
