data_mof_unit_43861.cif
_audit_creation_date              2012-12-11T20:55:20-0500
_audit_creation_method            fapswitch 2.2
_symmetry_space_group_name_H-M    P1
_symmetry_Int_Tables_number       1
_space_group_crystal_system       triclinic
_cell_length_a                    8.26438
_cell_length_b                    19.130785
_cell_length_c                    23.000506
_cell_angle_alpha                 100.685292
_cell_angle_beta                  90.381792
_cell_angle_gamma                 91.944932
_cell_volume                      3571.04944825

loop_
_atom_site_label
_atom_site_type_symbol
_atom_type_description
_atom_site_fract_x
_atom_site_fract_y
_atom_site_fract_z
_atom_type_partial_charge
Ba1   Ba    Ba6+2 0.157290 0.533910 0.474710 1.651998
Ba2   Ba    Ba6+2 0.652900 0.466090 0.525240 1.650143
C1    C     C_3   0.359484 0.720971 0.264746 -0.353203
C2    C     C_3   0.390535 0.693676 0.321725 0.338544
C3    C     C_3   0.487408 0.684868 0.616818 0.309969
C4    C     C_3   0.496100 0.765690 0.633574 -0.380243
C5    C     C_3   0.884043 0.281685 0.648947 0.363166
C6    C     C_3   0.864475 0.209524 0.667476 -0.363285
C7    C     C_3   0.402712 0.310098 0.680595 0.316309
C8    C     C_3   0.447025 0.291325 0.739995 -0.346851
C9    C     C_R   0.953750 0.197617 0.469615 -0.150834
C10   C     C_R   0.987678 0.272169 0.479632 0.058885
C11   C     C_R   0.136050 0.188662 0.550046 -0.157016
C12   C     C_3   0.924011 0.721695 0.349591 0.362442
C13   C     C_R   0.203310 0.255406 0.545394 0.005324
C14   C     C_R   0.676353 0.809443 0.448576 -0.166295
C15   C     C_R   0.606865 0.743773 0.455085 0.009825
C16   C     C_R   0.859784 0.801923 0.528949 -0.147475
C17   C     C_R   0.821869 0.727750 0.520893 0.054650
C18   C     C_R   0.018757 0.153978 0.508285 -0.001260
C19   C     C_R   0.118613 0.299387 0.515625 -0.247859
C20   C     C_R   0.794768 0.844716 0.489585 -0.001427
C21   C     C_R   0.688513 0.700775 0.486514 -0.246809
C22   C     C_R   0.230808 0.036087 0.537176 -0.078229
C23   C     C_3   0.948692 0.793265 0.330379 -0.364942
C24   C     C_R   0.325434 0.985023 0.554972 -0.080944
C25   C     C_R   0.279059 0.914193 0.538694 -0.066353
C26   C     C_R   0.132631 0.896018 0.509010 -0.076842
C27   C     C_R   0.015099 0.946782 0.506506 0.013015
C28   C     C_R   0.068694 0.020531 0.516771 0.038646
C29   C     C_R   0.851546 0.923690 0.490935 -0.016207
C30   C     C_R   0.745679 0.977809 0.479361 0.038668
C31   C     C_R   0.799239 0.051573 0.489765 0.014281
C32   C     C_R   0.962565 0.074711 0.505669 -0.016495
C33   C     C_R   0.583901 0.962319 0.458410 -0.078005
C34   C     C_3   0.875809 0.366722 0.335065 0.267984
C35   C     C_R   0.489667 0.013528 0.440576 -0.077862
C36   C     C_R   0.535877 0.084346 0.457195 -0.065964
C37   C     C_R   0.681791 0.102316 0.487112 -0.080006
C38   C     C_R   0.648676 0.519386 0.335499 -0.292351
C39   C     C_R   0.458307 0.543085 0.940454 -0.021273
C40   C     C_R   0.427341 0.535354 0.879352 0.596909
C41   C     C_R   0.254172 0.432758 0.880855 0.576894
C42   C     C_R   0.296540 0.435086 0.941162 -0.020180
C43   C     C_R   0.393530 0.492529 0.971631 -0.052825
C44   C     C_R   0.557010 0.599943 0.970382 -0.098155
C45   C     C_3   0.968471 0.339630 0.278420 0.256377
C46   C     C_R   0.586988 0.608390 0.031184 -0.055551
C47   C     C_R   0.523162 0.557187 0.063582 -0.042286
C48   C     C_R   0.432258 0.497653 0.032684 -0.049517
C49   C     C_R   0.245152 0.381005 0.971624 -0.074162
C50   C     C_R   0.290187 0.383951 0.030795 -0.092621
C51   C     C_R   0.382460 0.442421 0.062180 -0.022483
C52   C     C_R   0.429764 0.445763 0.121840 0.574680
C53   C     C_R   0.547282 0.563077 0.125526 0.570096
C54   C     C_2   0.093127 0.464931 0.772036 -0.105562
C55   C     C_3   0.033332 0.475936 0.711261 -0.045991
C56   C     C_3   0.992492 0.630479 0.658741 0.310756
C57   C     C_1   0.300939 0.516850 0.692501 -0.013531
C58   C     C_2   0.340555 0.527780 0.749136 -0.054154
C59   C     C_2   0.245924 0.489848 0.791192 0.172301
C60   C     C_R   0.706689 0.541754 0.237679 -0.106604
C61   C     C_R   0.751994 0.546359 0.296928 -0.006356
C62   C     C_R   0.501529 0.486052 0.315174 0.030454
C63   C     C_R   0.451928 0.483533 0.256194 -0.107582
C64   C     C_R   0.554660 0.510948 0.216108 0.181744
C65   C     C_2   0.174022 0.477409 0.670367 -0.268998
C66   C     C_3   0.018198 0.657304 0.724898 -0.375388
C67   C     C_3   0.319176 0.318100 0.393947 0.320002
C68   C     C_3   0.312248 0.237291 0.376633 -0.386299
H1    H     H_    0.335423 0.639169 0.317405 0.077792
H2    H     H_    0.904153 0.290649 0.253542 0.001168
H3    H     H_    0.088601 0.322216 0.291120 0.085141
H4    H     H_    0.109011 0.613021 0.638808 0.012906
H5    H     H_    0.902605 0.585141 0.651785 0.049460
H6    H     H_    0.107291 0.703000 0.732334 0.135734
H7    H     H_    0.064778 0.615165 0.746799 0.051959
H8    H     H_    0.901664 0.674710 0.745550 0.133804
H9    H     H_    0.196569 0.336623 0.405753 -0.034294
H10   H     H_    0.402108 0.333302 0.432745 0.090354
H11   H     H_    0.227922 0.723679 0.256330 0.152769
H12   H     H_    0.224742 0.220064 0.339403 0.109430
H13   H     H_    0.273115 0.213301 0.414753 0.060000
H14   H     H_    0.434109 0.217921 0.363036 0.134919
H15   H     H_    0.523846 0.691419 0.327297 -0.059159
H16   H     H_    0.410839 0.684528 0.226731 0.142027
H17   H     H_    0.610420 0.666061 0.605184 0.012598
H18   H     H_    0.405327 0.669997 0.577720 0.076795
H19   H     H_    0.580775 0.782780 0.671679 0.128434
H20   H     H_    0.539980 0.788908 0.595545 0.056642
H21   H     H_    0.373955 0.785796 0.645647 0.126240
H22   H     H_    0.417517 0.774540 0.267957 0.114071
H23   H     H_    0.896080 0.836083 0.362927 0.068635
H24   H     H_    0.803724 0.281322 0.609739 0.087273
H25   H     H_    0.011971 0.290388 0.637318 -0.057530
H26   H     H_    0.736130 0.199716 0.679096 0.145890
H27   H     H_    0.897730 0.166456 0.630515 0.068608
H28   H     H_    0.943778 0.207967 0.706569 0.126305
H29   H     H_    0.268964 0.303318 0.674928 -0.041579
H30   H     H_    0.439775 0.366760 0.681371 0.076069
H31   H     H_    0.384505 0.326939 0.775748 0.127940
H32   H     H_    0.579724 0.298335 0.748312 0.158002
H33   H     H_    0.982200 0.725174 0.393771 0.070177
H34   H     H_    0.408858 0.235139 0.740678 0.113376
H35   H     H_    0.871132 0.175273 0.433826 0.078028
H36   H     H_    0.176408 0.165579 0.586782 0.066933
H37   H     H_    0.636292 0.831283 0.411170 0.067082
H38   H     H_    0.944886 0.824471 0.563835 0.076045
H39   H     H_    0.161208 0.353872 0.517442 0.064268
H40   H     H_    0.642774 0.647168 0.486760 0.065388
H41   H     H_    0.295256 0.084996 0.536227 0.076336
H42   H     H_    0.445072 0.999583 0.573804 0.079698
H43   H     H_    0.362220 0.873812 0.545183 0.097255
H44   H     H_    0.792333 0.710352 0.352278 -0.061134
H45   H     H_    0.109911 0.841978 0.487740 0.128740
H46   H     H_    0.518858 0.913506 0.459088 0.076091
H47   H     H_    0.370246 0.999048 0.421515 0.079562
H48   H     H_    0.453137 0.124988 0.450939 0.093978
H49   H     H_    0.703880 0.156242 0.508483 0.129427
H50   H     H_    0.250452 0.340539 0.052201 0.116624
H51   H     H_    0.171553 0.335647 0.949590 0.122525
H52   H     H_    0.791183 0.561737 0.208529 0.115098
H53   H     H_    0.609323 0.639067 0.946449 0.121035
H54   H     H_    0.079331 0.806388 0.327139 0.146655
H55   H     H_    0.390458 0.580766 0.765836 0.126148
H56   H     H_    0.007345 0.445129 0.801329 0.142501
H57   H     H_    0.333999 0.459959 0.241912 0.166298
H58   H     H_    0.686285 0.521413 0.380977 0.080680
H59   H     H_    0.183723 0.437526 0.630117 0.053484
H60   H     H_    0.889499 0.791571 0.286780 0.129707
H61   H     H_    0.752505 0.380799 0.322928 -0.027146
H62   H     H_    0.938199 0.414891 0.360447 0.075874
N1    N     N_R   0.308836 0.486305 0.851100 -0.418801
N2    N     N_R   0.508066 0.506582 0.153803 -0.420023
O1    O     O_2   0.108070 0.674980 0.540650 -0.457919
O2    O     O_3   0.374156 0.347003 0.345761 -0.626833
O3    O     O_3   0.994441 0.669028 0.307921 -0.598671
O4    O     O_2   0.702240 0.324970 0.459330 -0.445712
O5    O     O_3   0.948380 0.413820 0.464520 -0.500384
O6    O     O_3   0.443920 0.371740 0.566130 -0.468964
O7    O     O_3   0.861986 0.309907 0.365708 -0.665431
O8    O     O_3   0.358830 0.538360 0.571050 -0.480295
O9    O     O_3   0.852160 0.408490 0.597560 -0.489639
O10   O     O_2   0.699295 0.451364 0.698676 -0.459482
O11   O     O_3   0.842223 0.334588 0.696614 -0.595387
O12   O     O_3   0.861930 0.586170 0.535430 -0.490477
O13   O     O_3   0.451480 0.461630 0.428900 -0.492458
O14   O     O_2   0.599240 0.538720 0.642170 -0.450060
O15   O     O_3   0.429169 0.656208 0.664936 -0.642436
O16   O     O_2   0.527942 0.246225 0.520243 -0.507916
O17   O     O_3   0.482687 0.265177 0.635300 -0.599295
O18   O     O_2   0.511447 0.571107 0.851508 -0.607177
O19   O     O_2   0.172582 0.381758 0.854641 -0.609738
O20   O     O_2   0.403505 0.393796 0.144849 -0.605656
O21   O     O_2   0.600905 0.619139 0.154581 -0.612645
O22   O     O_3   0.366390 0.628250 0.433820 -0.475887
O23   O     O_2   0.286438 0.752738 0.484777 -0.504240
O24   O     O_3   0.934964 0.686540 0.634281 -0.636183
O25   O     O_3   0.321265 0.739319 0.369320 -0.598906
O26   O     O_2   0.211060 0.461230 0.357810 -0.458434
O27   O     O_3   0.958150 0.591500 0.402390 -0.492463
O28   O     O_2   0.086798 0.539390 0.297702 -0.454387
P1    P     P_3+3 0.933470 0.664380 0.557030 0.980795
P2    P     P_3+3 0.383600 0.440030 0.365120 1.004955
P3    P     P_3+3 0.948065 0.585710 0.325694 0.972089
P4    P     P_3+3 0.876840 0.335610 0.442930 0.974841
P5    P     P_3+3 0.859613 0.417902 0.675384 0.973226
P6    P     P_3+3 0.396381 0.718027 0.434752 0.929207
P7    P     P_3+3 0.419547 0.563275 0.644618 0.957976
P8    P     P_3+3 0.412599 0.282556 0.567771 0.923181
O29   O     O_3   0.995969 0.394058 0.245186 -0.637031
C69   C     C_3   0.898279 0.382335 0.193362 0.271655
H63   H     H_    0.771054 0.394632 0.205262 0.050854
H64   H     H_    0.902417 0.326559 0.168603 0.041623
C70   C     C_3   0.960563 0.430250 0.151792 -0.305781
H65   H     H_    0.071830 0.408353 0.129968 0.130802
H66   H     H_    0.867573 0.433136 0.117285 0.060281
H67   H     H_    0.991158 0.484543 0.176533 0.135883
C71   C     C_1   0.691565 0.668353 0.057496 0.353324
N3    N     N_1   0.775487 0.716322 0.078366 -0.268907

loop_
_geom_bond_atom_site_label_1
_geom_bond_atom_site_label_2
_ccdc_geom_bond_type
O29   C69   S    
C23   H23   S    
Ba1   O22   S    
O26   P2    D    
C39   C40   A    
C6    H26   S    
C62   P2    S    
O3    P3    S    
C59   N1    S    
C5    C6    S    
C70   H66   S    
C51   C52   A    
C50   C51   A    
C53   O21   D    
O7    P4    S    
C31   C37   A    
O17   P8    S    
C40   N1    Am   
O15   P7    S    
Ba2   O5    S    
C63   H57   S    
C26   C27   A    
C33   C35   A    
C35   C36   A    
C22   C24   A    
Ba1   Ba2   S    
O13   P2    S    
C34   H62   S    
C10   P4    S    
C3    C4    S    
C37   H49   S    
C2    O25   S    
O22   P6    S    
Ba2   O14   S    
C4    H21   S    
C52   N2    Am   
C3    O15   S    
C54   C55   S    
C34   C45   S    
C16   C17   A    
C41   N1    Am   
C6    H28   S    
Ba1   O8    S    
C14   H37   S    
C57   C65   D    
C64   N2    S    
C3    H18   S    
C34   O7    S    
C7    O17   S    
C70   H65   S    
Ba1   P2    S    
C14   C15   A    
C1    H11   S    
O6    P8    S    
C39   C44   A    
C54   H56   S    
C40   O18   D    
C7    C8    S    
Ba2   P4    S    
Ba1   O5    S    
C69   C70   S    
C18   C32   S    
Ba1   O27   S    
C57   C58   D    
C7    H29   S    
C1    H16   S    
Ba2   O9    S    
Ba1   O12   S    
C65   H59   S    
C22   H41   S    
C55   C65   S    
C23   H60   S    
O23   P6    D    
C69   H64   S    
C56   H5    S    
C31   C32   A    
C70   H67   S    
C16   H38   S    
Ba1   O26   S    
C66   H8    S    
C36   C37   A    
C44   C46   A    
C9    C18   A    
C48   C51   A    
C20   C29   S    
C60   C64   A    
O10   P5    D    
C49   C50   A    
Ba2   O4    S    
C30   C33   A    
C8    H32   S    
C45   H3    S    
C56   O24   S    
C34   H61   S    
C28   C32   A    
C17   P1    S    
C2    H15   S    
Ba2   O13   S    
C12   H44   S    
C10   C19   A    
C13   P8    S    
C1    H22   S    
C36   H48   S    
O5    P4    S    
C17   C21   A    
C41   C42   A    
C9    H35   S    
C27   C28   A    
C26   H45   S    
O28   P3    D    
C19   H39   S    
C29   C30   A    
C12   O3    S    
C61   P3    S    
C60   C61   A    
O14   P7    D    
C24   C25   A    
C35   H47   S    
C33   H46   S    
C5    H24   S    
C15   C21   A    
C66   H6    S    
C68   H13   S    
C38   C61   A    
O9    P5    S    
O24   P1    S    
O8    P7    S    
C50   H50   S    
C42   C49   A    
C56   C66   S    
C46   C47   A    
O25   P6    S    
C47   C48   A    
C7    H30   S    
C11   C13   A    
Ba2   O8    S    
C44   H53   S    
C67   H9    S    
Ba2   O12   S    
C57   P7    S    
C1    C2    S    
C53   N2    Am   
C24   H42   S    
C60   H52   S    
C68   H14   S    
C69   H63   S    
C56   H4    S    
O11   P5    S    
C66   H7    S    
C21   H40   S    
C58   H55   S    
C14   C20   A    
C11   C18   A    
O2    P2    S    
C16   C20   A    
O1    P1    D    
C8    H31   S    
C42   C43   A    
C11   H36   S    
C15   P6    S    
C52   O20   D    
C45   O29   S    
C9    C10   A    
C55   P5    S    
C25   H43   S    
C4    H19   S    
C5    H25   S    
O12   P1    S    
C38   C62   A    
O4    P4    D    
Ba2   O6    S    
C62   C63   A    
C8    H34   S    
C27   C29   A    
C47   C53   A    
C30   C31   A    
C12   H33   S    
O16   P8    D    
C43   C48   A    
C6    H27   S    
C49   H51   S    
C67   O2    S    
C2    H1    S    
C12   C23   S    
C67   C68   S    
C68   H12   S    
C23   H54   S    
C22   C28   A    
C45   H2    S    
Ba1   O13   S    
C71   N3    T    
C3    H17   S    
C13   C19   A    
C4    H20   S    
Ba1   P1    S    
C63   C64   A    
C25   C26   A    
C39   C43   A    
C54   C59   D    
C58   C59   S    
C67   H10   S    
Ba1   O1    S    
C41   O19   D    
C46   C71   S    
O27   P3    S    
C5    O11   S    
C38   H58   S    
