data_mof_unit_45309.cif
_audit_creation_date              2013-03-05T16:07:31-0500
_audit_creation_method            fapswitch 2.2
_symmetry_space_group_name_H-M    P1
_symmetry_Int_Tables_number       1
_space_group_crystal_system       triclinic
_cell_length_a                    10.948361
_cell_length_b                    10.789026
_cell_length_c                    9.689203
_cell_angle_alpha                 87.992133
_cell_angle_beta                  90.689342
_cell_angle_gamma                 88.08471
_cell_volume                      1143.06793633

loop_
_atom_site_label
_atom_site_type_symbol
_atom_site_description
_atom_site_fract_x
_atom_site_fract_y
_atom_site_fract_z
_atom_type_partial_charge
O1    O     O_R   0.499990 0.319660 0.618740 -0.496082
O2    O     O_R   0.500010 0.680340 0.381260 -0.532850
O3    O     O_R   0.499990 0.319630 0.381170 -0.591378
O4    O     O_R   0.500010 0.680370 0.618830 -0.605874
C1    C     C_R   0.500765 0.262577 0.501693 0.820746
C2    C     C_R   0.500059 0.737324 0.498411 0.784906
O5    O     O_R   0.319650 0.500020 0.618780 -0.561608
O6    O     O_R   0.680350 0.499980 0.381220 -0.533119
O7    O     O_R   0.319640 0.500000 0.381210 -0.550145
O8    O     O_R   0.680360 0.500000 0.618790 -0.559892
C3    C     C_R   0.263084 0.498795 0.498806 0.812619
C4    C     C_R   0.738091 0.495880 0.501503 0.815718
Cu1   Cu    Cu3+1 0.500000 0.500020 0.640660 1.042794
Cu2   Cu    Cu3+1 0.500000 0.499980 0.359340 1.052012
C5    C     C_R   0.182720 0.417853 0.018636 -0.273254
C6    C     C_R   0.916284 0.259550 0.912525 -0.167966
H1    H     H_    0.199159 0.473559 0.926459 0.178280
H2    H     H_    0.941454 0.162272 0.929287 0.190212
C7    C     C_R   0.138239 0.477337 0.134368 -0.155546
C8    C     C_R   0.937556 0.315142 0.783917 -0.131967
H3    H     H_    0.118163 0.576303 0.128203 0.189662
H4    H     H_    0.980991 0.260792 0.705100 0.177780
C9    C     C_R   0.118526 0.409166 0.256735 0.071436
C10   C     C_R   0.905152 0.440414 0.757248 0.121501
C11   C     C_R   0.141913 0.280672 0.261774 -0.120190
C12   C     C_R   0.855036 0.510950 0.860960 -0.202316
H5    H     H_    0.125056 0.227371 0.356147 0.175233
H6    H     H_    0.835077 0.609150 0.841598 0.149011
C13   C     C_R   0.180496 0.218891 0.144394 0.089509
C14   C     C_R   0.830952 0.455844 0.990451 0.064699
C15   C     C_R   0.201513 0.287933 0.019867 0.327565
C16   C     C_R   0.860981 0.327504 0.017283 0.412502
C17   C     C_R   0.936078 0.475543 0.381307 -0.195472
C18   C     C_R   0.068112 0.516683 0.619016 -0.208100
H7    H     H_    0.887099 0.455265 0.290575 0.228421
H8    H     H_    0.118803 0.529183 0.713710 0.168135
C19   C     C_R   0.873540 0.492113 0.504295 -0.083503
C20   C     C_R   0.129852 0.497513 0.496119 -0.066000
C21   C     C_R   0.943377 0.498497 0.626945 0.002198
C22   C     C_R   0.062803 0.468448 0.377185 0.009819
C23   C     C_R   0.438042 0.070614 0.397467 -0.153797
C24   C     C_R   0.564334 0.929032 0.602794 -0.158864
H9    H     H_    0.388849 0.125242 0.318067 0.159907
H10   H     H_    0.614748 0.874955 0.682263 0.160026
C25   C     C_R   0.438053 0.942350 0.394967 -0.096375
C26   C     C_R   0.563658 0.057273 0.605449 -0.068957
H11   H     H_    0.385622 0.899293 0.316134 0.223456
H12   H     H_    0.615802 0.099746 0.684585 0.219530
C27   C     C_R   0.501849 0.871306 0.497115 -0.041450
C28   C     C_R   0.499906 0.128412 0.503254 -0.019312
C29   C     C_R   0.525337 0.394652 0.079210 -0.108635
C30   C     C_R   0.463315 0.602612 0.920323 -0.195593
H13   H     H_    0.544184 0.308880 0.136823 0.225385
H14   H     H_    0.431378 0.684583 0.861583 0.205104
C31   C     C_R   0.530748 0.394841 0.932811 0.457273
C32   C     C_R   0.461576 0.603164 0.067395 0.415999
N1    N     N_R   0.500030 0.500030 0.852070 -0.233263
N2    N     N_R   0.499970 0.499970 0.147930 -0.235500
N3    N     N_R   0.238938 0.229378 0.894645 0.119742
O9    O     O_R   0.280122 0.295944 0.792106 -0.359476
O10   O     O_R   0.221235 0.112612 0.875525 -0.363917
N4    N     N_R   0.836574 0.263887 0.146883 0.103462
O11   O     O_R   0.892182 0.158178 0.179304 -0.372785
O12   O     O_R   0.749273 0.302079 0.225830 -0.365837
N5    N     N_R   0.575404 0.283878 0.872778 0.131723
O13   O     O_R   0.541138 0.176717 0.921398 -0.351952
O14   O     O_R   0.671571 0.288173 0.796091 -0.397887
N6    N     N_R   0.411250 0.711610 0.128222 0.121826
O15   O     O_R   0.443250 0.820217 0.081588 -0.384368
O16   O     O_R   0.311347 0.703595 0.198657 -0.386059
N7    N     N_3   0.195178 0.086477 0.155146 -0.552799
H15   H     H_    0.128630 0.047653 0.093416 0.286622
H16   H     H_    0.281984 0.060238 0.120514 0.278216
N8    N     N_3   0.779772 0.532885 0.093274 -0.546143
H17   H     H_    0.704567 0.581911 0.049353 0.224689
H18   H     H_    0.843669 0.599796 0.114659 0.210513

loop_
_geom_bond_atom_site_label_1
_geom_bond_atom_site_label_2
_geom_bond_distance
_ccdc_geom_bond_type
C14   C16   1.426624 A    
C5    C7    1.396117 A    
N8    H18   1.046052 S    
O1    C1    1.309335 A    
C7    H3    1.082362 S    
C10   C12   1.388864 A    
C14   N8    1.427506 S    
Cu1   N1    2.048394 S    
C9    C22   1.478742 S    
O4    Cu1   1.949885 S    
C10   C21   1.461722 S    
C24   C26   1.384509 A    
C15   N3    1.444810 S    
C4    C19   1.482035 S    
N4    O12   1.296861 A    
C8    C10   1.400220 A    
N6    O15   1.301576 A    
N5    O14   1.297100 A    
C29   C31   1.420378 A    
C6    C8    1.389507 A    
N3    O9    1.299458 A    
Cu1   Cu2   2.725783 S    
C23   H9    1.079969 S    
O2    C2    1.309712 A    
C24   H10   1.083837 S    
C31   N5    1.423779 S    
C30   H14   1.080551 S    
O5    C3    1.311228 A    
C25   H11   1.077447 S    
C11   C13   1.400757 A    
Cu2   N2    2.048394 S    
C26   H12   1.074902 S    
N3    O10   1.300296 A    
C17   C22   1.388116 A    
N8    H17   1.041872 S    
C18   C21   1.388794 A    
O4    C2    1.299509 A    
N7    H16   1.045144 S    
C32   N6    1.425815 S    
C17   C19   1.395418 A    
C29   H13   1.076476 S    
C3    C20   1.459133 S    
C7    C9    1.396038 A    
O7    Cu2   1.988512 S    
N4    O11   1.301518 A    
C25   C27   1.396195 A    
O6    C4    1.317817 A    
C29   N2    1.359404 A    
O7    C3    1.303187 A    
O3    Cu2   1.949885 S    
O8    C4    1.308386 A    
C6    H2    1.082344 S    
C8    H4    1.083822 S    
C12   C14   1.401197 A    
C31   N1    1.385286 A    
C1    C28   1.447404 S    
C11   H5    1.084058 S    
C23   C28   1.398045 A    
C5    H1    1.079245 S    
O6    Cu2   1.983346 S    
C18   C20   1.394602 A    
O3    C1    1.300659 A    
O8    Cu1   1.988511 S    
C5    C15   1.409522 A    
C6    C16   1.404159 A    
C26   C28   1.396792 A    
C12   H6    1.084002 S    
C16   N4    1.441971 S    
N7    H15   1.044756 S    
C19   C21   1.410325 A    
C20   C22   1.409079 A    
C17   H7    1.057474 S    
C32   N2    1.387485 A    
C18   H8    1.081406 S    
C9    C11   1.400382 A    
C2    C27   1.445936 S    
O2    Cu2   1.964852 S    
C30   N1    1.360800 A    
C24   C27   1.400238 A    
O5    Cu1   1.983348 S    
O1    Cu1   1.964852 S    
C13   C15   1.420832 A    
N5    O13   1.301715 A    
N6    O16   1.299891 A    
C23   C25   1.384901 A    
C30   C32   1.425586 A    
C13   N7    1.432286 S    
