data_mof_unit_49271.cif
_audit_creation_date              2012-12-10T18:13:53-0500
_audit_creation_method            fapswitch 2.2
_symmetry_space_group_name_H-M    P1
_symmetry_Int_Tables_number       1
_space_group_crystal_system       triclinic
_cell_length_a                    10.724258
_cell_length_b                    9.415783
_cell_length_c                    23.503164
_cell_angle_alpha                 89.738287
_cell_angle_beta                  90.056109
_cell_angle_gamma                 90.646591
_cell_volume                      2373.10881601

loop_
_atom_site_label
_atom_site_type_symbol
_atom_type_description
_atom_site_fract_x
_atom_site_fract_y
_atom_site_fract_z
_atom_type_partial_charge
C1    C     C_R   0.259900 0.499157 0.499789 0.817470
C2    C     C_R   0.301739 0.579598 0.970857 0.416516
C3    C     C_R   0.303728 0.575175 0.030566 -0.276250
C4    C     C_R   0.413261 0.543571 0.060239 -0.039556
C5    C     C_R   0.523393 0.515434 0.029997 -0.022768
C6    C     C_R   0.633676 0.484903 0.060008 -0.055268
C7    C     C_R   0.743703 0.459093 0.029930 -0.267050
C8    C     C_R   0.744889 0.458297 0.970322 0.448799
C9    C     C_R   0.415218 0.539531 0.119922 0.552691
C10   C     C_R   0.631351 0.482089 0.119776 0.552442
C11   C     C_R   0.518292 0.633947 0.239466 -0.115468
C12   C     C_R   0.501738 0.500401 0.390933 0.810511
C13   C     C_R   0.511595 0.631935 0.298659 -0.235335
C14   C     C_R   0.508149 0.501996 0.328367 -0.029806
C15   C     C_R   0.512961 0.374223 0.297752 -0.242147
C16   C     C_R   0.520208 0.376616 0.238484 -0.120872
C17   C     C_R   0.522233 0.506441 0.209231 0.363518
C18   C     C_R   0.435366 0.415471 0.764107 -0.240238
C19   C     C_R   0.420518 0.414394 0.704236 0.414129
C20   C     C_R   0.501346 0.501381 0.671397 -0.108779
C21   C     C_R   0.585144 0.595382 0.698141 -0.328455
C22   C     C_R   0.592440 0.601252 0.757187 -0.093376
C23   C     C_R   0.740244 0.500719 0.499583 0.824380
C24   C     C_R   0.518144 0.510726 0.790441 0.296468
C25   C     C_3   0.073429 0.585253 0.549965 -0.378097
C26   C     C_3   0.069868 0.344500 0.503889 -0.372545
C27   C     C_3   0.929825 0.586008 0.550130 -0.501741
C28   C     C_3   0.927314 0.346760 0.503908 -0.437753
C29   C     C_3   0.075544 0.561741 0.441731 -0.493541
C30   C     C_3   0.122371 0.498100 0.498918 0.060612
C31   C     C_3   0.878772 0.502364 0.498254 0.080346
C32   C     C_3   0.928555 0.570283 0.440949 0.871920
C33   C     C_3   0.625556 0.085102 0.488286 -0.339719
C34   C     C_3   0.625262 0.917767 0.488142 -0.317672
C35   C     C_3   0.462400 0.083064 0.557500 0.398163
C36   C     C_3   0.462772 0.914269 0.557595 0.388008
C37   C     C_3   0.413544 0.083055 0.457826 -0.184812
C38   C     C_3   0.413179 0.915818 0.457961 -0.184787
C39   C     C_R   0.497836 0.499895 0.608978 0.855933
C40   C     C_R   0.630265 0.488406 0.879700 0.558901
C41   C     C_R   0.415348 0.552752 0.880175 0.567304
C42   C     C_R   0.412307 0.550896 0.940092 -0.038356
C43   C     C_R   0.523320 0.518350 0.969857 -0.151547
C44   C     C_R   0.634292 0.488882 0.939685 -0.093448
Cu1   Cu    Cu3+1 0.499860 0.642410 0.500030 0.947279
Cu2   Cu    Cu3+1 0.499860 0.357590 0.500030 0.953817
H1    H     H_    0.645299 0.664553 0.673092 0.157885
H2    H     H_    0.655870 0.676248 0.777123 0.160856
H3    H     H_    0.110709 0.695688 0.548911 0.201236
H4    H     H_    0.102510 0.278882 0.467634 0.173280
H5    H     H_    0.107664 0.538655 0.590473 0.182487
H6    H     H_    0.103596 0.293061 0.543629 0.212771
H7    H     H_    0.895264 0.536111 0.590254 0.177077
H8    H     H_    0.892847 0.297757 0.544243 0.169981
H9    H     H_    0.895734 0.696955 0.550086 0.178259
H10   H     H_    0.891807 0.279332 0.468499 0.208498
H11   H     H_    0.124743 0.662458 0.431750 0.145677
H12   H     H_    0.106776 0.490136 0.407083 0.155406
H13   H     H_    0.694493 0.122499 0.520423 0.149368
H14   H     H_    0.693831 0.880173 0.520196 0.149420
H15   H     H_    0.218867 0.596823 0.053791 0.185750
H16   H     H_    0.658454 0.125749 0.446308 0.187927
H17   H     H_    0.657101 0.879181 0.445969 0.209589
H18   H     H_    0.531371 0.119344 0.590114 0.036558
H19   H     H_    0.532814 0.880087 0.589964 0.021061
H20   H     H_    0.317184 0.121061 0.465123 0.179581
H21   H     H_    0.316645 0.876102 0.465590 0.186021
H22   H     H_    0.440327 0.121496 0.414722 0.132560
H23   H     H_    0.439104 0.878244 0.414856 0.130417
H24   H     H_    0.830036 0.439890 0.052514 0.194286
H25   H     H_    0.519615 0.734567 0.216968 0.134462
H26   H     H_    0.508714 0.732101 0.321055 0.147065
H27   H     H_    0.511178 0.272598 0.319506 0.147816
H28   H     H_    0.522762 0.277716 0.215209 0.136639
H29   H     H_    0.381198 0.345458 0.791296 0.130069
N1    N     N_R   0.522003 0.518846 0.851553 -0.474300
N2    N     N_R   0.523110 0.509018 0.148288 -0.469302
N3    N     N_3   0.500250 0.143650 0.501250 -0.135345
N4    N     N_3   0.500250 0.856350 0.501250 -0.136293
O1    O     O_R   0.317570 0.620260 0.500030 -0.558521
O2    O     O_R   0.317570 0.379740 0.500030 -0.552372
O3    O     O_R   0.499840 0.620290 0.417900 -0.594451
O4    O     O_R   0.499840 0.379710 0.417900 -0.596499
O5    O     O_R   0.682190 0.620260 0.500010 -0.574906
O6    O     O_R   0.682190 0.379740 0.500010 -0.608010
O7    O     O_R   0.499920 0.620230 0.582140 -0.581097
O8    O     O_R   0.499920 0.379770 0.582140 -0.540577
O9    O     O_2   0.732683 0.455216 0.849490 -0.499768
O10   O     O_2   0.312759 0.588571 0.850319 -0.477989
O11   O     O_2   0.310051 0.565253 0.149475 -0.540725
O12   O     O_2   0.736253 0.453217 0.149177 -0.558285
O13   O     O_3   0.192539 0.610710 0.942277 -0.665462
H30   H     H_    0.124567 0.625930 0.970100 0.331691
O14   O     O_3   0.329810 0.332863 0.676100 -0.588526
C45   C     C_3   0.225524 0.298897 0.710844 0.055684
H31   H     H_    0.194436 0.392694 0.735685 0.175751
H32   H     H_    0.248749 0.209660 0.739999 0.150487
C46   C     C_3   0.115626 0.251128 0.674354 -0.793411
H33   H     H_    0.138935 0.154777 0.649809 0.249769
H34   H     H_    0.034599 0.225643 0.702117 0.208661
H35   H     H_    0.088618 0.337140 0.644745 0.239609
O15   O     O_3   0.874762 0.708872 0.433117 -0.619919
C47   C     C_3   0.946028 0.830493 0.448587 0.004370
H36   H     H_    0.021721 0.811772 0.479229 0.146819
H37   H     H_    0.883525 0.904924 0.470664 0.160706
C48   C     C_3   0.994429 0.907078 0.395639 -0.849047
H38   H     H_    0.914953 0.937623 0.368005 0.255308
H39   H     H_    0.046376 0.004673 0.408270 0.210168
H40   H     H_    0.057678 0.838225 0.371049 0.233246
O16   O     O_3   0.883764 0.480000 0.396606 -0.631127
C49   C     C_3   0.889792 0.545375 0.342284 0.085287
H41   H     H_    0.979664 0.603098 0.335346 0.147876
H42   H     H_    0.811266 0.620597 0.337123 0.194357
C50   C     C_3   0.877047 0.431781 0.296833 -0.761345
H43   H     H_    0.787797 0.372465 0.302343 0.256502
H44   H     H_    0.878301 0.481991 0.254004 0.248926
H45   H     H_    0.955656 0.356354 0.300108 0.241849
O17   O     O_3   0.344727 0.134560 0.572677 -0.676042
H46   H     H_    0.334846 0.113996 0.613816 0.332639
O18   O     O_3   0.345164 0.858415 0.573023 -0.704497
H47   H     H_    0.341347 0.857596 0.615233 0.299821
O19   O     O_3   0.857098 0.439783 0.942412 -0.531178
C51   C     C_3   0.889096 0.294744 0.944673 0.092480
H48   H     H_    0.813127 0.226791 0.926611 0.148979
H49   H     H_    0.908646 0.260531 0.989157 0.125992
C52   C     C_3   0.006321 0.272277 0.909609 -0.686463
H50   H     H_    0.084931 0.335741 0.927450 0.262257
H51   H     H_    0.031565 0.158196 0.910445 0.186852
H52   H     H_    0.990114 0.305430 0.864806 0.267549

loop_
_geom_bond_atom_site_label_1
_geom_bond_atom_site_label_2
_ccdc_geom_bond_type
C41   O10   S    
C18   H29   S    
C41   C42   A    
C22   H2    S    
C45   H31   S    
C39   O8    A    
C7    H24   S    
C50   H43   S    
C28   H10   S    
C45   C46   S    
C7    C8    A    
C49   H42   S    
Cu1   Cu2   S    
C52   H50   S    
C32   O16   S    
C18   C24   A    
O13   H30   S    
C37   C38   S    
C33   H16   S    
C29   C32   S    
C26   H4    S    
C5    C6    A    
C27   H9    S    
C33   N3    S    
C51   H49   S    
C48   H38   S    
C1    O2    A    
C15   C16   A    
C37   H22   S    
C18   C19   A    
O16   C49   S    
C1    C30   S    
O17   H46   S    
Cu1   O3    S    
C16   C17   A    
C35   H18   S    
C49   C50   S    
Cu2   O6    S    
C5    C43   A    
C38   H23   S    
C33   H13   S    
C21   C22   A    
C34   H14   S    
O15   C47   S    
C10   N2    A    
C3    H15   S    
C23   O5    A    
C27   C31   S    
C51   H48   S    
C47   H37   S    
Cu2   N3    S    
C20   C39   S    
C28   H8    S    
C36   H19   S    
C24   N1    S    
C51   C52   S    
C52   H52   S    
C40   N1    A    
C12   O4    A    
C35   C36   S    
C23   C31   S    
C47   C48   S    
C43   C44   A    
C25   H5    S    
C29   C30   S    
C26   H6    S    
C34   N4    S    
Cu2   O2    S    
C31   C32   S    
C37   H20   S    
C20   C21   A    
C17   N2    S    
C33   C34   S    
C12   O3    A    
Cu1   N4    S    
C9    N2    A    
C38   H21   S    
C2    O13   S    
C19   O14   S    
C15   H27   S    
C29   H11   S    
C10   O12   S    
C26   C30   S    
C46   H34   S    
C23   O6    A    
C22   C24   A    
Cu1   O5    S    
C42   C43   A    
C3    C4    A    
O18   H47   S    
Cu2   O8    S    
C25   C30   S    
C45   H32   S    
C11   C17   A    
C52   H51   S    
C49   H41   S    
C28   C31   S    
C8    C44   A    
C12   C14   S    
C4    C5    A    
C36   N4    S    
C9    O11   S    
C6    C10   A    
C50   H44   S    
C27   H7    S    
C6    C7    A    
C16   H28   S    
C13   H26   S    
C25   C27   S    
C46   H35   S    
C37   N3    S    
C35   N3    S    
C26   C28   S    
C40   O9    S    
C19   C20   A    
C2    C3    A    
O19   C51   S    
C32   O15   S    
C41   N1    A    
C11   C13   A    
C8    O19   S    
C48   H39   S    
C2    C42   A    
C34   H17   S    
Cu1   O7    S    
Cu1   O1    S    
C11   H25   S    
O14   C45   S    
C36   O18   S    
C25   H3    S    
C50   H45   S    
Cu2   O4    S    
C40   C44   A    
C29   H12   S    
C46   H33   S    
C38   N4    S    
C47   H36   S    
C1    O1    A    
C14   C15   A    
C35   O17   S    
C39   O7    A    
C4    C9    A    
C13   C14   A    
C21   H1    S    
C48   H40   S    
