data_mof_unit_53484.cif
_audit_creation_date              2012-12-11T14:19:17-0500
_audit_creation_method            fapswitch 2.2
_symmetry_space_group_name_H-M    P1
_symmetry_Int_Tables_number       1
_space_group_crystal_system       triclinic
_cell_length_a                    19.417739
_cell_length_b                    7.232539
_cell_length_c                    17.754984
_cell_angle_alpha                 89.999551
_cell_angle_beta                  107.665054
_cell_angle_gamma                 90.000091
_cell_volume                      2375.92529656

loop_
_atom_site_label
_atom_site_type_symbol
_atom_type_description
_atom_site_fract_x
_atom_site_fract_y
_atom_site_fract_z
_atom_type_partial_charge
O1    O     O_R   0.414820 0.494320 0.416790 -0.540154
O2    O     O_R   0.585180 0.994320 0.583210 -0.540153
O3    O     O_R   0.560270 0.819500 0.430140 -0.544464
O4    O     O_R   0.439730 0.319500 0.569860 -0.544465
C1    C     C_R   0.581409 0.655545 0.415050 0.711123
C2    C     C_R   0.418591 0.155544 0.584950 0.711123
O5    O     O_R   0.413840 0.823740 0.407440 -0.539211
O6    O     O_R   0.586160 0.323740 0.592560 -0.539211
O7    O     O_R   0.437710 0.998590 0.560350 -0.538919
O8    O     O_R   0.562290 0.498590 0.439650 -0.538917
C3    C     C_R   0.387924 0.654476 0.384904 0.747584
C4    C     C_R   0.612075 0.154475 0.615096 0.747583
O9    O     O_3   0.508000 0.662290 0.550200 -0.380563
O10   O     O_3   0.492000 0.162290 0.449800 -0.380562
V1    V     V_3+5 0.498520 0.935380 0.490690 1.396437
V2    V     V_3+5 0.501480 0.435380 0.509310 1.396435
C5    C     C_2   0.774458 0.271575 0.799541 0.183285
C6    C     C_2   0.225532 0.771592 0.200472 0.183279
C7    C     C_2   0.819740 0.121808 0.817161 -0.310537
C8    C     C_2   0.180259 0.621807 0.182840 -0.310561
H1    H     H_    0.808789 0.002871 0.778193 0.106643
H2    H     H_    0.191216 0.502853 0.221801 0.106647
C9    C     C_2   0.711615 0.283094 0.725774 -0.144406
C10   C     C_2   0.288374 0.783102 0.274241 -0.144409
C11   C     C_2   0.677135 0.136675 0.684814 -0.346779
C12   C     C_2   0.322866 0.636679 0.315185 -0.346778
H3    H     H_    0.690776 0.420294 0.706586 0.146787
H4    H     H_    0.309201 0.920303 0.293443 0.146787
H5    H     H_    0.694882 0.997659 0.704211 0.135711
H6    H     H_    0.305128 0.497664 0.295776 0.135711
C13   C     C_R   0.319361 0.295878 0.628109 -0.212860
C14   C     C_R   0.680636 0.795884 0.371883 -0.212851
C15   C     C_R   0.367949 0.149375 0.632763 -0.080277
C16   C     C_R   0.632048 0.649378 0.367233 -0.080276
C17   C     C_R   0.367546 0.999128 0.682554 -0.227037
C18   C     C_R   0.632444 0.499138 0.317436 -0.227034
C19   C     C_R   0.319816 0.995905 0.728199 0.105445
C20   C     C_R   0.680170 0.495920 0.271786 0.105444
C21   C     C_R   0.270421 0.143048 0.722788 0.026909
C22   C     C_R   0.729567 0.643057 0.277198 0.026900
C23   C     C_R   0.269842 0.294362 0.672068 0.077859
C24   C     C_R   0.730148 0.794373 0.327916 0.077869
C25   C     C_R   0.320464 0.846884 0.778912 -0.181718
C26   C     C_R   0.679509 0.346919 0.221061 -0.181721
C27   C     C_R   0.272600 0.842241 0.823742 -0.166401
C28   C     C_R   0.727367 0.342285 0.176223 -0.166401
C29   C     C_R   0.222977 0.986256 0.818582 0.101877
C30   C     C_R   0.776999 0.486279 0.181392 0.101882
C31   C     C_R   0.221332 0.137289 0.767751 0.009620
C32   C     C_R   0.778654 0.637296 0.232232 0.009612
C33   C     C_R   0.170321 0.280761 0.761179 0.040940
C34   C     C_R   0.829666 0.780759 0.238803 0.040962
C35   C     C_R   0.171544 0.432219 0.711522 -0.186170
C36   C     C_R   0.828433 0.932237 0.288443 -0.186187
C37   C     C_R   0.219841 0.439984 0.666667 0.147300
C38   C     C_R   0.780138 0.940012 0.333290 0.147301
C39   C     C_R   0.175799 0.981752 0.864453 -0.265517
C40   C     C_R   0.824176 0.481776 0.135518 -0.265502
C41   C     C_R   0.124534 0.122218 0.858984 -0.080282
C42   C     C_R   0.875451 0.622215 0.141000 -0.080286
C43   C     C_R   0.118790 0.268388 0.803566 0.116675
C44   C     C_R   0.881200 0.768374 0.196420 0.116639
H7    H     H_    0.319876 0.409523 0.588674 0.137369
H8    H     H_    0.680125 0.909527 0.411322 0.137367
H9    H     H_    0.405050 0.885805 0.686543 0.126467
H10   H     H_    0.594937 0.385818 0.313445 0.126462
H11   H     H_    0.357825 0.733048 0.783584 0.128015
H12   H     H_    0.642142 0.233094 0.216384 0.128015
H13   H     H_    0.274193 0.725141 0.862325 0.126229
H14   H     H_    0.725761 0.225205 0.137628 0.126229
H15   H     H_    0.179536 0.868363 0.905501 0.131885
H16   H     H_    0.820429 0.368411 0.094460 0.131862
H17   H     H_    0.135069 0.547401 0.707416 0.145242
H18   H     H_    0.864894 0.047436 0.292529 0.145249
O11   O     O_R   0.937810 0.773680 0.060480 -0.530355
O12   O     O_R   0.062190 0.273680 0.939520 -0.530366
O13   O     O_R   0.086190 0.439740 0.092580 -0.541627
O14   O     O_R   0.913810 0.939740 0.907420 -0.541629
C45   C     C_R   0.113374 0.609352 0.113925 0.732985
C46   C     C_R   0.886626 0.109352 0.886076 0.732967
O15   O     O_R   0.939760 0.444210 0.069890 -0.543801
O16   O     O_R   0.060240 0.944210 0.930110 -0.543790
O17   O     O_R   0.914790 0.269640 0.916760 -0.532947
O18   O     O_R   0.085210 0.769640 0.083240 -0.532933
C47   C     C_R   0.921251 0.613024 0.087276 0.702727
C48   C     C_R   0.078742 0.113026 0.912717 0.702707
O19   O     O_3   0.992050 0.601530 0.949880 -0.377842
O20   O     O_3   0.007950 0.101530 0.050120 -0.377844
V3    V     V_3+5 0.001480 0.328340 0.009300 1.387525
V4    V     V_3+5 0.998520 0.828340 0.990700 1.387547
C49   C     C_3   0.785077 0.438962 0.853113 -0.704223
H19   H     H_    0.737946 0.533880 0.834803 0.175415
H20   H     H_    0.790844 0.395753 0.914771 0.196048
H21   H     H_    0.833131 0.518943 0.850628 0.219348
C50   C     C_3   0.214905 0.939012 0.146915 -0.704178
H22   H     H_    0.262028 0.033953 0.165237 0.175401
H23   H     H_    0.209146 0.895841 0.085254 0.196056
H24   H     H_    0.166843 0.018958 0.149403 0.219348
C51   C     C_3   0.055442 0.401780 0.784739 -0.749679
H25   H     H_    0.032540 0.419728 0.719809 0.190315
H26   H     H_    0.009447 0.349823 0.803314 0.210289
H27   H     H_    0.073358 0.537792 0.812913 0.212481
C52   C     C_3   0.944554 0.901744 0.215238 -0.749641
H28   H     H_    0.967399 0.919949 0.280153 0.190306
H29   H     H_    0.990580 0.849595 0.196773 0.210182
H30   H     H_    0.926675 0.037642 0.186948 0.212564
C53   C     C_3   0.215792 0.603214 0.612435 -0.781499
H31   H     H_    0.200323 0.555149 0.550146 0.204274
H32   H     H_    0.175264 0.706949 0.617572 0.213480
H33   H     H_    0.268959 0.673489 0.627126 0.212988
C54   C     C_3   0.784172 0.103282 0.387508 -0.781522
H34   H     H_    0.730995 0.173492 0.372825 0.212989
H35   H     H_    0.799672 0.055276 0.449804 0.204285
H36   H     H_    0.824670 0.207061 0.382333 0.213492

loop_
_geom_bond_atom_site_label_1
_geom_bond_atom_site_label_2
_ccdc_geom_bond_type
O4    V2    S    
C35   C37   A    
C50   H22   S    
C5    C49   S    
O2    C4    A    
C2    O7    A    
C50   H24   S    
C29   C31   A    
O14   V4    S    
O5    C3    A    
O13   V3    S    
C5    C9    S    
C6    C10   S    
C7    H1    S    
C10   C12   D    
C45   O18   A    
C18   H10   S    
C39   C41   A    
C29   C39   A    
C17   H9    S    
C40   C42   A    
C42   C44   A    
C27   C29   A    
C23   C37   A    
O11   V4    S    
C24   C38   A    
C36   H18   S    
O11   C47   A    
C54   H35   S    
C54   H34   S    
C26   C28   A    
C31   C33   A    
O1    C3    A    
C32   C34   A    
C53   H31   S    
C13   C15   A    
C9    H3    S    
C54   H36   S    
C38   C54   S    
C16   C18   A    
O19   V4    S    
O12   V3    S    
O15   V3    S    
C30   C32   A    
O6    V2    S    
C6    C50   S    
C53   H32   S    
C43   C51   S    
O18   V4    S    
C46   O17   A    
C34   C36   A    
C28   C30   A    
O13   C45   A    
C11   H5    S    
O17   V3    S    
C36   C38   A    
C41   C43   A    
C27   H13   S    
C13   H7    S    
C14   H8    S    
O4    C2    A    
C49   H19   S    
C5    C7    D    
O5    V1    S    
C3    C12   S    
O16   C48   A    
C37   C53   S    
C33   C35   A    
C14   C16   A    
C19   C25   A    
C20   C26   A    
C49   H20   S    
C51   H25   S    
O6    C4    A    
C1    C16   S    
O14   C46   A    
C52   H29   S    
O1    V2    S    
C39   H15   S    
O2    V1    S    
C25   C27   A    
C21   C31   A    
C8    H2    S    
C12   H6    S    
C53   H33   S    
C26   H12   S    
O12   C48   A    
O3    V1    S    
C44   C52   S    
C13   C23   A    
C8    C45   S    
C17   C19   A    
C35   H17   S    
C10   H4    S    
O3    C1    A    
C42   C47   S    
C50   H23   S    
C30   C40   A    
O16   V4    S    
C2    C15   S    
C4    C11   S    
C18   C20   A    
O7    V1    S    
C41   C48   S    
C1    O8    A    
C19   C21   A    
O8    V2    S    
C49   H21   S    
C20   C22   A    
C33   C43   A    
C40   H16   S    
C22   C32   A    
C22   C24   A    
C15   C17   A    
C52   H30   S    
C6    C8    D    
C9    C11   D    
C7    C46   S    
C28   H14   S    
C51   H27   S    
O20   V3    S    
C21   C23   A    
C25   H11   S    
O9    V2    S    
C52   H28   S    
C14   C24   A    
O10   V1    S    
C34   C44   A    
C51   H26   S    
O15   C47   A    
