data_mof_unit_5477.cif
_audit_creation_date              2012-10-26T19:13:30-0400
_audit_creation_method            fapswitch 2.2
_symmetry_space_group_name_H-M    P1
_symmetry_Int_Tables_number       1
_space_group_crystal_system       triclinic
_cell_length_a                    13.424308
_cell_length_b                    13.8816
_cell_length_c                    15.115114
_cell_angle_alpha                 90.082545
_cell_angle_beta                  90.092673
_cell_angle_gamma                 72.627451
_cell_volume                      2688.22114619

loop_
_atom_site_label
_atom_site_type_symbol
_atom_type_description
_atom_site_fract_x
_atom_site_fract_y
_atom_site_fract_z
_atom_type_partial_charge
C1    C     C_R   0.500112 0.500058 0.669976 0.539712
C2    C     C_R   0.814767 0.412590 0.494074 -0.000589
C3    C     C_R   0.552263 0.411489 0.904226 -0.098255
C4    C     C_R   0.700116 0.446035 0.496623 0.536288
C5    C     C_R   0.550191 0.411071 0.812308 -0.147697
C6    C     C_R   0.501146 0.500121 0.766241 0.006629
C7    C     C_R   0.453585 0.589403 0.812647 -0.150994
C8    C     C_R   0.453421 0.589201 0.904572 -0.099862
C9    C     C_R   0.503073 0.500327 0.950831 0.059374
C10   C     C_R   0.535447 0.572875 0.095343 0.220964
C11   C     C_R   0.531266 0.574011 0.187412 -0.133150
C12   C     C_R   0.978134 0.456265 0.493165 0.025465
C13   C     C_R   0.500562 0.499997 0.233202 -0.077532
C14   C     C_R   0.470488 0.426234 0.186267 -0.128635
C15   C     C_R   0.468632 0.427414 0.094050 0.221844
C16   C     C_R   0.499800 0.500032 0.329832 0.541024
C17   C     C_R   0.502774 0.500030 0.047957 0.022918
C18   C     C_R   0.418075 0.915688 0.460348 -0.179996
C19   C     C_R   0.420706 0.813433 0.460093 -0.015958
C20   C     C_R   0.579139 0.768687 0.540950 0.424028
C21   C     C_R   0.584728 0.869322 0.534944 -0.013475
C22   C     C_R   0.499700 0.945793 0.498679 -0.003589
C23   C     C_R   0.873390 0.476032 0.463284 0.052285
C24   C     C_R   0.517247 0.102310 0.577219 -0.144673
C25   C     C_R   0.520458 0.202683 0.575806 0.035087
C26   C     C_R   0.475349 0.216211 0.424424 0.044534
C27   C     C_R   0.473617 0.115194 0.422700 -0.146476
C28   C     C_R   0.299937 0.553965 0.499051 0.549448
C29   C     C_R   0.496266 0.055756 0.499509 0.027201
C30   C     C_R   0.031101 0.694606 0.419026 0.265307
C31   C     C_R   0.186695 0.585028 0.487575 -0.052377
C32   C     C_R   0.865836 0.320629 0.535285 -0.144109
C33   C     C_R   0.971634 0.294666 0.552963 -0.149748
C34   C     C_R   0.030692 0.530113 0.479001 -0.018107
C35   C     C_R   0.026865 0.362341 0.534811 -0.119126
C36   C     C_3   0.676031 0.609715 0.038543 -0.008934
C37   C     C_3   0.712787 0.692117 0.995675 -0.371172
C38   C     C_3   0.326781 0.391855 0.038136 -0.006502
C39   C     C_3   0.291145 0.317846 0.981309 -0.369127
C40   C     C_3   0.646647 0.707175 0.675605 0.000223
C41   C     C_3   0.718687 0.613882 0.720082 -0.353409
C42   C     C_3   0.684683 0.891698 0.560085 -0.411523
C43   C     C_3   0.932085 0.859750 0.431201 -0.016064
C44   C     C_3   0.993705 0.935234 0.441170 -0.382615
C45   C     C_R   0.980044 0.620221 0.432329 0.031399
C46   C     C_3   0.746051 0.562248 0.338266 -0.367504
C47   C     C_R   0.882428 0.631873 0.394347 -0.101933
C48   C     C_R   0.832335 0.557817 0.403716 0.008756
C49   C     C_R   0.133050 0.516465 0.508841 -0.152488
C50   C     C_R   0.135034 0.675278 0.444896 -0.108916
Cu1   Cu    Cu3+1 0.500000 0.403570 0.500010 0.926469
Cu2   Cu    Cu3+1 0.500000 0.596430 0.499990 0.958650
H1    H     H_    0.176586 0.728496 0.427495 0.130834
H2    H     H_    0.530813 0.061494 0.639157 0.091787
H3    H     H_    0.538884 0.235237 0.636260 0.119974
H4    H     H_    0.456550 0.260085 0.364488 0.123665
H5    H     H_    0.455945 0.083450 0.361295 0.098055
H6    H     H_    0.175244 0.451241 0.546346 0.128839
H7    H     H_    0.823050 0.270125 0.557308 0.128109
H8    H     H_    0.107958 0.337460 0.553252 0.105363
H9    H     H_    0.010224 0.223451 0.584853 0.112489
H10   H     H_    0.592338 0.342632 0.939019 0.143290
H11   H     H_    0.695900 0.543023 0.993592 0.131705
H12   H     H_    0.588317 0.341785 0.777229 0.108876
H13   H     H_    0.718632 0.588620 0.102379 0.121333
H14   H     H_    0.698263 0.758045 0.040832 0.160001
H15   H     H_    0.797694 0.663192 0.981571 0.091413
H16   H     H_    0.670038 0.716623 0.932723 0.153316
H17   H     H_    0.303141 0.466535 0.004136 0.132033
H18   H     H_    0.286675 0.398854 0.103349 0.128117
H19   H     H_    0.312105 0.242715 0.013788 0.158390
H20   H     H_    0.205170 0.345560 0.972286 0.090865
H21   H     H_    0.329209 0.310304 0.915388 0.160541
H22   H     H_    0.565088 0.716193 0.697203 0.140451
H23   H     H_    0.414834 0.658656 0.777841 0.113543
H24   H     H_    0.669048 0.773718 0.698884 0.104165
H25   H     H_    0.801286 0.607310 0.704496 0.146337
H26   H     H_    0.707655 0.619410 0.792852 0.089323
H27   H     H_    0.701292 0.544962 0.696234 0.171729
H28   H     H_    0.702662 0.944070 0.511532 0.125475
H29   H     H_    0.678062 0.925576 0.627055 0.108064
H30   H     H_    0.752276 0.822212 0.559900 0.156002
H31   H     H_    0.916813 0.833101 0.498093 0.111148
H32   H     H_    0.854737 0.899874 0.402304 0.148203
H33   H     H_    0.008340 0.963337 0.375169 0.166464
H34   H     H_    0.413826 0.658076 0.939601 0.145944
H35   H     H_    0.948644 0.000245 0.481933 0.098243
H36   H     H_    0.069466 0.899152 0.474355 0.135264
H37   H     H_    0.772308 0.574177 0.270598 0.095136
H38   H     H_    0.725180 0.490919 0.335087 0.127744
H39   H     H_    0.676701 0.626831 0.354299 0.172916
H40   H     H_    0.554254 0.631869 0.222811 0.144584
H41   H     H_    0.445803 0.368991 0.220851 0.136601
H42   H     H_    0.352272 0.971185 0.430364 0.107554
H43   H     H_    0.358015 0.792150 0.428572 0.129446
H44   H     H_    0.847371 0.696119 0.352015 0.151543
N1    N     N_R   0.500000 0.741310 0.499980 -0.226689
N2    N     N_R   0.500060 0.258650 0.499980 -0.219522
O1    O     O_R   0.499990 0.418570 0.628550 -0.515351
O2    O     O_3   0.436056 0.355399 0.049132 -0.566510
O3    O     O_3   0.658163 0.695794 0.582894 -0.526974
O4    O     O_3   0.983713 0.781711 0.372025 -0.571700
O5    O     O_R   0.499990 0.581440 0.628540 -0.493938
O6    O     O_R   0.650980 0.378820 0.499990 -0.508942
O7    O     O_R   0.650980 0.541690 0.499970 -0.435857
O8    O     O_R   0.500010 0.418560 0.371460 -0.512838
O9    O     O_R   0.500010 0.581430 0.371450 -0.516050
O10   O     O_R   0.349020 0.458310 0.500030 -0.493680
O11   O     O_R   0.349020 0.621180 0.500010 -0.514373
O12   O     O_3   0.567243 0.646315 0.052189 -0.565516

loop_
_geom_bond_atom_site_label_1
_geom_bond_atom_site_label_2
_ccdc_geom_bond_type
C38   H18   S    
Cu2   O5    S    
C42   H28   S    
C22   C29   S    
C27   C29   A    
C43   H31   S    
C30   C45   A    
C42   H30   S    
C15   O2    S    
C1    O1    A    
C19   N1    A    
C7    C8    A    
C46   H37   S    
C12   C23   A    
C26   C27   A    
C21   C22   A    
C36   C37   S    
C41   H25   S    
C38   C39   S    
C10   C17   A    
C24   H2    S    
C37   H16   S    
C4    O6    A    
Cu2   N1    S    
C2    C32   A    
C18   C19   A    
C24   C29   A    
C16   O9    A    
C40   O3    S    
C11   H40   S    
C20   N1    A    
Cu2   O9    S    
C8    C9    A    
C47   H44   S    
C44   H35   S    
C1    O5    A    
C14   H41   S    
C16   O8    A    
Cu1   N2    S    
C30   C50   A    
C38   H17   S    
C13   C14   A    
C43   H32   S    
C42   H29   S    
C31   C49   A    
C45   C47   A    
Cu1   O1    S    
C46   C48   S    
C50   H1    S    
Cu1   Cu2   S    
C24   C25   A    
C38   O2    S    
C27   H5    S    
C41   H26   S    
C36   H13   S    
Cu1   O10   S    
C7    H23   S    
C20   O3    S    
Cu1   O6    S    
C49   H6    S    
C40   H24   S    
C5    H12   S    
C35   H8    S    
C2    C4    S    
C43   C44   S    
C3    C9    A    
C47   C48   A    
C39   H20   S    
C37   H14   S    
C30   O4    S    
C34   C45   A    
C12   C35   A    
C26   N2    A    
C46   H38   S    
C9    C17   S    
C40   C41   S    
Cu2   O7    S    
C36   O12   S    
C18   H42   S    
C31   C50   A    
C12   C34   A    
C44   H33   S    
C36   H11   S    
C2    C23   A    
C19   H43   S    
C3    H10   S    
C15   C17   A    
C34   C49   A    
C23   C48   A    
C18   C22   A    
C28   C31   S    
C25   H3    S    
C3    C5    A    
C26   H4    S    
C41   H27   S    
C6    C7    A    
C46   H39   S    
C28   O11   A    
C4    O7    A    
C32   C33   A    
C43   O4    S    
C11   C13   A    
C5    C6    A    
Cu2   O11   S    
C28   O10   A    
Cu1   O8    S    
C37   H15   S    
C33   C35   A    
C40   H22   S    
C10   O12   S    
C8    H34   S    
C39   H21   S    
C10   C11   A    
C21   C42   S    
C25   N2    A    
C20   C21   A    
C33   H9    S    
C13   C16   S    
C1    C6    S    
C39   H19   S    
C14   C15   A    
C32   H7    S    
C44   H36   S    
