data_mof_unit_29340.cif
_audit_creation_date              2012-10-26T20:38:26-0400
_audit_creation_method            fapswitch 2.2
_symmetry_space_group_name_H-M    P1
_symmetry_Int_Tables_number       1
_space_group_crystal_system       triclinic
_cell_length_a                    15.843354
_cell_length_b                    11.081839
_cell_length_c                    9.968926
_cell_angle_alpha                 113.387876
_cell_angle_beta                  97.246606
_cell_angle_gamma                 91.347343
_cell_volume                      1588.42908411

loop_
_atom_site_label
_atom_site_type_symbol
_atom_type_description
_atom_site_fract_x
_atom_site_fract_y
_atom_site_fract_z
_atom_type_partial_charge
C1    C     C_R   0.493182 0.252460 0.437327 0.575480
C2    C     C_3   0.032822 0.625820 0.535985 -0.130017
C3    C     C_3   0.017997 0.422264 0.368031 0.241644
C4    C     C_3   0.982044 0.579895 0.632576 0.240537
C5    C     C_1   0.251006 0.501862 0.506212 0.065540
C6    C     C_1   0.749027 0.499173 0.494114 0.060310
C7    C     C_3   0.033717 0.458211 0.601190 0.250906
C8    C     C_3   0.966320 0.543954 0.399416 0.252184
C9    C     C_3   0.083648 0.502591 0.504199 -0.031366
C10   C     C_3   0.916408 0.499554 0.496411 -0.031265
C11   C     C_1   0.175510 0.502651 0.506733 0.069009
C12   C     C_R   0.508344 0.747664 0.562560 0.584928
C13   C     C_1   0.824543 0.499025 0.493772 0.066229
C14   C     C_2   0.492545 0.108340 0.395035 0.042063
C15   C     C_2   0.510911 0.892171 0.604106 0.053178
C16   C     C_3   0.516635 0.983404 0.767285 -0.265901
C17   C     C_3   0.605888 0.992258 0.853293 -0.323904
C18   C     C_3   0.670440 0.081511 0.825965 -0.375477
C19   C     C_3   0.481076 0.018254 0.230428 -0.282411
C20   C     C_3   0.390909 0.947745 0.179221 -0.286203
C21   C     C_3   0.369464 0.885924 0.011335 -0.411966
C22   C     C_3   0.583698 0.682898 0.954965 -0.098058
C23   C     C_2   0.482326 0.061203 0.498725 0.205365
C24   C     C_3   0.679208 0.681954 0.940617 -0.249166
C25   C     C_3   0.732867 0.787600 0.076478 -0.386752
C26   C     C_3   0.378890 0.380220 0.058140 -0.093428
C27   C     C_3   0.357055 0.250947 0.072532 -0.298366
C28   C     C_3   0.273209 0.182156 0.973523 -0.422697
C29   C     C_2   0.519743 0.938284 0.499282 0.209226
C30   C     C_2   0.513256 0.488256 0.066549 0.355520
C31   C     C_2   0.482429 0.516795 0.929619 0.334726
C32   C     C_R   0.340266 0.500403 0.502005 0.559054
C33   C     C_R   0.659742 0.499869 0.498084 0.559115
C34   C     C_3   0.967239 0.376348 0.464629 -0.131368
Cl1   Cl    Cl    0.043143 0.317713 0.191606 -0.468568
Cl2   Cl    Cl    0.956826 0.684378 0.808978 -0.473248
Cl3   Cl    Cl    0.920098 0.600264 0.264439 -0.437318
Cl4   Cl    Cl    0.079824 0.401976 0.736276 -0.423953
Cl5   Cl    Cl    0.599397 0.867572 0.388072 -0.669977
Cl6   Cl    Cl    0.397078 0.123929 0.600503 -0.656086
Cl7   Cl    Cl    0.377743 0.566315 0.911137 -0.635156
Cl8   Cl    Cl    0.624519 0.499679 0.119230 -0.568799
Cu1   Cu    Cu3+1 0.514700 0.521810 0.644910 1.024696
Cu2   Cu    Cu3+1 0.485300 0.478190 0.355090 1.039396
H1    H     H_    0.939872 0.274410 0.435286 0.175707
H2    H     H_    0.365111 0.962990 0.967407 0.128935
H3    H     H_    0.419575 0.822086 0.961931 0.193933
H4    H     H_    0.307004 0.826826 0.977903 0.222713
H5    H     H_    0.386198 0.869220 0.221475 0.221516
H6    H     H_    0.342856 0.019090 0.223961 0.197381
H7    H     H_    0.490898 0.076138 0.164278 0.145018
H8    H     H_    0.529188 0.945826 0.200937 0.186402
H9    H     H_    0.709761 0.886346 0.096589 0.144037
H10   H     H_    0.729575 0.765828 0.175310 0.255865
H11   H     H_    0.800562 0.789080 0.058405 0.218865
H12   H     H_    0.060199 0.727755 0.565343 0.177254
H13   H     H_    0.702402 0.584022 0.924550 0.239793
H14   H     H_    0.689715 0.703232 0.844132 0.177711
H15   H     H_    0.556344 0.760308 0.923588 0.130942
H16   H     H_    0.576101 0.716085 0.073470 0.187214
H17   H     H_    0.221948 0.251270 0.994644 0.229741
H18   H     H_    0.281447 0.145587 0.855227 0.212880
H19   H     H_    0.252511 0.097350 0.997449 0.166219
H20   H     H_    0.409342 0.185360 0.039447 0.157359
H21   H     H_    0.347787 0.267818 0.186140 0.220128
H22   H     H_    0.328974 0.449128 0.098489 0.207882
H23   H     H_    0.679084 0.040996 0.707823 0.208674
H24   H     H_    0.375833 0.348203 0.936959 0.195114
H25   H     H_    0.648808 0.182521 0.857895 0.192443
H26   H     H_    0.733034 0.087759 0.893509 0.183707
H27   H     H_    0.601414 0.033320 0.973390 0.150556
H28   H     H_    0.630076 0.893340 0.823530 0.179986
H29   H     H_    0.502172 0.085466 0.787518 0.203595
H30   H     H_    0.468916 0.944730 0.815438 0.130560
N1    N     N_2   0.463210 0.445420 0.137360 -0.226297
N2    N     N_2   0.536790 0.554580 0.862640 -0.209860
O1    O     O_R   0.507840 0.332340 0.577400 -0.442175
O2    O     O_R   0.492160 0.667660 0.422600 -0.430877
O3    O     O_R   0.483020 0.295500 0.332650 -0.539277
O4    O     O_R   0.516980 0.704500 0.667350 -0.541339
O5    O     O_R   0.391490 0.518400 0.622350 -0.417197
O6    O     O_R   0.608510 0.481600 0.377650 -0.410376
O7    O     O_R   0.366660 0.481570 0.377600 -0.533572
O8    O     O_R   0.633340 0.518430 0.622400 -0.528816

loop_
_geom_bond_atom_site_label_1
_geom_bond_atom_site_label_2
_ccdc_geom_bond_type
C18   H26   S    
C4    Cl2   S    
C1    O1    A    
C19   C20   S    
C22   N2    S    
Cu2   O7    S    
C32   O5    A    
C26   C27   S    
C27   H21   S    
C23   C29   S    
C25   H9    S    
C5    C11   T    
Cu2   O6    S    
C22   H16   S    
C30   C31   S    
C23   Cl6   S    
C20   H6    S    
C19   H8    S    
C24   H13   S    
C12   O2    A    
C33   O6    A    
C5    C32   S    
C28   H17   S    
C18   H25   S    
Cu1   O8    S    
C4    C7    S    
C15   C29   D    
C16   H29   S    
C26   H22   S    
C24   C25   S    
C3    C8    S    
C22   H15   S    
C16   C17   S    
C3    C34   S    
Cu1   O4    S    
C14   C23   D    
Cu2   N1    S    
C2    C4    S    
Cu1   Cu2   S    
C20   H5    S    
C3    C9    S    
C12   C15   S    
C3    Cl1   S    
C29   Cl5   S    
C17   C18   S    
C10   C34   S    
C34   H1    S    
C25   H10   S    
C9    C11   S    
C24   H14   S    
C17   H27   S    
C1    O3    A    
C7    C34   S    
C16   H30   S    
C8    Cl3   S    
C4    C10   S    
C21   H2    S    
Cu1   N2    S    
C7    C9    S    
C32   O7    A    
C31   Cl7   S    
C14   C19   S    
Cu2   O3    S    
C2    C8    S    
C25   H11   S    
C10   C13   S    
Cu1   O1    S    
C6    C33   S    
C26   H24   S    
C26   N1    S    
C21   H4    S    
Cu2   O2    S    
C18   H23   S    
C2    H12   S    
C6    C13   T    
C30   N1    D    
C31   N2    D    
Cu1   O5    S    
C12   O4    A    
C7    Cl4   S    
C22   C24   S    
C33   O8    A    
C27   H20   S    
C28   H19   S    
C19   H7    S    
C20   C21   S    
C17   H28   S    
C8    C10   S    
C27   C28   S    
C30   Cl8   S    
C1    C14   S    
C2    C9    S    
C15   C16   S    
C21   H3    S    
C28   H18   S    
