data_mof_unit_52483.cif
_audit_creation_date              2012-12-10T17:54:20-0500
_audit_creation_method            fapswitch 2.2
_symmetry_space_group_name_H-M    P1
_symmetry_Int_Tables_number       1
_space_group_crystal_system       triclinic
_cell_length_a                    27.203199
_cell_length_b                    10.639893
_cell_length_c                    9.904934
_cell_angle_alpha                 90.13266
_cell_angle_beta                  90.711517
_cell_angle_gamma                 92.139009
_cell_volume                      2864.6458694

loop_
_atom_site_label
_atom_site_type_symbol
_atom_type_description
_atom_site_fract_x
_atom_site_fract_y
_atom_site_fract_z
_atom_type_partial_charge
C1    C     C_R   0.501213 0.260744 0.499927 0.919556
C2    C     C_R   0.269184 0.495205 0.551296 -0.154941
C3    C     C_R   0.259375 0.619728 0.516595 0.214902
C4    C     C_R   0.108890 0.692359 0.520907 -0.051269
C5    C     C_R   0.134034 0.690459 0.397633 -0.021916
C6    C     C_R   0.107945 0.702886 0.276377 -0.127370
C7    C     C_R   0.135584 0.683833 0.643112 -0.032826
C8    C     C_R   0.354558 0.532755 0.497685 -0.105728
C9    C     C_R   0.648022 0.513352 0.505052 -0.114014
C10   C     C_R   0.978373 0.707145 0.399428 0.046712
C11   C     C_R   0.980066 0.668708 0.645214 0.046830
C12   C     C_R   0.405915 0.500909 0.499185 0.950460
C13   C     C_R   0.953569 0.679061 0.521549 0.073412
C14   C     C_R   0.949925 0.728490 0.281768 -0.215276
C15   C     C_R   0.899060 0.711279 0.281638 -0.130961
C16   C     C_R   0.874808 0.671677 0.398444 -0.022413
C17   C     C_R   0.901857 0.657264 0.519142 -0.051350
C18   C     C_R   0.877289 0.617923 0.636692 -0.021340
C19   C     C_R   0.826847 0.587231 0.629782 0.508193
C20   C     C_R   0.823905 0.645657 0.397436 0.513746
C21   C     C_R   0.729338 0.483010 0.415645 -0.135866
C22   C     C_R   0.678654 0.452402 0.412743 -0.080597
C23   C     C_R   0.501304 0.739620 0.500144 0.855841
C24   C     C_R   0.668746 0.598655 0.599838 -0.231075
C25   C     C_R   0.718567 0.629708 0.599354 -0.077357
C26   C     C_R   0.749223 0.572091 0.507797 0.271784
C27   C     C_R   0.030501 0.708153 0.398072 0.047565
C28   C     C_R   0.056942 0.697630 0.521843 0.074436
C29   C     C_R   0.031899 0.687027 0.646330 0.046972
C30   C     C_R   0.057183 0.712469 0.276336 -0.209606
C31   C     C_R   0.110916 0.688358 0.765726 -0.123419
C32   C     C_R   0.953960 0.633237 0.762547 -0.215197
C33   C     C_R   0.903617 0.607286 0.757807 -0.131079
C34   C     C_R   0.594332 0.499206 0.500995 0.900985
C35   C     C_R   0.059937 0.690157 0.767575 -0.209937
C36   C     C_R   0.582046 0.139435 0.635092 -0.124003
C37   C     C_R   0.619569 0.077571 0.701533 -0.112346
C38   C     C_R   0.619233 0.946835 0.702844 -0.139165
C39   C     C_R   0.581431 0.877708 0.637420 -0.188069
C40   C     C_R   0.542863 0.938800 0.570444 0.099267
C41   C     C_R   0.543064 0.070519 0.569613 0.092376
C42   C     C_R   0.504729 0.128949 0.499435 -0.099314
C43   C     C_R   0.468656 0.061232 0.426322 -0.196112
C44   C     C_R   0.468654 0.932833 0.426495 -0.188670
C45   C     C_R   0.184614 0.670383 0.398498 0.556950
C46   C     C_R   0.504593 0.872387 0.500234 -0.101196
C47   C     C_R   0.435271 0.334705 0.137945 -0.144560
C48   C     C_R   0.403493 0.252675 0.066586 -0.167616
C49   C     C_R   0.403567 0.252190 0.926805 -0.157509
C50   C     C_R   0.435415 0.333731 0.857594 -0.145301
C51   C     C_R   0.468163 0.418158 0.926514 0.163413
C52   C     C_R   0.468127 0.418409 0.071168 0.164664
C53   C     C_R   0.530552 0.578038 0.072747 -0.085131
C54   C     C_R   0.530525 0.578055 0.929566 -0.094099
C55   C     C_R   0.186345 0.667043 0.639453 0.573603
C56   C     C_R   0.297552 0.702831 0.473444 0.024393
C57   C     C_R   0.344733 0.656785 0.462210 -0.260146
C58   C     C_R   0.316767 0.449999 0.543587 -0.067056
H1    H     H_    0.130800 0.686609 0.861141 0.191635
H2    H     H_    0.971709 0.618548 0.858774 0.141276
H3    H     H_    0.646142 0.644334 0.672848 0.148335
H4    H     H_    0.885482 0.577480 0.849754 0.193845
H5    H     H_    0.733449 0.698838 0.670738 0.156791
H6    H     H_    0.043477 0.693857 0.865879 0.135463
H7    H     H_    0.439847 0.108014 0.371488 0.174766
H8    H     H_    0.584527 0.240985 0.633663 0.167779
H9    H     H_    0.649226 0.131264 0.751009 0.159384
H10   H     H_    0.238945 0.433173 0.582503 0.179886
H11   H     H_    0.648600 0.898806 0.753424 0.143322
H12   H     H_    0.583109 0.776691 0.638157 0.137479
H13   H     H_    0.439967 0.880298 0.371324 0.173646
H14   H     H_    0.555502 0.641797 0.127545 0.151601
H15   H     H_    0.432975 0.329873 0.244991 0.210029
H16   H     H_    0.378646 0.189162 0.120256 0.180966
H17   H     H_    0.378770 0.188303 0.871439 0.183808
H18   H     H_    0.433249 0.327683 0.750494 0.221405
H19   H     H_    0.555443 0.641837 0.876668 0.141680
H20   H     H_    0.126539 0.702331 0.180263 0.189609
H21   H     H_    0.753772 0.436018 0.348060 0.184707
H22   H     H_    0.878931 0.726481 0.188378 0.191666
H23   H     H_    0.965891 0.759468 0.187971 0.141477
H24   H     H_    0.039732 0.716548 0.178299 0.135266
H25   H     H_    0.374814 0.719437 0.431049 0.164736
N1    N     N_R   0.209376 0.656870 0.518306 -0.334337
N2    N     N_R   0.801116 0.601837 0.511428 -0.351233
N3    N     N_R   0.499540 0.498800 0.142780 -0.123283
N4    N     N_R   0.499520 0.498720 0.857170 -0.122871
O1    O     O_R   0.500000 0.316780 0.614690 -0.647957
O2    O     O_2   0.797389 0.664194 0.283601 -0.545817
O3    O     O_2   0.212401 0.658078 0.755678 -0.525803
O4    O     O_2   0.803822 0.541149 0.740089 -0.547489
O5    O     O_R   0.500000 0.316750 0.385360 -0.616990
O6    O     O_R   0.428760 0.500030 0.614650 -0.623058
O7    O     O_R   0.428750 0.500010 0.385320 -0.628174
O8    O     O_R   0.500000 0.683250 0.614640 -0.617450
O9    O     O_R   0.500000 0.683220 0.385310 -0.617154
O10   O     O_R   0.571250 0.499990 0.614680 -0.634919
O11   O     O_R   0.571240 0.499970 0.385350 -0.586973
O12   O     O_2   0.208697 0.661275 0.280740 -0.542125
Zn1   Zn    Zn3+2 0.500000 0.500020 0.653130 0.947507
Zn2   Zn    Zn3+2 0.500000 0.499980 0.346870 0.969360
C59   C     C_2   0.325485 0.316903 0.580884 0.894202
O13   O     O_2   0.295335 0.257877 0.648795 -0.603844
O14   O     O_R   0.367479 0.257658 0.536913 -0.856447
H26   H     H_    0.368962 0.167520 0.569274 0.348038
C60   C     C_2   0.289537 0.837781 0.443687 0.961787
O15   O     O_2   0.319634 0.898731 0.377427 -0.635860
O16   O     O_R   0.248372 0.896679 0.493578 -0.786266
H27   H     H_    0.247489 0.988543 0.467003 0.363563
C61   C     C_2   0.659603 0.353182 0.317724 0.924101
O17   O     O_2   0.680832 0.335211 0.211649 -0.605579
O18   O     O_R   0.618437 0.277337 0.350825 -0.817786
H28   H     H_    0.609366 0.212904 0.278287 0.350067

loop_
_geom_bond_atom_site_label_1
_geom_bond_atom_site_label_2
_ccdc_geom_bond_type
C10   C27   A    
C21   C26   A    
C24   H3    S    
C41   C42   A    
C7    C55   A    
C53   C54   A    
O16   H27   S    
C40   C46   A    
C16   C20   A    
C55   O3    S    
C2    H10   S    
C5    C6    A    
C36   H8    S    
C9    C22   A    
C6    H20   S    
C60   O15   D    
C15   C16   A    
C34   O10   A    
C23   O9    A    
C44   H13   S    
C18   C19   A    
C25   H5    S    
C31   H1    S    
C61   O17   D    
O18   H28   S    
C8    C58   A    
C15   H22   S    
O7    Zn2   S    
C33   H4    S    
C22   C61   S    
C49   H17   S    
C35   H6    S    
C58   C59   S    
C53   H14   S    
C43   H7    S    
C54   H19   S    
C1    O1    A    
C38   H11   S    
C23   C46   S    
C21   C22   A    
C27   C30   A    
C12   O7    A    
C36   C41   A    
C4    C7    A    
O14   H26   S    
C4    C28   A    
C44   C46   A    
C50   C51   A    
C7    C31   A    
C51   C52   A    
C48   H16   S    
C24   C25   A    
C47   H15   S    
C45   O12   S    
C51   N4    A    
C39   C40   A    
O8    Zn1   S    
C16   C17   A    
C25   C26   A    
C5    C45   A    
C30   H24   S    
C43   C44   A    
C37   C38   A    
C50   H18   S    
C8    C57   A    
C3    C56   A    
C47   C48   A    
C8    C12   S    
C20   N2    A    
C21   H21   S    
C57   H25   S    
C17   C18   A    
O1    Zn1   S    
C59   O14   S    
O6    Zn1   S    
C56   C60   S    
C53   N3    A    
O5    Zn2   S    
C54   N4    A    
C40   C41   A    
C6    C30   A    
C11   C32   A    
C1    O5    A    
C10   C14   A    
C9    C34   S    
C31   C35   A    
C12   O6    A    
C45   N1    A    
C56   C57   A    
C32   H2    S    
C3    N1    S    
O10   Zn1   S    
N4    Zn1   S    
C28   C29   A    
C4    C5    A    
C19   N2    A    
C10   C13   A    
C2    C58   A    
C9    C24   A    
C47   C52   A    
O11   Zn2   S    
C20   O2    S    
C29   C35   A    
C13   C17   A    
C32   C33   A    
C52   N3    A    
C2    C3    A    
C11   C13   A    
C38   C39   A    
C60   O16   S    
C26   N2    S    
C48   C49   A    
C37   H9    S    
C34   O11   A    
C39   H12   S    
C23   O8    A    
C59   O13   D    
C18   C33   A    
C61   O18   S    
C19   O4    S    
C1    C42   S    
C11   C29   A    
C36   C37   A    
C49   C50   A    
C42   C43   A    
C27   C28   A    
C14   C15   A    
C14   H23   S    
C55   N1    A    
O9    Zn2   S    
N3    Zn2   S    
