data_mof_unit_8385.cif
_audit_creation_date              2012-12-11T20:51:03-0500
_audit_creation_method            fapswitch 2.2
_symmetry_space_group_name_H-M    P1
_symmetry_Int_Tables_number       1
_space_group_crystal_system       triclinic
_cell_length_a                    30.419233
_cell_length_b                    33.908782
_cell_length_c                    8.467077
_cell_angle_alpha                 89.971372
_cell_angle_beta                  89.931217
_cell_angle_gamma                 90.122675
_cell_volume                      8733.58589248

loop_
_atom_site_label
_atom_site_type_symbol
_atom_type_description
_atom_site_fract_x
_atom_site_fract_y
_atom_site_fract_z
_atom_type_partial_charge
Ba1   Ba    Ba6+2 0.999930 0.472870 0.844940 1.692789
Ba2   Ba    Ba6+2 0.999930 0.527130 0.344940 1.677156
Ba3   Ba    Ba6+2 0.499930 0.972870 0.844940 1.692787
Ba4   Ba    Ba6+2 0.499930 0.027130 0.344940 1.677155
C1    C     C_3   0.003474 0.282689 0.471278 -0.354789
C2    C     C_R   0.214556 0.333166 0.517156 0.596062
C3    C     C_R   0.403389 0.087920 0.690680 0.032875
C4    C     C_R   0.870045 0.384474 0.151233 -0.103219
C5    C     C_R   0.871000 0.616067 0.650466 -0.118665
C6    C     C_R   0.370045 0.884474 0.151234 -0.103219
C7    C     C_R   0.371000 0.116068 0.650466 -0.118665
C8    C     C_R   0.860809 0.351346 0.248587 0.212592
C9    C     C_R   0.862181 0.649447 0.747152 0.201163
C10   C     C_R   0.360809 0.851346 0.248587 0.212591
C11   C     C_R   0.362181 0.149448 0.747151 0.201164
C12   C     C_2   0.066444 0.596923 0.883155 -0.238677
C13   C     C_R   0.711816 0.168871 0.010968 0.593304
C14   C     C_2   0.066440 0.402271 0.396441 -0.219353
C15   C     C_2   0.566444 0.096923 0.883155 -0.238677
C16   C     C_2   0.566440 0.902271 0.396441 -0.219355
C17   C     C_3   0.141436 0.491602 0.250939 0.358371
C18   C     C_3   0.126803 0.522695 0.699012 0.273332
C19   C     C_3   0.641435 0.991600 0.250936 0.358368
C20   C     C_3   0.626803 0.022695 0.699011 0.273332
C21   C     C_3   0.180603 0.463844 0.241480 -0.367107
C22   C     C_3   0.166830 0.549674 0.695479 -0.336067
C23   C     C_3   0.680602 0.963842 0.241477 -0.367095
C24   C     C_R   0.714556 0.833166 0.517157 0.596062
C25   C     C_3   0.666830 0.049674 0.695478 -0.336066
C26   C     C_3   0.874511 0.526004 0.018274 0.277740
C27   C     C_3   0.873265 0.474515 0.516792 0.279329
C28   C     C_3   0.374511 0.026004 0.018274 0.277740
C29   C     C_3   0.373265 0.974515 0.516792 0.279328
C30   C     C_3   0.833025 0.551300 0.013663 -0.282868
C31   C     C_3   0.831213 0.449833 0.510717 -0.283978
C32   C     C_3   0.333025 0.051300 0.013663 -0.282868
C33   C     C_3   0.331213 0.949834 0.510717 -0.283977
C34   C     C_3   0.002527 0.325192 0.528201 0.357131
C35   C     C_R   0.156584 0.719379 0.007510 0.592784
C36   C     C_3   0.002286 0.677851 0.048734 0.374686
C37   C     C_3   0.502527 0.825192 0.528202 0.357132
C38   C     C_3   0.502286 0.177851 0.048734 0.374685
C39   C     C_R   0.926048 0.408323 0.323886 -0.292487
C40   C     C_R   0.927591 0.592600 0.821172 -0.300459
C41   C     C_R   0.426048 0.908323 0.323886 -0.292487
C42   C     C_R   0.427591 0.092600 0.821172 -0.300459
C43   C     C_1   0.801441 0.535826 0.898205 0.386173
C44   C     C_1   0.799872 0.466384 0.397009 0.390708
C45   C     C_1   0.301442 0.035826 0.898205 0.386173
C46   C     C_R   0.160246 0.282094 0.490157 0.592046
C47   C     C_1   0.299872 0.966383 0.397009 0.390707
C48   C     C_3   0.012094 0.228143 0.883338 0.080683
C49   C     C_3   0.030507 0.791756 0.468127 0.122972
C50   C     C_3   0.512092 0.728143 0.883341 0.080684
C51   C     C_3   0.530509 0.291756 0.468129 0.122970
C52   C     C_3   0.969386 0.319982 0.062031 0.220585
C53   C     C_3   0.959897 0.678973 0.550361 0.261752
C54   C     C_3   0.469385 0.819983 0.062033 0.220585
C55   C     C_3   0.459898 0.178973 0.550359 0.261754
C56   C     C_3   0.126258 0.243929 0.886830 0.191952
C57   C     C_R   0.656584 0.219379 0.007511 0.592784
C58   C     C_3   0.135150 0.750118 0.443786 0.173225
C59   C     C_3   0.626257 0.743928 0.886833 0.191950
C60   C     C_3   0.635151 0.250118 0.443787 0.173230
C61   C     C_R   0.660245 0.782093 0.490158 0.592045
C62   C     C_R   0.188362 0.748288 0.046564 -0.030816
C63   C     C_R   0.191714 0.253074 0.530020 -0.029480
C64   C     C_R   0.688362 0.248288 0.046565 -0.030815
C65   C     C_3   0.003387 0.721849 0.014217 -0.319034
C66   C     C_R   0.691714 0.753073 0.530022 -0.029480
C67   C     C_R   0.232358 0.736935 0.070747 -0.054306
C68   C     C_R   0.235048 0.264612 0.566226 -0.050935
C69   C     C_R   0.732358 0.236935 0.070747 -0.054307
C70   C     C_R   0.735047 0.764612 0.566227 -0.050935
C71   C     C_R   0.288394 0.686183 0.077173 -0.075547
C72   C     C_R   0.290167 0.315875 0.595221 -0.075020
C73   C     C_R   0.788394 0.186183 0.077172 -0.075546
C74   C     C_R   0.790166 0.815875 0.595220 -0.075020
C75   C     C_R   0.820008 0.214326 0.118882 -0.077281
C76   C     C_3   0.503474 0.782688 0.471280 -0.354788
C77   C     C_R   0.821416 0.787587 0.637570 -0.073308
C78   C     C_R   0.320008 0.714326 0.118884 -0.077281
C79   C     C_R   0.321416 0.287588 0.637571 -0.073308
C80   C     C_R   0.808565 0.254265 0.137929 -0.019393
C81   C     C_R   0.810214 0.747314 0.645982 -0.018312
C82   C     C_R   0.308565 0.754265 0.137929 -0.019393
C83   C     C_R   0.310214 0.247314 0.645982 -0.018312
C84   C     C_R   0.764562 0.265617 0.113373 -0.053746
C85   C     C_R   0.766868 0.735786 0.609895 -0.052862
C86   C     C_R   0.264562 0.765617 0.113373 -0.053746
C87   C     C_3   0.503387 0.221849 0.014218 -0.319034
C88   C     C_R   0.266868 0.235786 0.609894 -0.052862
C89   C     C_R   0.177019 0.788307 0.063646 -0.101388
C90   C     C_R   0.180665 0.212746 0.536505 -0.104484
C91   C     C_R   0.677019 0.288308 0.063647 -0.101387
C92   C     C_R   0.680664 0.712745 0.536508 -0.104484
C93   C     C_3   0.043621 0.317811 0.991822 0.783837
C94   C     C_3   0.033885 0.694279 0.519359 0.775000
C95   C     C_3   0.543620 0.817811 0.991824 0.783841
C96   C     C_3   0.533886 0.194279 0.519359 0.774996
C97   C     C_R   0.708557 0.316411 0.106006 -0.082772
C98   C     C_R   0.244251 0.697010 0.052993 -0.026192
C99   C     C_R   0.711782 0.684515 0.580472 -0.080789
C100  C     C_R   0.208558 0.816411 0.106005 -0.082772
C101  C     C_R   0.211782 0.184515 0.580470 -0.080789
C102  C     C_R   0.752592 0.305511 0.131768 -0.027061
C103  C     C_R   0.755154 0.695582 0.618040 -0.026745
C104  C     C_R   0.252592 0.805511 0.131767 -0.027061
C105  C     C_R   0.255155 0.195582 0.618038 -0.026745
C106  C     C_R   0.784821 0.333544 0.176378 0.589443
C107  C     C_R   0.786932 0.667391 0.664426 0.592357
C108  C     C_R   0.284822 0.833544 0.176377 0.589443
C109  C     C_R   0.246653 0.304865 0.559514 -0.025179
C110  C     C_R   0.286932 0.167392 0.664424 0.592356
C111  C     C_R   0.840108 0.283056 0.181019 0.580232
C112  C     C_R   0.841408 0.718395 0.689657 0.575729
C113  C     C_R   0.340108 0.783056 0.181020 0.580231
C114  C     C_R   0.341408 0.218395 0.689657 0.575729
C115  C     C_2   0.107406 0.656202 0.815667 -0.094489
C116  C     C_2   0.111663 0.347331 0.309971 -0.093057
C117  C     C_2   0.607406 0.156202 0.815667 -0.094489
C118  C     C_2   0.611663 0.847331 0.309972 -0.093056
C119  C     C_3   0.068967 0.632203 0.789089 -0.097882
C120  C     C_R   0.744251 0.197010 0.052993 -0.026192
C121  C     C_3   0.072135 0.370246 0.289300 -0.101697
C122  C     C_3   0.568967 0.132203 0.789089 -0.097883
C123  C     C_3   0.572135 0.870246 0.289301 -0.101696
C124  C     C_1   0.095384 0.588618 0.004752 0.005239
C125  C     C_1   0.096463 0.411109 0.512305 0.018860
C126  C     C_1   0.595384 0.088618 0.004752 0.005240
C127  C     C_1   0.596463 0.911109 0.512305 0.018859
C128  C     C_2   0.127899 0.615068 0.046039 -0.098468
C129  C     C_2   0.129745 0.385308 0.550639 -0.103950
C130  C     C_2   0.627899 0.115068 0.046039 -0.098467
C131  C     C_R   0.746653 0.804865 0.559514 -0.025178
C132  C     C_2   0.629745 0.885308 0.550639 -0.103950
C133  C     C_2   0.135189 0.650739 0.947130 0.222079
C134  C     C_2   0.138627 0.351337 0.444463 0.218994
C135  C     C_2   0.635189 0.150739 0.947130 0.222079
C136  C     C_2   0.638627 0.851337 0.444464 0.218994
C137  C     C_R   0.882124 0.347303 0.387860 -0.105692
C138  C     C_R   0.883938 0.653607 0.885626 -0.101452
C139  C     C_R   0.382124 0.847303 0.387860 -0.105693
C140  C     C_R   0.383938 0.153607 0.885626 -0.101451
C141  C     C_3   0.061966 0.279738 0.919903 0.752878
C142  C     C_R   0.211816 0.668871 0.010969 0.593304
C143  C     C_3   0.062793 0.729482 0.471198 0.770556
C144  C     C_3   0.561965 0.779737 0.919906 0.752880
C145  C     C_3   0.562794 0.229481 0.471197 0.770554
C146  C     C_R   0.915217 0.376960 0.435528 -0.052457
C147  C     C_R   0.917526 0.624413 0.931848 -0.048121
C148  C     C_R   0.415217 0.876960 0.435528 -0.052457
C149  C     C_R   0.417526 0.124413 0.931847 -0.048120
C150  C     C_R   0.902583 0.412519 0.191649 0.043866
C151  C     C_R   0.903389 0.587920 0.690680 0.032875
C152  C     C_R   0.402583 0.912519 0.191649 0.043866
H1    H     H_    0.035056 0.332927 0.579108 0.061000
H2    H     H_    0.159606 0.577590 0.758206 0.085313
H3    H     H_    0.619539 0.015050 0.822508 0.063795
H4    H     H_    0.111655 0.474401 0.283031 0.004013
H5    H     H_    0.098164 0.538173 0.647632 0.063057
H6    H     H_    0.611653 0.974399 0.283021 0.004010
H7    H     H_    0.598164 0.038173 0.647631 0.063058
H8    H     H_    0.031196 0.215334 0.783792 0.034322
H9    H     H_    0.986392 0.248605 0.839018 0.081698
H10   H     H_    0.995160 0.203542 0.944893 0.098403
H11   H     H_    0.000375 0.780180 0.409871 0.077180
H12   H     H_    0.054061 0.803172 0.378387 0.015978
H13   H     H_    0.684415 0.947959 0.355352 0.106967
H14   H     H_    0.020642 0.816817 0.544369 0.091552
H15   H     H_    0.531195 0.715334 0.783796 0.034321
H16   H     H_    0.486391 0.748605 0.839020 0.081699
H17   H     H_    0.495158 0.703542 0.944896 0.098403
H18   H     H_    0.500377 0.280181 0.409874 0.077180
H19   H     H_    0.554063 0.303172 0.378389 0.015980
H20   H     H_    0.520645 0.316817 0.544372 0.091552
H21   H     H_    0.971201 0.290346 0.117814 0.061217
H22   H     H_    0.935854 0.323482 0.012896 0.116697
H23   H     H_    0.974351 0.343478 0.151495 -0.023773
H24   H     H_    0.659606 0.077590 0.758204 0.085313
H25   H     H_    0.926562 0.686316 0.506734 0.112055
H26   H     H_    0.960706 0.685230 0.679195 0.004822
H27   H     H_    0.965012 0.647174 0.527110 0.050346
H28   H     H_    0.471201 0.790347 0.117822 0.061217
H29   H     H_    0.435853 0.823482 0.012898 0.116696
H30   H     H_    0.474350 0.843479 0.151494 -0.023771
H31   H     H_    0.426563 0.186317 0.506734 0.112056
H32   H     H_    0.460706 0.185229 0.679194 0.004818
H33   H     H_    0.465012 0.147174 0.527105 0.050350
H34   H     H_    0.116332 0.239820 0.761618 0.037658
H35   H     H_    0.175971 0.441926 0.145802 0.155320
H36   H     H_    0.117415 0.217341 0.956838 0.089575
H37   H     H_    0.162565 0.247023 0.889491 0.059115
H38   H     H_    0.132611 0.776976 0.518386 0.086326
H39   H     H_    0.128055 0.757443 0.318523 0.032465
H40   H     H_    0.169625 0.739619 0.449716 0.063542
H41   H     H_    0.616331 0.739820 0.761620 0.037659
H42   H     H_    0.617413 0.717340 0.956839 0.089575
H43   H     H_    0.662564 0.747022 0.889496 0.059116
H44   H     H_    0.632614 0.276974 0.518394 0.086327
H45   H     H_    0.628055 0.257445 0.318527 0.032462
H46   H     H_    0.175891 0.556681 0.571521 0.131606
H47   H     H_    0.669625 0.239618 0.449709 0.063540
H48   H     H_    0.675972 0.941928 0.145782 0.155324
H49   H     H_    0.675891 0.056681 0.571520 0.131607
H50   H     H_    0.888010 0.522850 0.897500 -0.000028
H51   H     H_    0.886673 0.478066 0.395987 0.000103
H52   H     H_    0.388010 0.022850 0.897500 -0.000028
H53   H     H_    0.034880 0.668505 0.094296 0.069227
H54   H     H_    0.386673 0.978066 0.395988 0.000103
H55   H     H_    0.899022 0.540880 0.095115 0.059382
H56   H     H_    0.897531 0.458981 0.592361 0.048568
H57   H     H_    0.399022 0.040880 0.095115 0.059382
H58   H     H_    0.397531 0.958981 0.592361 0.048568
H59   H     H_    0.841416 0.581967 0.980605 0.036090
H60   H     H_    0.838863 0.419242 0.474921 0.034959
H61   H     H_    0.341416 0.081967 0.980605 0.036090
H62   H     H_    0.338863 0.919242 0.474921 0.034959
H63   H     H_    0.817440 0.551855 0.132350 0.115584
H64   H     H_    0.535056 0.832927 0.579108 0.061000
H65   H     H_    0.815735 0.448858 0.629550 0.113475
H66   H     H_    0.317440 0.051855 0.132349 0.115584
H67   H     H_    0.315735 0.948858 0.629550 0.113475
H68   H     H_    0.996792 0.343773 0.422136 -0.097516
H69   H     H_    0.996122 0.662738 0.934263 -0.111220
H70   H     H_    0.496791 0.843772 0.422136 -0.097518
H71   H     H_    0.496122 0.162738 0.934264 -0.111218
H72   H     H_    0.971049 0.274569 0.420490 0.126188
H73   H     H_    0.029657 0.728431 0.926919 0.142575
H74   H     H_    0.471048 0.774568 0.420493 0.126188
H75   H     H_    0.534880 0.168505 0.094296 0.069227
H76   H     H_    0.529656 0.228432 0.926920 0.142574
H77   H     H_    0.029121 0.279227 0.378963 0.134875
H78   H     H_    0.009797 0.738719 0.123996 0.120749
H79   H     H_    0.529120 0.779227 0.378965 0.134876
H80   H     H_    0.509797 0.238719 0.123997 0.120750
H81   H     H_    0.698256 0.346801 0.118833 0.128184
H82   H     H_    0.701682 0.653884 0.585047 0.128710
H83   H     H_    0.198256 0.846801 0.118832 0.128183
H84   H     H_    0.201682 0.153884 0.585044 0.128710
H85   H     H_    0.143504 0.798031 0.045486 0.122353
H86   H     H_    0.211066 0.480942 0.217433 0.120304
H87   H     H_    0.147675 0.202857 0.508874 0.121263
H88   H     H_    0.643503 0.298031 0.045487 0.122353
H89   H     H_    0.647675 0.702857 0.508877 0.121263
H90   H     H_    0.853548 0.204625 0.136593 0.120089
H91   H     H_    0.854473 0.797447 0.664309 0.123373
H92   H     H_    0.353548 0.704625 0.136595 0.120089
H93   H     H_    0.354473 0.297448 0.664310 0.123373
H94   H     H_    0.874905 0.322728 0.465413 0.097674
H95   H     H_    0.876858 0.678069 0.963662 0.104793
H96   H     H_    0.374905 0.822728 0.465413 0.097674
H97   H     H_    0.195056 0.535018 0.754120 0.134244
H98   H     H_    0.376858 0.178069 0.963662 0.104793
H99   H     H_    0.298687 0.655796 0.064197 0.123396
H100  H     H_    0.300241 0.346515 0.590881 0.124347
H101  H     H_    0.798687 0.155796 0.064196 0.123396
H102  H     H_    0.800241 0.846515 0.590880 0.124347
H103  H     H_    0.147065 0.610665 0.152657 0.104745
H104  H     H_    0.147701 0.388588 0.660577 0.114585
H105  H     H_    0.647065 0.110665 0.152657 0.104746
H106  H     H_    0.647700 0.888588 0.660577 0.114585
H107  H     H_    0.112240 0.682116 0.743701 0.148796
H108  H     H_    0.711065 0.980941 0.217453 0.120300
H109  H     H_    0.118031 0.323230 0.229003 0.134789
H110  H     H_    0.612239 0.182117 0.743701 0.148795
H111  H     H_    0.618031 0.823230 0.229005 0.134789
H112  H     H_    0.851695 0.388418 0.042916 0.109713
H113  H     H_    0.852501 0.611991 0.542556 0.120225
H114  H     H_    0.351694 0.888418 0.042917 0.109714
H115  H     H_    0.352501 0.111991 0.542555 0.120226
H116  H     H_    0.950750 0.429823 0.356409 0.068119
H117  H     H_    0.952180 0.571081 0.853615 0.073032
H118  H     H_    0.450750 0.929823 0.356409 0.068119
H119  H     H_    0.695055 0.035018 0.754119 0.134245
H120  H     H_    0.452180 0.071081 0.853615 0.073031
H121  H     H_    0.011066 0.262501 0.570174 0.109514
H122  H     H_    0.971326 0.731272 0.964322 0.127617
H123  H     H_    0.511066 0.762501 0.570177 0.109514
H124  H     H_    0.471326 0.231272 0.964323 0.127617
H125  H     H_    0.037418 0.578624 0.868986 0.068761
H126  H     H_    0.035544 0.418137 0.391108 0.066550
H127  H     H_    0.537418 0.078624 0.868986 0.068762
H128  H     H_    0.535544 0.918137 0.391107 0.066551
H129  H     H_    0.045822 0.312928 0.121913 -0.173170
H130  H     H_    0.184420 0.447966 0.355363 0.106974
H131  H     H_    0.035367 0.692718 0.650718 -0.168454
H132  H     H_    0.545821 0.812928 0.121915 -0.173174
H133  H     H_    0.535368 0.192719 0.650718 -0.168449
H134  H     H_    0.057525 0.281801 0.788992 -0.055725
H135  H     H_    0.058255 0.733495 0.340923 -0.054370
H136  H     H_    0.557524 0.781800 0.788995 -0.055726
H137  H     H_    0.558255 0.233495 0.340922 -0.054366
H138  H     H_    0.149191 0.513967 0.342394 0.058408
H139  H     H_    0.119539 0.515050 0.822508 0.063796
H140  H     H_    0.649188 0.013964 0.342397 0.058411
N1    N     N_R   0.168437 0.680119 0.988874 -0.423762
N2    N     N_1   0.775191 0.479412 0.307236 -0.251917
N3    N     N_1   0.276566 0.023647 0.807065 -0.248513
N4    N     N_1   0.275191 0.979412 0.307236 -0.251917
N5    N     N_R   0.171764 0.321738 0.483606 -0.422905
N6    N     N_R   0.668436 0.180119 0.988874 -0.423762
N7    N     N_R   0.671764 0.821738 0.483607 -0.422905
N8    N     N_R   0.828095 0.322234 0.200616 -0.425355
N9    N     N_R   0.829708 0.678804 0.699088 -0.425856
N10   N     N_R   0.328095 0.822234 0.200616 -0.425355
N11   N     N_R   0.329708 0.178805 0.699088 -0.425856
N12   N     N_1   0.776566 0.523646 0.807065 -0.248513
O1    O     O_2   0.914200 0.445720 0.903420 -0.460418
O2    O     O_3   0.049938 0.660294 0.441354 -0.605560
O3    O     O_3   0.569955 0.850061 0.942595 -0.607382
O4    O     O_3   0.549937 0.160294 0.441354 -0.605561
O5    O     O_3   0.049930 0.518940 0.045960 -0.471557
O6    O     O_3   0.049930 0.481060 0.545960 -0.495975
O7    O     O_3   0.549930 0.018940 0.045960 -0.471558
O8    O     O_3   0.549930 0.981060 0.545960 -0.495975
O9    O     O_2   0.222330 0.634417 0.992472 -0.597347
O10   O     O_2   0.224861 0.367958 0.508739 -0.596087
O11   O     O_2   0.722330 0.134417 0.992471 -0.597346
O12   O     O_2   0.914200 0.554280 0.403420 -0.460348
O13   O     O_2   0.724860 0.867958 0.508738 -0.596087
O14   O     O_2   0.118173 0.729131 0.992405 -0.611929
O15   O     O_2   0.122348 0.272059 0.463786 -0.611141
O16   O     O_2   0.618173 0.229131 0.992407 -0.611929
O17   O     O_2   0.622348 0.772058 0.463789 -0.611141
O18   O     O_2   0.774225 0.367961 0.195541 -0.590622
O19   O     O_2   0.776298 0.632734 0.676069 -0.589005
O20   O     O_2   0.274225 0.867961 0.195540 -0.590623
O21   O     O_2   0.276299 0.132734 0.676067 -0.589005
O22   O     O_2   0.878367 0.273259 0.200318 -0.623101
O23   O     O_2   0.414200 0.945720 0.903420 -0.460418
O24   O     O_2   0.879127 0.728510 0.718576 -0.612504
O25   O     O_2   0.378367 0.773259 0.200319 -0.623101
O26   O     O_2   0.379127 0.228510 0.718576 -0.612504
O27   O     O_3   0.950020 0.480960 0.143730 -0.493529
O28   O     O_3   0.950020 0.519040 0.643730 -0.492596
O29   O     O_3   0.450020 0.980960 0.143730 -0.493529
O30   O     O_3   0.450020 0.019040 0.643730 -0.492596
O31   O     O_3   0.985090 0.412220 0.642040 -0.474248
O32   O     O_3   0.985090 0.587780 0.142040 -0.475572
O33   O     O_3   0.485090 0.912220 0.642040 -0.474248
O34   O     O_2   0.414200 0.054280 0.403420 -0.460348
O35   O     O_3   0.485090 0.087780 0.142040 -0.475572
O36   O     O_2   0.913104 0.378311 0.767447 -0.477378
O37   O     O_2   0.911480 0.619448 0.260698 -0.491451
O38   O     O_2   0.413104 0.878311 0.767447 -0.477378
O39   O     O_2   0.411480 0.119448 0.260698 -0.491452
O40   O     O_3   0.863706 0.488974 0.079688 -0.631357
O41   O     O_3   0.863323 0.511346 0.581205 -0.627778
O42   O     O_3   0.363706 0.988974 0.079688 -0.631357
O43   O     O_3   0.363323 0.011346 0.581205 -0.627778
O44   O     O_3   0.970108 0.329400 0.645976 -0.549929
O45   O     O_3   0.136317 0.488436 0.614185 -0.647558
O46   O     O_3   0.970103 0.670198 0.164624 -0.552996
O47   O     O_3   0.470108 0.829400 0.645977 -0.549929
O48   O     O_3   0.470103 0.170198 0.164625 -0.552998
O49   O     O_2   0.085560 0.445380 0.786390 -0.426309
O50   O     O_2   0.085560 0.554620 0.286390 -0.464774
O51   O     O_2   0.585560 0.945380 0.786390 -0.426309
O52   O     O_2   0.585560 0.054620 0.286390 -0.464773
O53   O     O_3   0.014550 0.412170 0.047860 -0.450660
O54   O     O_3   0.014550 0.587830 0.547860 -0.474687
O55   O     O_3   0.514550 0.912170 0.047860 -0.450661
O56   O     O_3   0.135355 0.510039 0.104590 -0.631887
O57   O     O_3   0.514550 0.087830 0.547860 -0.474687
O58   O     O_2   0.101780 0.417542 0.046583 -0.475172
O59   O     O_2   0.099696 0.600613 0.507328 -0.481851
O60   O     O_2   0.601780 0.917540 0.046581 -0.475174
O61   O     O_2   0.599696 0.100613 0.507328 -0.481850
O62   O     O_3   0.040158 0.247164 0.991633 -0.672499
O63   O     O_3   0.050352 0.762682 0.563350 -0.659227
O64   O     O_3   0.540156 0.747164 0.991637 -0.672498
O65   O     O_3   0.550354 0.262682 0.563350 -0.659228
O66   O     O_3   0.000053 0.323690 0.937848 -0.659454
O67   O     O_3   0.636317 0.988435 0.614186 -0.647556
O68   O     O_3   0.990600 0.702275 0.467525 -0.672288
O69   O     O_3   0.500052 0.823690 0.937851 -0.659455
O70   O     O_3   0.490600 0.202276 0.467525 -0.672289
O71   O     O_3   0.107453 0.277975 0.954500 -0.663011
O72   O     O_3   0.107282 0.720044 0.501229 -0.678068
O73   O     O_3   0.607452 0.777973 0.954503 -0.663011
O74   O     O_3   0.607283 0.220043 0.501226 -0.678068
O75   O     O_3   0.635355 0.010039 0.104590 -0.631889
O76   O     O_3   0.069956 0.350062 0.942594 -0.607381
P1    P     P_3+3 0.909970 0.458430 0.077330 1.000058
P2    P     P_3+3 0.058383 0.621126 0.573926 0.962197
P3    P     P_3+3 0.564530 0.887791 0.082358 1.013254
P4    P     P_3+3 0.558383 0.121126 0.573926 0.962197
P5    P     P_3+3 0.945109 0.624801 0.125189 0.976849
P6    P     P_3+3 0.944706 0.375302 0.624577 1.003750
P7    P     P_3+3 0.445109 0.124801 0.125189 0.976848
P8    P     P_3+3 0.444706 0.875302 0.624577 1.003750
P9    P     P_3+3 0.909970 0.541570 0.577330 0.998179
P10   P     P_3+3 0.409970 0.958430 0.077330 1.000059
P11   P     P_3+3 0.409970 0.041570 0.577330 0.998179
P12   P     P_3+3 0.089830 0.458070 0.612460 0.985623
P13   P     P_3+3 0.089830 0.541930 0.112460 0.991617
P14   P     P_3+3 0.589830 0.958070 0.612460 0.985622
P15   P     P_3+3 0.589830 0.041930 0.112460 0.991617
P16   P     P_3+3 0.064531 0.387791 0.082358 1.013256

loop_
_geom_bond_atom_site_label_1
_geom_bond_atom_site_label_2
_ccdc_geom_bond_type
C142  O9    D    
C54   H30   S    
C77   H91   S    
C58   H40   S    
C132  C136  S    
Ba4   O8    S    
C144  O73   S    
C143  H135  S    
C112  N9    Am   
C53   O68   S    
C30   H59   S    
C31   H65   S    
C119  P2    S    
C88   C105  A    
C41   H118  S    
C124  C128  A    
C152  P10   S    
C21   H130  S    
C5    C9    A    
C135  N6    S    
O8    P14   S    
C145  O74   S    
Ba2   P9    S    
C7    C11   A    
C108  O20   D    
C66   C70   A    
C63   C90   A    
Ba2   O6    S    
Ba1   O31   S    
C31   H60   S    
C23   H13   S    
O12   P9    D    
C38   H75   S    
C24   O13   D    
C79   H93   S    
Ba4   P11   S    
C126  C130  A    
C150  P1    S    
C33   H62   S    
C46   N5    Am   
C44   N2    T    
C18   H139  S    
C72   C79   A    
C47   N4    T    
C113  O25   D    
C73   C75   A    
C64   C91   A    
C75   H90   S    
C83   C114  A    
O55   P3    S    
C82   C86   A    
Ba1   O28   S    
C30   H63   S    
C128  C133  S    
C21   H86   S    
C36   H53   S    
C59   H41   S    
C50   O64   S    
C138  C147  S    
C69   C84   A    
C27   H51   S    
C2    N5    Am   
O38   P8    D    
C8    N8    S    
C9    C138  D    
O58   P16   D    
C49   H14   S    
C125  C129  A    
C67   C98   A    
C60   H44   S    
O42   P10   S    
C55   H33   S    
C116  C134  A    
Ba1   O5    S    
C58   H38   S    
C19   H140  S    
C92   H89   S    
C130  C135  S    
C37   H64   S    
C42   C149  S    
C37   H70   S    
C138  H95   S    
C93   C141  S    
C81   C112  A    
Ba4   O29   S    
C80   C84   A    
C34   H1    S    
C76   H74   S    
C32   H61   S    
C37   O47   S    
C115  C119  A    
C15   H127  S    
C78   H92   S    
C134  N5    S    
O40   P1    S    
C14   C121  A    
C73   C120  A    
Ba3   P14   S    
C23   H108  S    
C29   O43   S    
Ba2   O12   S    
C22   H2    S    
C82   C113  A    
C141  H134  S    
C111  O22   D    
C113  N10   Am   
C56   H34   S    
O67   P14   S    
C99   C103  A    
Ba3   O55   S    
C107  N9    Am   
C24   C131  A    
C133  N1    S    
Ba4   O57   S    
Ba3   O30   S    
C52   H22   S    
C95   H132  S    
C126  P15   S    
C127  P14   S    
C28   C32   S    
C60   O74   S    
C48   O62   S    
C75   C80   A    
C96   O4    S    
C35   O14   D    
C94   C143  S    
C34   H68   S    
O28   P9    S    
C25   H49   S    
C8    C137  D    
C19   O75   S    
C63   C68   A    
C118  C123  A    
C45   N3    T    
C49   H12   S    
C52   O66   S    
C129  H104  S    
C54   O69   S    
C76   H123  S    
C55   H31   S    
C111  N8    Am   
C28   H52   S    
C39   C150  D    
C46   C63   A    
O45   P12   S    
C56   H36   S    
C2    O10   D    
C73   H101  S    
Ba1   O6    S    
C57   O16   D    
C61   O17   D    
C53   H26   S    
O49   P12   D    
C137  C146  S    
C96   O70   S    
O29   P10   S    
C26   C30   S    
C97   H81   S    
C3    C42   D    
C50   H16   S    
C1    C34   S    
C33   H67   S    
C16   C123  A    
C127  C132  A    
C6    C10   A    
C34   O44   S    
C26   H55   S    
Ba2   P13   S    
C140  H98   S    
Ba3   O7    S    
C28   O42   S    
C90   H87   S    
C24   N7    Am   
C94   O2    S    
C65   H73   S    
C48   H9    S    
Ba3   O33   S    
C29   H54   S    
C13   C120  A    
C4    C8    A    
C114  N11   Am   
Ba4   P15   S    
C72   C109  A    
C41   C152  D    
C13   N6    Am   
C39   C146  S    
C105  C110  A    
C62   C89   A    
C130  H105  S    
Ba1   P1    S    
C6    H114  S    
C106  O18   D    
C121  P16   S    
Ba3   Ba4   S    
O51   P14   D    
C94   H131  S    
C97   C102  A    
O54   P2    S    
C5    H113  S    
C103  C107  A    
C22   H97   S    
C71   C78   A    
C117  C135  A    
C86   C104  A    
C18   O45   S    
C89   H85   S    
C67   C86   A    
C146  P6    S    
C99   H82   S    
C65   H122  S    
O47   P8    S    
O60   P3    D    
C72   H100  S    
C51   H20   S    
O41   P9    S    
Ba4   O34   S    
C5    C151  A    
C27   O41   S    
C77   C81   A    
C91   C97   A    
C25   H119  S    
C79   C83   A    
C60   H45   S    
C90   C101  A    
C100  H83   S    
C37   C76   S    
C20   H3    S    
Ba3   P10   S    
C61   N7    Am   
Ba1   P12   S    
C9    N9    S    
C112  O24   D    
C38   O48   S    
C68   C88   A    
C147  P5    S    
C144  H136  S    
Ba1   O49   S    
C93   O66   S    
C145  H137  S    
C54   H28   S    
C110  N11   Am   
Ba3   O51   S    
C12   H125  S    
C20   C25   S    
C17   C21   S    
C20   O67   S    
C27   H56   S    
Ba2   O27   S    
O50   P13   D    
C74   C131  A    
O48   P7    S    
C91   H88   S    
C19   H6    S    
C15   C126  A    
C40   H117  S    
C129  C134  S    
C83   C88   A    
C13   O11   D    
C54   H29   S    
C3    P11   S    
C137  H94   S    
C125  P12   S    
C7    H115  S    
C58   H39   S    
C31   C44   S    
Ba4   O7    S    
C114  O26   D    
O2    P2    S    
C123  P3    S    
O32   P5    S    
O37   P5    D    
C139  H96   S    
C132  H106  S    
C17   O56   S    
C21   H35   S    
C81   C85   A    
O44   P6    S    
C78   C82   A    
C29   C33   S    
C57   N6    Am   
C49   O63   S    
Ba1   O53   S    
C51   H18   S    
C96   H133  S    
O59   P2    D    
C62   C67   A    
C70   C131  A    
C85   C103  A    
O57   P4    S    
C74   H102  S    
O52   P15   D    
C35   N1    Am   
Ba4   O35   S    
O75   P15   S    
O76   P16   S    
C39   H116  S    
C48   H8    S    
C139  C148  S    
C60   H47   S    
C36   O46   S    
C149  P7    S    
C17   H4    S    
C27   C31   S    
C143  O72   S    
C20   H7    S    
Ba2   O50   S    
C16   C127  A    
C100  C104  A    
C70   C85   A    
O6    P12   S    
C144  O64   S    
Ba1   O1    S    
C10   C139  D    
C116  C121  A    
C71   H99   S    
O23   P10   D    
C93   H129  S    
C117  H110  S    
C29   H58   S    
C11   N11   S    
C96   C145  S    
Ba3   O23   S    
C46   O15   D    
C15   C122  A    
O43   P11   S    
C59   H42   S    
C143  O63   S    
C95   O69   S    
C41   C148  S    
C56   H37   S    
C55   O70   S    
O36   P6    D    
C74   C77   A    
C101  C105  A    
C68   C109  A    
C118  C136  A    
C104  C108  A    
C18   C22   S    
C92   C99   A    
C14   C125  A    
C30   C43   S    
C16   H128  S    
Ba2   O54   S    
C32   C45   S    
C61   C66   A    
O27   P1    S    
C56   O71   S    
C95   C144  S    
O61   P4    D    
C106  N8    Am   
C95   O3    S    
C122  P4    S    
C4    H112  S    
C148  P8    S    
O53   P16   S    
C53   H25   S    
C38   H71   S    
C3    C7    A    
O46   P5    S    
C59   O73   S    
C50   H17   S    
C22   H46   S    
C12   C119  A    
C38   C87   S    
C33   C47   S    
C26   H50   S    
C36   H69   S    
Ba1   Ba2   S    
C51   O65   S    
C140  C149  S    
O31   P6    S    
C48   H10   S    
C49   H11   S    
C115  H107  S    
C66   C92   A    
C25   H24   S    
C71   C98   A    
C94   O68   S    
C43   N12   T    
C19   C23   S    
C4    C150  A    
O7    P15   S    
C1    H77   S    
C76   H79   S    
C10   N10   S    
Ba4   O52   S    
C89   C100  A    
O56   P13   S    
C118  H111  S    
C128  H103  S    
C52   H21   S    
Ba2   O5    S    
C40   C147  S    
C36   C65   S    
C23   H48   S    
C115  C133  A    
O35   P7    S    
C1    H121  S    
C6    C152  A    
C145  O65   S    
C64   C69   A    
C87   H80   S    
C141  O71   S    
C42   H120  S    
C65   H78   S    
C2    C109  A    
O30   P11   S    
C84   C102  A    
Ba2   O32   S    
C14   H126  S    
C69   C120  A    
C58   O72   S    
C55   H32   S    
C12   C124  A    
C51   H19   S    
O4    P4    S    
O34   P11   D    
C136  N7    S    
C28   H57   S    
C108  N10   Am   
C141  O62   S    
C18   H5    S    
C80   C111  A    
O3    P3    S    
O1    P1    D    
C32   H66   S    
C53   H27   S    
C102  C106  A    
C142  N1    Am   
C116  H109  S    
C40   C151  D    
C50   H15   S    
C17   H138  S    
C124  P13   S    
C1    H72   S    
O5    P13   S    
C87   H76   S    
Ba3   O8    S    
C110  O21   D    
C117  C122  A    
C98   C142  A    
C57   C64   A    
C151  P9    S    
C93   O76   S    
C35   C62   A    
C101  H84   S    
C59   H43   S    
C87   H124  S    
O33   P8    S    
C11   C140  D    
O39   P7    D    
C26   O40   S    
C107  O19   D    
C52   H23   S    
