data_mof_unit_29253.cif
_audit_creation_date              2012-12-10T18:23:08-0500
_audit_creation_method            fapswitch 2.2
_symmetry_space_group_name_H-M    P1
_symmetry_Int_Tables_number       1
_space_group_crystal_system       triclinic
_cell_length_a                    14.969304
_cell_length_b                    14.058385
_cell_length_c                    10.527458
_cell_angle_alpha                 90.704109
_cell_angle_beta                  90.102983
_cell_angle_gamma                 89.634085
_cell_volume                      2215.22714981

loop_
_atom_site_label
_atom_site_type_symbol
_atom_type_description
_atom_site_fract_x
_atom_site_fract_y
_atom_site_fract_z
_atom_type_partial_charge
C1    C     C_R   0.326799 0.500303 0.499083 0.920570
C2    C     C_R   0.950919 0.639790 0.365134 0.522296
C3    C     C_R   0.551512 0.796000 0.414384 0.613719
C4    C     C_R   0.448126 0.203848 0.584872 0.614715
C5    C     C_R   0.449225 0.798670 0.585960 0.679371
C6    C     C_R   0.551641 0.201465 0.414949 0.680463
C7    C     C_R   0.449008 0.899652 0.590098 -0.172608
C8    C     C_R   0.553463 0.100423 0.412401 -0.168865
C9    C     C_R   0.552905 0.897223 0.410356 -0.159018
C10   C     C_R   0.447190 0.102694 0.589344 -0.152279
C11   C     C_R   0.500700 0.949291 0.500202 -0.062885
C12   C     C_R   0.673194 0.499671 0.500802 0.912282
C13   C     C_R   0.500405 0.050699 0.500639 -0.064513
C14   C     C_R   0.398572 0.951562 0.681392 0.206071
C15   C     C_R   0.606234 0.048484 0.323779 0.209014
C16   C     C_R   0.604291 0.947918 0.320225 0.159932
C17   C     C_R   0.395451 0.052062 0.679129 0.163323
C18   C     C_R   0.499357 0.499415 0.257744 1.003251
C19   C     C_R   0.500081 0.500618 0.742367 1.013622
C20   C     C_3   0.430123 0.552298 0.043317 0.575770
C21   C     C_3   0.568881 0.447944 0.957165 0.538111
C22   C     C_3   0.507110 0.590770 0.962554 0.592871
C23   C     C_R   0.953396 0.499292 0.499802 -0.123444
C24   C     C_3   0.491824 0.409353 0.037867 0.578333
C25   C     C_3   0.423442 0.463698 0.957438 -0.108571
C26   C     C_3   0.575413 0.536506 0.043105 -0.099453
C27   C     C_3   0.499831 0.501830 0.876490 -0.457385
C28   C     C_3   0.499047 0.498328 0.123822 -0.468548
C29   C     C_R   0.813298 0.569044 0.434677 -0.224178
C30   C     C_R   0.186661 0.430639 0.564528 -0.212738
C31   C     C_R   0.768762 0.498904 0.501381 -0.238745
C32   C     C_R   0.231219 0.500897 0.498043 -0.232123
C33   C     C_R   0.814936 0.428606 0.568005 0.692248
C34   C     C_R   0.046576 0.500072 0.498746 -0.125682
C35   C     C_R   0.185057 0.570948 0.430940 0.698710
C36   C     C_R   0.907890 0.428155 0.567985 -0.224480
C37   C     C_R   0.092087 0.571225 0.430597 -0.224430
C38   C     C_3   0.277092 0.394771 0.998036 -0.592879
C39   C     C_3   0.719707 0.611046 0.005823 -0.581622
C40   C     C_3   0.406851 0.891370 0.894373 -0.553497
C41   C     C_3   0.752961 0.112019 0.286809 -0.561375
C42   C     C_3   0.609833 0.873170 0.111460 -0.613597
C43   C     C_3   0.252801 0.123494 0.735729 -0.567512
C44   C     C_R   0.905685 0.569822 0.432823 -0.056761
C45   C     C_R   0.094276 0.429641 0.565927 -0.052934
C46   C     C_R   0.956324 0.358720 0.634600 0.612722
C47   C     C_R   0.043637 0.640614 0.363882 0.616457
C48   C     C_R   0.049022 0.359648 0.633536 0.517327
F1    F     F_    0.359617 0.605519 0.091414 -0.578192
F2    F     F_    0.905350 0.707579 0.300174 -0.629578
F3    F     F_    0.601363 0.741483 0.334436 -0.652947
F4    F     F_    0.397174 0.258167 0.663280 -0.687074
F5    F     F_    0.397965 0.747588 0.666019 -0.584369
F6    F     F_    0.600143 0.252830 0.331854 -0.590713
F7    F     F_    0.639862 0.395367 0.909257 -0.570690
F8    F     F_    0.515015 0.683221 0.921213 -0.638245
F9    F     F_    0.483799 0.316746 0.078989 -0.592806
F10   F     F_    0.768940 0.362836 0.634950 -0.564187
F11   F     F_    0.231087 0.636703 0.364022 -0.560132
F12   F     F_    0.914570 0.289698 0.700877 -0.544685
F13   F     F_    0.085398 0.709610 0.297570 -0.538469
F14   F     F_    0.094527 0.292061 0.698865 -0.652937
H1    H     H_    0.775513 0.622196 0.383004 0.245114
H2    H     H_    0.745288 0.552233 0.944239 0.257437
H3    H     H_    0.290103 0.926851 0.799524 0.251292
H4    H     H_    0.371606 0.843890 0.960966 0.282880
H5    H     H_    0.417371 0.961450 0.941858 0.195194
H6    H     H_    0.472760 0.858944 0.871067 0.271731
H7    H     H_    0.662955 0.071543 0.146699 0.256338
H8    H     H_    0.790936 0.156341 0.219341 0.252010
H9    H     H_    0.788087 0.042671 0.297344 0.220453
H10   H     H_    0.751001 0.149657 0.380236 0.260446
H11   H     H_    0.701972 0.850487 0.259584 0.304428
H12   H     H_    0.224418 0.377585 0.616432 0.235184
H13   H     H_    0.657705 0.842117 0.041783 0.247988
H14   H     H_    0.577706 0.936451 0.068243 0.207746
H15   H     H_    0.557662 0.819712 0.131768 0.298717
H16   H     H_    0.375605 0.151823 0.825606 0.292870
H17   H     H_    0.216554 0.155610 0.817743 0.264028
H18   H     H_    0.216683 0.058546 0.704440 0.226340
H19   H     H_    0.252700 0.174982 0.656645 0.283287
H20   H     H_    0.352237 0.375592 0.834422 0.295926
H21   H     H_    0.214955 0.372215 0.948726 0.244966
H22   H     H_    0.260055 0.453929 0.064671 0.277977
H23   H     H_    0.304007 0.333570 0.052158 0.249424
H24   H     H_    0.685866 0.530856 0.162856 0.245440
H25   H     H_    0.776853 0.643969 0.056953 0.248420
H26   H     H_    0.687804 0.666266 0.946121 0.256084
N1    N     N_R   0.500000 0.750030 0.500000 -0.202177
N2    N     N_R   0.500000 0.249970 0.500000 -0.197034
N3    N     N_2   0.341472 0.425436 0.905249 -0.264496
N4    N     N_2   0.656732 0.575053 0.096987 -0.233848
N5    N     N_2   0.353856 0.902698 0.780431 -0.238644
N6    N     N_2   0.663427 0.097407 0.238719 -0.234338
N7    N     N_2   0.657072 0.900173 0.226380 -0.309267
N8    N     N_2   0.343234 0.099919 0.773531 -0.328672
O1    O     O_R   0.367850 0.580280 0.500030 -0.531881
O2    O     O_R   0.632150 0.419720 0.499970 -0.538823
O3    O     O_R   0.632150 0.580280 0.499970 -0.613967
O4    O     O_R   0.367850 0.419720 0.500030 -0.619619
O5    O     O_R   0.499970 0.580260 0.313950 -0.547079
O6    O     O_R   0.500030 0.419740 0.686050 -0.562507
O7    O     O_R   0.500030 0.580260 0.686050 -0.559284
O8    O     O_R   0.499970 0.419740 0.313950 -0.559560
Zn1   Zn    Zn3+2 0.500000 0.607200 0.500000 1.121212
Zn2   Zn    Zn3+2 0.500000 0.392800 0.500000 1.112231

loop_
_geom_bond_atom_site_label_1
_geom_bond_atom_site_label_2
_ccdc_geom_bond_type
C21   C26   S    
C29   H1    S    
C33   F10   S    
C38   H21   S    
C34   C37   A    
C30   C45   A    
C39   H25   S    
C40   N5    S    
C42   H14   S    
C15   N6    S    
O8    Zn2   S    
C7    C11   A    
C39   H2    S    
C42   H13   S    
C8    C13   A    
C4    F4    S    
C5    F5    S    
C35   C37   A    
C9    C16   A    
C30   H12   S    
C19   O6    A    
C20   C25   S    
C10   C17   A    
C43   H17   S    
C15   C16   A    
C33   C36   A    
C35   F11   S    
C12   O3    A    
C2    F2    S    
C19   O7    A    
C7    C14   A    
C2    C44   A    
C24   F9    S    
C40   H5    S    
C31   C33   A    
C36   C46   A    
C37   C47   A    
C19   C27   S    
C14   N5    S    
C12   O2    A    
C41   H9    S    
O1    Zn1   S    
H3    N5    S    
C21   C27   S    
C40   H4    S    
C14   C17   A    
C39   H26   S    
C6    F6    S    
C1    O4    A    
C4    N2    A    
O5    Zn1   S    
O3    Zn1   S    
C46   C48   A    
C25   N3    S    
C38   H23   S    
C42   N7    S    
C32   C35   A    
C18   C28   S    
C24   C25   S    
N2    Zn2   S    
H7    N6    S    
C1    O1    A    
C17   N8    S    
C3    F3    S    
C6    C8    A    
C20   C28   S    
C43   H18   S    
C6    N2    A    
C38   N3    S    
C1    C32   S    
C23   C44   A    
C18   O5    A    
C20   F1    S    
C3    C9    A    
C5    C7    A    
C48   F14   S    
C41   N6    S    
C23   C34   A    
C43   N8    S    
O7    Zn1   S    
C34   C45   A    
C18   O8    A    
C9    C11   A    
C41   H10   S    
C20   C22   S    
C8    C15   A    
C22   C27   S    
C12   C31   S    
C22   C26   S    
C43   H19   S    
H11   N7    S    
C4    C10   A    
C39   N4    S    
C21   F7    S    
C45   C48   A    
C16   N7    S    
C46   F12   S    
O4    Zn2   S    
C24   C28   S    
C10   C13   A    
C47   F13   S    
C22   F8    S    
C2    C47   A    
C25   C27   S    
C26   C28   S    
O2    Zn2   S    
C3    N1    A    
C38   H22   S    
C29   C44   A    
H24   N4    S    
C30   C32   A    
C11   C13   A    
H16   N8    S    
O6    Zn2   S    
H20   N3    S    
C42   H15   S    
C29   C31   A    
C23   C36   A    
C40   H6    S    
C21   C24   S    
N1    Zn1   S    
C26   N4    S    
C5    N1    A    
C41   H8    S    
