data_mof_unit_51557.cif
_audit_creation_date              2012-12-10T17:15:48-0500
_audit_creation_method            fapswitch 2.2
_symmetry_space_group_name_H-M    P1
_symmetry_Int_Tables_number       1
_space_group_crystal_system       triclinic
_cell_length_a                    10.117067
_cell_length_b                    10.655897
_cell_length_c                    10.831792
_cell_angle_alpha                 89.938336
_cell_angle_beta                  95.142961
_cell_angle_gamma                 80.659211
_cell_volume                      1147.46917687

loop_
_atom_site_label
_atom_site_type_symbol
_atom_type_description
_atom_site_fract_x
_atom_site_fract_y
_atom_site_fract_z
_atom_type_partial_charge
C1    C     C_R   0.443858 0.505085 0.267352 0.949192
C2    C     C_2   0.487523 0.463633 0.934034 -0.100782
C3    C     C_2   0.069814 0.494925 0.487678 -0.138039
C4    C     C_R   0.506646 0.260930 0.520966 0.899011
C5    C     C_2   0.921969 0.519545 0.501444 -0.032962
C6    C     C_R   0.556141 0.488497 0.732678 0.950044
C7    C     C_R   0.498443 0.741425 0.492906 0.894657
C8    C     C_R   0.765569 0.076542 0.531218 -0.149260
C9    C     C_R   0.871396 0.003237 0.477221 -0.179945
C10   C     C_R   0.849173 0.896731 0.407968 -0.008789
C11   C     C_R   0.722067 0.859355 0.403596 -0.211931
C12   C     C_R   0.635140 0.043523 0.518975 0.104195
C13   C     C_R   0.618957 0.925027 0.471238 0.076333
C14   C     C_2   0.296461 0.149717 0.647731 0.963060
C15   C     C_2   0.121345 0.626714 0.655356 1.020274
C16   C     C_2   0.958941 0.822518 0.343296 0.896657
C17   C     C_R   0.519006 0.126153 0.550029 -0.205192
C18   C     C_R   0.404769 0.076727 0.579975 -0.067827
C19   C     C_R   0.397051 0.951886 0.551296 -0.201340
C20   C     C_R   0.501389 0.876309 0.495842 -0.142767
C21   C     C_2   0.411877 0.497302 0.135659 -0.351234
C22   C     C_2   0.512477 0.459724 0.065956 -0.145984
C23   C     C_2   0.588063 0.470872 0.864374 -0.357647
H1    H     H_    0.308495 0.523342 0.095663 0.161343
H2    H     H_    0.616126 0.433872 0.105553 0.194605
H3    H     H_    0.691346 0.465560 0.904418 0.164338
H4    H     H_    0.100388 0.179723 0.679775 0.344853
H5    H     H_    0.024330 0.647104 0.810861 0.339061
H6    H     H_    0.017153 0.675305 0.232631 0.345981
H7    H     H_    0.878426 0.598911 0.555131 0.188130
H8    H     H_    0.105431 0.429572 0.416554 0.159706
H9    H     H_    0.885689 0.372937 0.398797 0.170380
H10   H     H_    0.787161 0.158053 0.584186 0.170876
H11   H     H_    0.969422 0.032249 0.486511 0.218994
H12   H     H_    0.704272 0.779998 0.345988 0.206096
H13   H     H_    0.310898 0.912380 0.576772 0.242019
H14   H     H_    0.383928 0.469252 0.894423 0.214928
N1    N     N_2   0.157290 0.551390 0.551110 -0.151722
N2    N     N_2   0.842740 0.448550 0.448960 -0.203731
O1    O     O_R   0.568950 0.489660 0.307530 -0.608427
O2    O     O_R   0.164944 0.124302 0.628195 -0.822400
O3    O     O_2   0.170098 0.723188 0.675259 -0.613610
O4    O     O_R   0.039500 0.586161 0.739806 -0.837619
O5    O     O_2   0.071613 0.851343 0.353443 -0.614061
O6    O     O_R   0.934086 0.718903 0.270731 -0.822482
O7    O     O_R   0.348880 0.522640 0.340350 -0.616684
O8    O     O_R   0.610060 0.300270 0.483590 -0.629029
O9    O     O_R   0.389990 0.333260 0.516410 -0.605155
O10   O     O_R   0.651120 0.477360 0.659650 -0.613443
O11   O     O_R   0.431050 0.510340 0.692470 -0.597408
O12   O     O_R   0.610010 0.666740 0.483590 -0.635491
O13   O     O_R   0.389940 0.699730 0.516410 -0.570575
O14   O     O_2   0.322869 0.229354 0.723276 -0.622080
Zn1   Zn    Zn3+2 0.646940 0.477980 0.478090 0.956303
Zn2   Zn    Zn3+2 0.353060 0.522020 0.521910 1.026580

loop_
_geom_bond_atom_site_label_1
_geom_bond_atom_site_label_2
_ccdc_geom_bond_type
C12   C17   A    
C2    C22   S    
O9    Zn2   S    
C15   N1    S    
C1    C21   S    
O7    Zn2   S    
C9    C10   A    
C16   O5    D    
H5    O4    S    
C19   C20   A    
C13   C20   A    
O13   Zn2   S    
C8    C12   A    
O12   Zn1   S    
C11   H12   S    
C17   C18   A    
C15   O4    S    
C10   C16   S    
C21   C22   D    
C6    O11   A    
C3    H8    S    
C11   C13   A    
C2    H14   S    
C14   O2    S    
C6    C23   S    
C7    O13   A    
C18   C19   A    
O1    Zn1   S    
C19   H13   S    
O8    Zn1   S    
C6    O10   A    
C9    H11   S    
C1    O7    A    
C21   H1    S    
N2    Zn1   S    
C10   C11   A    
C4    C17   S    
C16   O6    S    
C7    O12   A    
O10   Zn1   S    
C14   O14   D    
C12   C13   A    
C15   O3    D    
C7    C20   S    
C4    O9    A    
H9    N2    S    
C2    C23   D    
C23   H3    S    
C5    N2    D    
H4    O2    S    
C8    C9    A    
C1    O1    A    
C5    H7    S    
C14   C18   S    
C4    O8    A    
N1    Zn2   S    
O11   Zn2   S    
C3    N1    D    
H6    O6    S    
C8    H10   S    
C3    C5    S    
C22   H2    S    
