data_mof_unit_55868.cif
_audit_creation_date              2012-12-10T16:37:50-0500
_audit_creation_method            fapswitch 2.2
_symmetry_space_group_name_H-M    P1
_symmetry_Int_Tables_number       1
_space_group_crystal_system       triclinic
_cell_length_a                    28.089946
_cell_length_b                    18.367945
_cell_length_c                    16.929326
_cell_angle_alpha                 89.999808
_cell_angle_beta                  62.009994
_cell_angle_gamma                 89.999898
_cell_volume                      7713.05342951

loop_
_atom_site_label
_atom_site_type_symbol
_atom_type_description
_atom_site_fract_x
_atom_site_fract_y
_atom_site_fract_z
_atom_type_partial_charge
C1    C     C_R   0.700840 0.265263 0.676810 0.919899
C2    C     C_R   0.298925 0.734230 0.322983 0.906656
C3    C     C_R   0.299160 0.265264 0.323190 0.919906
C4    C     C_R   0.701075 0.734230 0.677017 0.906655
C5    C     C_R   0.200840 0.765263 0.676810 0.919900
C6    C     C_R   0.798925 0.234230 0.322983 0.906661
C7    C     C_R   0.799161 0.765263 0.323190 0.919902
C8    C     C_R   0.201075 0.234230 0.677017 0.906651
C9    C     C_R   0.893950 0.499709 0.522922 0.025567
C10   C     C_R   0.106051 0.499709 0.477075 0.025568
C11   C     C_R   0.393946 0.999709 0.522932 0.025570
C12   C     C_R   0.606047 0.999709 0.477085 0.025565
C13   C     C_R   0.111269 0.369914 0.451608 0.067630
C14   C     C_R   0.888794 0.629526 0.547697 0.068941
C15   C     C_R   0.888732 0.369914 0.548389 0.067630
C16   C     C_R   0.111206 0.629527 0.452302 0.068940
C17   C     C_R   0.611267 0.869915 0.451612 0.067630
C18   C     C_R   0.388786 0.129525 0.547716 0.068935
C19   C     C_R   0.388730 0.869914 0.548392 0.067630
C20   C     C_R   0.611200 0.129527 0.452320 0.068947
C21   C     C_R   0.715856 0.258141 0.958177 -0.016931
C22   C     C_R   0.281051 0.737334 0.043275 -0.022435
C23   C     C_R   0.284142 0.258145 0.041824 -0.016924
C24   C     C_R   0.718950 0.737330 0.956724 -0.022436
C25   C     C_R   0.215856 0.758140 0.958177 -0.016928
C26   C     C_R   0.781052 0.237334 0.043275 -0.022435
C27   C     C_R   0.784145 0.758137 0.041822 -0.016928
C28   C     C_R   0.218947 0.237338 0.956725 -0.022433
C29   C     C_R   0.765393 0.220245 0.913986 0.082745
C30   C     C_R   0.231092 0.774584 0.087975 0.082986
C31   C     C_R   0.234605 0.220252 0.086015 0.082743
C32   C     C_R   0.768909 0.774581 0.912025 0.082987
C33   C     C_R   0.265392 0.720245 0.913987 0.082744
C34   C     C_R   0.731092 0.274585 0.087974 0.082992
C35   C     C_R   0.734610 0.720238 0.086011 0.082741
C36   C     C_R   0.268907 0.274587 0.912025 0.082980
C37   C     C_R   0.800190 0.214751 0.953740 0.004481
C38   C     C_R   0.196453 0.780658 0.047837 0.035617
C39   C     C_R   0.199808 0.214757 0.046261 0.004477
C40   C     C_R   0.803548 0.780656 0.952163 0.035617
C41   C     C_R   0.300189 0.714750 0.953741 0.004482
C42   C     C_R   0.696453 0.280659 0.047837 0.035614
C43   C     C_R   0.699813 0.714743 0.046257 0.004482
C44   C     C_R   0.303546 0.280662 0.952163 0.035621
C45   C     C_R   0.635538 0.308894 0.956084 0.005780
C46   C     C_R   0.362807 0.688875 0.043379 -0.068383
C47   C     C_R   0.364461 0.308895 0.043916 0.005789
C48   C     C_R   0.637194 0.688872 0.956620 -0.068381
C49   C     C_R   0.135538 0.808893 0.956084 0.005784
C50   C     C_R   0.862807 0.188875 0.043379 -0.068382
C51   C     C_R   0.864463 0.808893 0.043916 0.005784
C52   C     C_R   0.137192 0.188877 0.956621 -0.068381
C53   C     C_R   0.611200 0.336498 0.904114 -0.107018
C54   C     C_R   0.388473 0.663780 0.094733 -0.196019
C55   C     C_R   0.388800 0.336498 0.095885 -0.107019
C56   C     C_R   0.611527 0.663780 0.905267 -0.196019
C57   C     C_R   0.111200 0.836498 0.904114 -0.107019
C58   C     C_R   0.888473 0.163780 0.094733 -0.196017
C59   C     C_R   0.888800 0.836497 0.095886 -0.107020
C60   C     C_R   0.111527 0.163780 0.905267 -0.196021
C61   C     C_R   0.629104 0.312135 0.816637 0.008894
C62   C     C_R   0.371283 0.690330 0.181242 -0.014306
C63   C     C_R   0.370896 0.312134 0.183362 0.008893
C64   C     C_R   0.628717 0.690331 0.818758 -0.014307
C65   C     C_R   0.129104 0.812135 0.816637 0.008894
C66   C     C_R   0.871282 0.190329 0.181243 -0.014313
C67   C     C_R   0.870896 0.812134 0.183363 0.008896
C68   C     C_R   0.128717 0.190331 0.818757 -0.014306
C69   C     C_R   0.676262 0.271695 0.774782 -0.129019
C70   C     C_R   0.322825 0.727570 0.224704 -0.116169
C71   C     C_R   0.323737 0.271696 0.225219 -0.129018
C72   C     C_R   0.677175 0.727570 0.775296 -0.116168
C73   C     C_R   0.176262 0.771695 0.774782 -0.129019
C74   C     C_R   0.822825 0.227570 0.224704 -0.116169
C75   C     C_R   0.823738 0.771694 0.225219 -0.129020
C76   C     C_R   0.177175 0.227571 0.775296 -0.116165
C77   C     C_R   0.703067 0.247472 0.824306 0.038816
C78   C     C_R   0.294746 0.749438 0.176213 0.041989
C79   C     C_R   0.296931 0.247475 0.175695 0.038814
C80   C     C_R   0.705254 0.749437 0.823786 0.041989
C81   C     C_R   0.203067 0.747472 0.824306 0.038815
C82   C     C_R   0.794746 0.249439 0.176213 0.041992
C83   C     C_R   0.796934 0.747470 0.175694 0.038814
C84   C     C_R   0.205253 0.249440 0.823786 0.041984
C85   C     C_R   0.703238 0.130063 0.498738 0.913673
C86   C     C_R   0.296374 0.869507 0.502381 0.940762
C87   C     C_R   0.296758 0.130064 0.501270 0.913665
C88   C     C_R   0.703624 0.869508 0.497621 0.940761
C89   C     C_R   0.203240 0.630064 0.498734 0.913671
C90   C     C_R   0.796375 0.369508 0.502379 0.940763
C91   C     C_R   0.796760 0.630064 0.501266 0.913668
C92   C     C_R   0.203625 0.369508 0.497620 0.940760
C93   C     C_R   0.685088 0.272247 0.912536 0.040587
C94   C     C_R   0.312644 0.724474 0.087910 0.067183
C95   C     C_R   0.314911 0.272250 0.087464 0.040585
C96   C     C_R   0.687357 0.724471 0.912089 0.067181
C97   C     C_R   0.185088 0.772246 0.912537 0.040587
C98   C     C_R   0.812644 0.224474 0.087910 0.067183
C99   C     C_R   0.814913 0.772245 0.087463 0.040587
C100  C     C_R   0.187355 0.224476 0.912090 0.067186
C101  C     C_R   0.610020 0.309652 0.050965 -0.023041
C102  C     C_R   0.387407 0.686538 0.948273 -0.008488
C103  C     C_R   0.389979 0.309653 0.949035 -0.023042
C104  C     C_R   0.612595 0.686533 0.051726 -0.008483
C105  C     C_R   0.110020 0.809651 0.050965 -0.023042
C106  C     C_R   0.887407 0.186538 0.948273 -0.008489
C107  C     C_R   0.889980 0.809651 0.949035 -0.023043
C108  C     C_R   0.112591 0.186544 0.051728 -0.008508
C109  C     C_R   0.640876 0.299236 0.096642 -0.019871
C110  C     C_R   0.355773 0.697307 0.903814 0.034492
C111  C     C_R   0.359123 0.299237 0.903358 -0.019913
C112  C     C_R   0.644230 0.697296 0.096184 0.034482
C113  C     C_R   0.140875 0.799234 0.096642 -0.019890
C114  C     C_R   0.855773 0.197308 0.903814 0.034490
C115  C     C_R   0.859125 0.799234 0.903358 -0.019891
C116  C     C_R   0.144225 0.197316 0.096188 0.034505
C117  C     C_R   0.744970 0.195463 0.791877 -0.176385
C118  C     C_R   0.251879 0.800070 0.209455 -0.195228
C119  C     C_R   0.255027 0.195468 0.208125 -0.176383
C120  C     C_R   0.748122 0.800068 0.790545 -0.195228
C121  C     C_R   0.244969 0.695462 0.791877 -0.176384
C122  C     C_R   0.751879 0.300071 0.209454 -0.195231
C123  C     C_R   0.755033 0.695458 0.208122 -0.176379
C124  C     C_R   0.248120 0.300072 0.790544 -0.195223
C125  C     C_R   0.775773 0.182937 0.835074 -0.167127
C126  C     C_R   0.220441 0.811417 0.167190 -0.162988
C127  C     C_R   0.224223 0.182944 0.164929 -0.167130
C128  C     C_R   0.779559 0.811415 0.832810 -0.162989
C129  C     C_R   0.275773 0.682937 0.835074 -0.167128
C130  C     C_R   0.720441 0.311418 0.167190 -0.163003
C131  C     C_R   0.724232 0.682928 0.164922 -0.167125
C132  C     C_R   0.279558 0.311419 0.832809 -0.162972
C133  C     C_R   0.071934 0.103551 0.936459 0.869733
C134  C     C_R   0.927919 0.896848 0.063897 0.968275
C135  C     C_R   0.928066 0.103551 0.063540 0.869737
C136  C     C_R   0.072081 0.896849 0.936103 0.968276
C137  C     C_R   0.571933 0.603552 0.936460 0.869739
C138  C     C_R   0.427919 0.396848 0.063897 0.968270
C139  C     C_R   0.428066 0.603551 0.063540 0.869738
C140  C     C_R   0.572081 0.396849 0.936103 0.968268
C141  C     C_R   0.555271 0.132605 0.478973 -0.005955
C142  C     C_R   0.444676 0.866830 0.521441 -0.004624
C143  C     C_R   0.444714 0.132605 0.521079 -0.005947
C144  C     C_R   0.555321 0.866830 0.478563 -0.004625
C145  C     C_R   0.055278 0.632605 0.478947 -0.005954
C146  C     C_R   0.944678 0.366829 0.521437 -0.004623
C147  C     C_R   0.944722 0.632604 0.521052 -0.005954
C148  C     C_R   0.055323 0.366830 0.478559 -0.004623
C149  C     C_R   0.527721 0.199606 0.488876 -0.056180
C150  C     C_R   0.472240 0.799822 0.511379 -0.055863
C151  C     C_R   0.472259 0.199606 0.511210 -0.056166
C152  C     C_R   0.527757 0.799822 0.488618 -0.055865
C153  C     C_R   0.027731 0.699606 0.488834 -0.056173
C154  C     C_R   0.972242 0.299822 0.511379 -0.055861
C155  C     C_R   0.972269 0.699605 0.511166 -0.056172
C156  C     C_R   0.027760 0.299822 0.488617 -0.055861
C157  C     C_R   0.473003 0.066401 0.507981 0.007676
C158  C     C_R   0.527007 0.933043 0.491916 0.007962
C159  C     C_R   0.526986 0.066401 0.492053 0.007683
C160  C     C_R   0.472988 0.933043 0.508095 0.007964
C161  C     C_R   0.973009 0.566401 0.507963 0.007680
C162  C     C_R   0.027010 0.433043 0.491909 0.007962
C163  C     C_R   0.026992 0.566401 0.492035 0.007680
C164  C     C_R   0.972991 0.433043 0.508088 0.007963
C165  C     C_R   0.946376 0.499723 0.514633 -0.007664
C166  C     C_R   0.053625 0.499724 0.485365 -0.007664
C167  C     C_R   0.446372 0.999724 0.514644 -0.007665
C168  C     C_R   0.553620 0.999724 0.485376 -0.007665
C169  C     C_R   0.867169 0.433692 0.529529 -0.009339
C170  C     C_R   0.132712 0.565719 0.471289 0.006854
C171  C     C_R   0.132832 0.433692 0.470468 -0.009340
C172  C     C_R   0.867288 0.565719 0.528710 0.006855
C173  C     C_R   0.367166 0.933692 0.529535 -0.009344
C174  C     C_R   0.632708 0.065719 0.471299 0.006850
C175  C     C_R   0.632829 0.933692 0.470474 -0.009337
C176  C     C_R   0.367284 0.065719 0.528721 0.006858
C177  C     C_R   0.817732 0.434603 0.524495 -0.131704
C178  C     C_R   0.182091 0.564699 0.476755 -0.169150
C179  C     C_R   0.182269 0.434603 0.475503 -0.131704
C180  C     C_R   0.817909 0.564698 0.523244 -0.169148
C181  C     C_R   0.317730 0.934603 0.524498 -0.131705
C182  C     C_R   0.682089 0.064698 0.476761 -0.169146
C183  C     C_R   0.682267 0.934603 0.475507 -0.131703
C184  C     C_R   0.317906 0.064699 0.523251 -0.169153
C185  C     C_R   0.790629 0.499372 0.532875 0.003069
C186  C     C_R   0.209372 0.499372 0.467124 0.003072
C187  C     C_R   0.290627 0.999372 0.532879 0.003076
C188  C     C_R   0.709370 0.999372 0.467127 0.003064
H1    H     H_    0.753283 0.160652 0.735602 0.183900
H2    H     H_    0.243460 0.835473 0.265230 0.186787
H3    H     H_    0.246713 0.160657 0.264400 0.183904
H4    H     H_    0.756540 0.835472 0.734770 0.186787
H5    H     H_    0.253283 0.660652 0.735602 0.183901
H6    H     H_    0.743461 0.335474 0.265230 0.186786
H7    H     H_    0.746721 0.660648 0.264397 0.183899
H8    H     H_    0.256539 0.335475 0.734768 0.186788
H9    H     H_    0.806161 0.140911 0.807960 0.167453
H10   H     H_    0.189669 0.852882 0.194910 0.175845
H11   H     H_    0.193834 0.140920 0.192044 0.167453
H12   H     H_    0.810331 0.852881 0.805091 0.175845
H13   H     H_    0.306161 0.640911 0.807960 0.167454
H14   H     H_    0.689670 0.352884 0.194909 0.175838
H15   H     H_    0.693847 0.640897 0.192032 0.167455
H16   H     H_    0.310330 0.352885 0.805088 0.175852
O1    O     O_R   0.746490 0.236330 0.638080 -0.681102
O2    O     O_R   0.253510 0.763670 0.361920 -0.679135
O3    O     O_R   0.253510 0.236330 0.361920 -0.681105
O4    O     O_R   0.746490 0.763670 0.638080 -0.679135
O5    O     O_R   0.246490 0.736330 0.638080 -0.681103
O6    O     O_R   0.753510 0.263670 0.361920 -0.679129
O7    O     O_R   0.753510 0.736330 0.361920 -0.681099
O8    O     O_R   0.246490 0.263670 0.638080 -0.679142
O9    O     O_R   0.674170 0.186160 0.516270 -0.643157
O10   O     O_R   0.325830 0.813840 0.483730 -0.652361
O11   O     O_R   0.325830 0.186160 0.483730 -0.643138
O12   O     O_R   0.674170 0.813840 0.516270 -0.652360
O13   O     O_R   0.174170 0.686160 0.516270 -0.643149
O14   O     O_R   0.825830 0.313840 0.483730 -0.652361
O15   O     O_R   0.825830 0.686160 0.483730 -0.643149
O16   O     O_R   0.174170 0.313840 0.516270 -0.652360
O17   O     O_R   0.739960 0.127620 0.525000 -0.635295
O18   O     O_R   0.260040 0.872380 0.475000 -0.607819
O19   O     O_R   0.260040 0.127620 0.475000 -0.635289
O20   O     O_R   0.739960 0.872380 0.525000 -0.607819
O21   O     O_R   0.239960 0.627620 0.525000 -0.635292
O22   O     O_R   0.760040 0.372380 0.475000 -0.607819
O23   O     O_R   0.760040 0.627620 0.475000 -0.635293
O24   O     O_R   0.239960 0.372380 0.525000 -0.607820
O25   O     O_R   0.680700 0.294870 0.629350 -0.600433
O26   O     O_R   0.319300 0.705130 0.370650 -0.608220
O27   O     O_R   0.319300 0.294870 0.370650 -0.600431
O28   O     O_R   0.680700 0.705130 0.629350 -0.608218
O29   O     O_R   0.180700 0.794870 0.629350 -0.600433
O30   O     O_R   0.819300 0.205130 0.370650 -0.608214
O31   O     O_R   0.819300 0.794870 0.370650 -0.600433
O32   O     O_R   0.180700 0.205130 0.629350 -0.608220
O33   O     O_R   0.062020 0.072840 0.007170 -0.594782
O34   O     O_R   0.937980 0.927160 0.992830 -0.627904
O35   O     O_R   0.937980 0.072840 0.992830 -0.594753
O36   O     O_R   0.062020 0.927160 0.007170 -0.627906
O37   O     O_R   0.562020 0.572840 0.007170 -0.594750
O38   O     O_R   0.437980 0.427160 0.992830 -0.627904
O39   O     O_R   0.437980 0.572840 0.992830 -0.594756
O40   O     O_R   0.562020 0.427160 0.007170 -0.627905
O41   O     O_R   0.947860 0.073950 0.109290 -0.614903
O42   O     O_R   0.052140 0.926050 0.890710 -0.640577
O43   O     O_R   0.052140 0.073950 0.890710 -0.614883
O44   O     O_R   0.947860 0.926050 0.109290 -0.640578
O45   O     O_R   0.447860 0.573950 0.109290 -0.614886
O46   O     O_R   0.552140 0.426050 0.890710 -0.640577
O47   O     O_R   0.552140 0.573950 0.890710 -0.614887
O48   O     O_R   0.447860 0.426050 0.109290 -0.640578
Zn1   Zn    Zn3+2 0.792340 0.208750 0.507670 0.921889
Zn2   Zn    Zn3+2 0.207660 0.791250 0.492330 0.933080
Zn3   Zn    Zn3+2 0.207660 0.208750 0.492330 0.921883
Zn4   Zn    Zn3+2 0.792340 0.791250 0.507670 0.933079
Zn5   Zn    Zn3+2 0.292340 0.708750 0.507670 0.921884
Zn6   Zn    Zn3+2 0.707660 0.291250 0.492330 0.933085
Zn7   Zn    Zn3+2 0.707660 0.708750 0.492330 0.921888
Zn8   Zn    Zn3+2 0.292340 0.291250 0.507670 0.933073
Zn9   Zn    Zn3+2 0.505960 0.500000 0.080520 0.991186
Zn10  Zn    Zn3+2 0.494040 0.500000 0.919480 0.991192
Zn11  Zn    Zn3+2 0.005960 0.000000 0.080520 0.991162
Zn12  Zn    Zn3+2 0.994040 0.000000 0.919480 0.991187
C189  C     C_2   0.055944 0.229813 0.481756 0.502013
H17   H     H_    0.079125 0.222811 0.517541 0.053259
O49   O     O_2   0.054763 0.180560 0.434258 -0.551428
C190  C     C_2   0.944120 0.769605 0.517816 0.488770
H18   H     H_    0.921026 0.776553 0.481874 0.046073
O50   O     O_2   0.945201 0.818894 0.565353 -0.558441
C191  C     C_2   0.944059 0.229812 0.518239 0.502017
H19   H     H_    0.920877 0.222811 0.482454 0.053263
O51   O     O_2   0.945240 0.180559 0.565736 -0.551428
C192  C     C_2   0.055880 0.769605 0.482185 0.488769
H20   H     H_    0.078974 0.776553 0.518126 0.046074
O52   O     O_2   0.054798 0.818895 0.434649 -0.558441
C193  C     C_2   0.555941 0.729813 0.481756 0.502017
H21   H     H_    0.579122 0.722810 0.517543 0.053257
O53   O     O_2   0.554762 0.680561 0.434256 -0.551422
C194  C     C_2   0.444107 0.269607 0.517886 0.488864
H22   H     H_    0.421026 0.276577 0.481924 0.046037
O54   O     O_2   0.445170 0.318872 0.565465 -0.558468
C195  C     C_2   0.444057 0.729813 0.518234 0.502005
H23   H     H_    0.420876 0.722815 0.482449 0.053262
O55   O     O_2   0.445239 0.680557 0.565727 -0.551423
C196  C     C_2   0.555867 0.269604 0.482247 0.488675
H24   H     H_    0.578972 0.276535 0.518174 0.046114
O56   O     O_2   0.554771 0.318914 0.434747 -0.558437
N1    N     N_3   0.734036 0.497475 0.557675 -0.438699
H25   H     H_    0.713172 0.535744 0.607982 0.183009
H26   H     H_    0.728470 0.507602 0.501854 0.236216
N2    N     N_3   0.265964 0.497476 0.442325 -0.438702
H27   H     H_    0.271530 0.507602 0.498146 0.236215
H28   H     H_    0.286828 0.535745 0.392019 0.183009
N3    N     N_3   0.234035 0.997475 0.557675 -0.438699
H29   H     H_    0.213169 0.035743 0.607981 0.183007
H30   H     H_    0.228470 0.007602 0.501852 0.236217
N4    N     N_3   0.765962 0.997476 0.442325 -0.438701
H31   H     H_    0.771530 0.007602 0.498144 0.236216
H32   H     H_    0.786826 0.035745 0.392018 0.183009
N5    N     N_3   0.146583 0.322926 0.379312 -0.438990
H33   H     H_    0.183151 0.349081 0.338902 0.186222
H34   H     H_    0.155001 0.275101 0.403309 0.220222
N6    N     N_3   0.853405 0.676245 0.620271 -0.434968
H35   H     H_    0.845216 0.724410 0.596592 0.220768
H36   H     H_    0.816722 0.650160 0.660180 0.186265
N7    N     N_3   0.853419 0.322925 0.620685 -0.438991
H37   H     H_    0.816851 0.349080 0.661096 0.186223
H38   H     H_    0.845001 0.275100 0.596688 0.220222
N8    N     N_3   0.146594 0.676247 0.379729 -0.434968
H39   H     H_    0.154783 0.724411 0.403409 0.220767
H40   H     H_    0.183278 0.650162 0.339820 0.186267
N9    N     N_3   0.646581 0.822927 0.379316 -0.438992
H41   H     H_    0.683149 0.849082 0.338906 0.186222
H42   H     H_    0.654998 0.775101 0.403312 0.220224
N10   N     N_3   0.353395 0.176244 0.620287 -0.434963
H43   H     H_    0.345205 0.224407 0.596603 0.220775
H44   H     H_    0.316712 0.150157 0.660194 0.186259
N11   N     N_3   0.353417 0.822924 0.620687 -0.438989
H45   H     H_    0.316848 0.849077 0.661099 0.186223
H46   H     H_    0.345000 0.775098 0.596690 0.220224
N12   N     N_3   0.646584 0.176248 0.379744 -0.434970
H47   H     H_    0.654773 0.224415 0.403420 0.220762
H48   H     H_    0.683268 0.150166 0.339832 0.186271
N13   N     N_3   0.599463 0.327329 0.768567 -0.416649
H49   H     H_    0.604581 0.381563 0.747454 0.213650
H50   H     H_    0.559240 0.313105 0.806540 0.239535
N14   N     N_3   0.404417 0.684181 0.224658 -0.402755
H51   H     H_    0.403862 0.631063 0.247064 0.241059
H52   H     H_    0.443149 0.701811 0.180983 0.219720
N15   N     N_3   0.400538 0.327326 0.231432 -0.416648
H53   H     H_    0.395420 0.381560 0.252546 0.213646
H54   H     H_    0.440760 0.313102 0.193458 0.239536
N16   N     N_3   0.595582 0.684185 0.775344 -0.402755
H55   H     H_    0.596134 0.631068 0.752939 0.241065
H56   H     H_    0.556852 0.701819 0.819019 0.219716
N17   N     N_3   0.099463 0.827330 0.768566 -0.416648
H57   H     H_    0.104582 0.881564 0.747453 0.213647
H58   H     H_    0.059241 0.813106 0.806539 0.239535
N18   N     N_3   0.904416 0.184179 0.224659 -0.402748
H59   H     H_    0.903861 0.131061 0.247064 0.241057
H60   H     H_    0.943147 0.201811 0.180986 0.219735
N19   N     N_3   0.900537 0.827329 0.231434 -0.416649
H61   H     H_    0.895418 0.881562 0.252546 0.213648
H62   H     H_    0.940760 0.813105 0.193461 0.239535
N20   N     N_3   0.095583 0.184183 0.775343 -0.402753
H63   H     H_    0.096136 0.131065 0.752938 0.241062
H64   H     H_    0.056852 0.201816 0.819017 0.219720
C197  C     C_2   0.550530 0.303805 0.102522 0.423175
H65   H     H_    0.529141 0.324344 0.170366 0.027724
O57   O     O_2   0.525163 0.273253 0.070054 -0.558582
C198  C     C_2   0.447089 0.689375 0.896168 0.430964
H66   H     H_    0.469772 0.714279 0.926177 0.008579
O58   O     O_2   0.471319 0.661485 0.822315 -0.599255
C199  C     C_2   0.449470 0.303806 0.897478 0.423166
H67   H     H_    0.470858 0.324345 0.829633 0.027736
O59   O     O_2   0.474836 0.273254 0.929945 -0.558581
C200  C     C_2   0.552912 0.689373 0.103833 0.430954
H68   H     H_    0.530230 0.714287 0.073829 0.008583
O60   O     O_2   0.528682 0.661476 0.177682 -0.599251
C201  C     C_2   0.050529 0.803805 0.102522 0.423172
H69   H     H_    0.029141 0.824344 0.170367 0.027728
O61   O     O_2   0.025162 0.773254 0.070054 -0.558580
C202  C     C_2   0.947090 0.189375 0.896168 0.430964
H70   H     H_    0.969772 0.214279 0.926177 0.008579
O62   O     O_2   0.971319 0.161484 0.822314 -0.599256
C203  C     C_2   0.949471 0.803806 0.897478 0.423172
H71   H     H_    0.970859 0.824346 0.829634 0.027728
O63   O     O_2   0.974838 0.773254 0.929945 -0.558580
C204  C     C_2   0.052907 0.189377 0.103831 0.430995
H72   H     H_    0.030224 0.214257 0.073809 0.008583
O64   O     O_2   0.028678 0.161513 0.177700 -0.599284
N21   N     N_3   0.614169 0.295945 0.192716 -0.442787
H73   H     H_    0.594001 0.345127 0.218104 0.195499
H74   H     H_    0.586246 0.253307 0.214074 0.204983
N22   N     N_3   0.381336 0.702560 0.807881 -0.429092
H75   H     H_    0.410113 0.744141 0.786365 0.229596
H76   H     H_    0.399591 0.652850 0.780005 0.253377
N23   N     N_3   0.385830 0.295946 0.807284 -0.442718
H77   H     H_    0.405998 0.345127 0.781895 0.195563
H78   H     H_    0.413753 0.253307 0.785926 0.205008
N24   N     N_3   0.618669 0.702535 0.192117 -0.429090
H79   H     H_    0.589893 0.744118 0.213643 0.229607
H80   H     H_    0.600412 0.652823 0.219983 0.253375
N25   N     N_3   0.114168 0.795943 0.192716 -0.442756
H81   H     H_    0.094001 0.845125 0.218104 0.195528
H82   H     H_    0.086246 0.753305 0.214074 0.204994
N26   N     N_3   0.881336 0.202561 0.807881 -0.429089
H83   H     H_    0.910113 0.244141 0.786365 0.229597
H84   H     H_    0.899591 0.152850 0.780005 0.253378
N27   N     N_3   0.885832 0.795943 0.807284 -0.442754
H85   H     H_    0.905999 0.845126 0.781896 0.195529
H86   H     H_    0.913756 0.753306 0.785926 0.204994
N28   N     N_3   0.118661 0.202577 0.192120 -0.429084
H87   H     H_    0.089886 0.244160 0.213630 0.229613
H88   H     H_    0.100404 0.152869 0.220004 0.253389

loop_
_geom_bond_atom_site_label_1
_geom_bond_atom_site_label_2
_ccdc_geom_bond_type
N12   H48   S    
O7    Zn7   S    
C85   C182  S    
C9    C169  A    
C34   C42   A    
N17   H57   S    
C181  C187  A    
N5    H33   S    
C27   C99   A    
C133  O33   A    
C170  C178  A    
C4    O28   A    
C12   C174  A    
C42   C109  A    
O31   Zn4   S    
C24   C96   A    
C191  H19   S    
O16   Zn3   S    
C62   C70   A    
C192  H20   S    
C64   N16   S    
O39   Zn10  S    
C147  C155  A    
C130  H14   S    
C91   O23   A    
C143  C151  A    
C90   C177  S    
O37   Zn9   S    
C11   C167  A    
C82   C98   A    
O22   Zn6   S    
C139  O45   A    
C115  N27   S    
C122  H6    S    
C81   C121  A    
C73   C81   A    
C161  C163  A    
C4    O4    A    
C162  C164  A    
O18   Zn2   S    
N8    H40   S    
C158  C168  A    
C84   C100  A    
C185  N1    S    
N18   H59   S    
C57   C65   A    
C37   C114  A    
C27   C35   A    
C10   C171  A    
C21   C29   A    
C17   N9    S    
N10   H43   S    
C140  O40   A    
C87   O19   A    
C63   N15   S    
C24   C32   A    
O5    Zn5   S    
C199  H67   S    
C146  C154  A    
C198  H66   S    
N14   H52   S    
C63   C71   A    
C188  N4    S    
C136  O36   A    
C36   C44   A    
O6    Zn6   S    
N4    H31   S    
O20   Zn4   S    
C175  C183  A    
C108  C204  S    
C176  C184  A    
C48   C96   A    
C90   O22   A    
C112  N24   S    
C148  C162  A    
N2    H28   S    
C102  C198  S    
C183  C188  A    
C196  O56   D    
C108  C116  A    
C21   C93   A    
C78   C94   A    
C23   C95   A    
O13   Zn2   S    
O32   Zn3   S    
C152  C193  S    
C49   C97   A    
C21   C42   A    
C40   C115  A    
C89   O21   A    
C51   C107  A    
C101  C197  S    
C24   C43   A    
C82   C122  A    
C161  C165  A    
C17   C175  A    
N25   H82   S    
C18   C176  A    
N11   H46   S    
C197  H65   S    
C29   C125  A    
O9    Zn6   S    
C69   C77   A    
C31   C127  A    
C186  N2    S    
C174  C182  A    
C71   C79   A    
C204  H72   S    
N3    H30   S    
C179  C186  A    
C30   C38   A    
C11   C176  A    
C17   C144  A    
C103  C111  A    
C18   C143  A    
C78   C118  A    
C138  O48   A    
C149  C151  A    
N9    H42   S    
C66   C74   A    
C8    C76   S    
C49   C57   A    
C202  H70   S    
C124  C132  A    
C61   N13   S    
N13   H50   S    
O46   Zn10  S    
C52   C60   A    
C59   C67   A    
C53   C61   A    
C141  C159  A    
C20   C174  A    
N26   H83   S    
O28   Zn7   S    
C55   C63   A    
C86   C181  S    
C56   C64   A    
C2    O2    A    
C139  O39   A    
C67   N19   S    
C150  C195  S    
C129  H13   S    
O25   Zn6   S    
C126  H10   S    
N6    H36   S    
C6    O30   A    
C45   C53   A    
C193  H21   S    
C22   C94   A    
C171  C179  A    
C114  N26   S    
C169  C177  A    
N22   H76   S    
C107  C203  S    
O17   Zn1   S    
C50   C98   A    
C103  C199  S    
N26   H84   S    
C28   C36   A    
C140  O46   A    
C194  H22   S    
N28   H87   S    
C3    O27   A    
C104  C112  A    
N16   H55   S    
C145  C163  A    
C146  C164  A    
C14   C147  A    
C52   C100  A    
C198  O58   D    
C16   C145  A    
C178  C186  A    
C151  C194  S    
C86   O10   A    
C25   C38   A    
N20   H64   S    
C54   C139  S    
C46   C94   A    
O26   Zn5   S    
C27   C40   A    
C10   C166  A    
C91   C180  S    
C124  H8    S    
N1    H25   S    
O38   Zn10  S    
C136  O42   A    
C182  C188  A    
C89   C178  S    
C200  O60   D    
C189  O49   D    
C92   O24   A    
C117  H1    S    
O29   Zn2   S    
C25   C97   A    
C199  O59   D    
N19   H62   S    
C67   C75   A    
C110  N22   S    
O41   Zn11  S    
C187  N3    S    
N27   H86   S    
C22   C30   A    
C20   C141  A    
C19   N11   S    
N14   H51   S    
C127  H11   S    
C15   C146  A    
C7    O7    A    
O24   Zn8   S    
O1    Zn1   S    
C58   C135  S    
C68   C76   A    
C5    O5    A    
C59   C134  S    
C104  C200  S    
C184  C187  A    
C32   C128  A    
C137  O37   A    
C72   C80   A    
C56   C137  S    
C48   C56   A    
C192  O52   D    
C5    C73   S    
C90   O14   A    
C2    O26   A    
C13   C171  A    
C195  H23   S    
O12   Zn7   S    
C8    O8    A    
C117  C125  A    
C25   C33   A    
C119  C127  A    
N24   H79   S    
O33   Zn11  S    
C134  O34   A    
C149  C196  S    
C135  O41   A    
O34   Zn12  S    
C119  H3    S    
C76   C84   A    
C80   C120  A    
C62   N14   S    
N23   H77   S    
C201  O61   D    
C106  C202  S    
C164  C165  A    
N18   H60   S    
N21   H74   S    
C22   C41   A    
C195  O55   D    
C101  C109  A    
C177  C185  A    
N10   H44   S    
C134  O44   A    
C162  C166  A    
C65   N17   S    
C79   C119  A    
O10   Zn5   S    
C153  C155  A    
C131  H15   S    
C154  C156  A    
C155  C190  S    
C172  C180  A    
N12   H47   S    
C173  C181  A    
C157  C159  A    
C83   C99   A    
C158  C160  A    
C123  H7    S    
N4    H32   S    
C74   C82   A    
C121  H5    S    
N17   H58   S    
C6    C74   S    
C7    O31   A    
N5    H34   S    
C16   N8    S    
C132  H16   S    
C47   C103  A    
C66   N18   S    
N7    H37   S    
C50   C58   A    
C113  N25   S    
C163  C166  A    
C147  C161  A    
N3    H29   S    
C38   C113  A    
C49   C105  A    
C54   C62   A    
C28   C39   A    
O8    Zn8   S    
O19   Zn3   S    
C1    C69   S    
C23   C44   A    
C3    C71   S    
N15   H53   S    
C128  H12   S    
C79   C95   A    
C92   C179  S    
C68   N20   S    
C46   C54   A    
C203  O63   D    
N28   H88   S    
C133  O43   A    
C8    O32   A    
C20   N12   S    
C19   C142  A    
C157  C167  A    
C102  C110  A    
C154  C191  S    
C35   C131  A    
C4    C72   S    
N25   H81   S    
C33   C129  A    
N8    H39   S    
C36   C132  A    
C123  C131  A    
C121  C129  A    
C204  O64   D    
C120  C128  A    
C26   C37   A    
C15   N7    S    
C10   C170  A    
O27   Zn8   S    
C33   C41   A    
C142  C150  A    
C9    C165  A    
C118  H2    S    
C75   C83   A    
N9    H41   S    
C77   C93   A    
C202  O62   D    
C18   N10   S    
N13   H49   S    
O42   Zn12  S    
N11   H45   S    
C44   C111  A    
C16   C170  A    
C190  H18   S    
C60   C68   A    
C144  C152  A    
C39   C116  A    
C29   C37   A    
C50   C106  A    
C87   O11   A    
C9    C172  A    
C148  C156  A    
C83   C123  A    
C2    C70   S    
C105  C201  S    
C60   C133  S    
C23   C31   A    
N19   H61   S    
C30   C126  A    
C70   C78   A    
C53   C140  S    
C203  H71   S    
C19   C173  A    
C141  C149  A    
N27   H85   S    
C46   C102  A    
C55   C138  S    
C81   C97   A    
C106  C114  A    
N2    H27   S    
C194  O54   D    
C77   C117  A    
C120  H4    S    
C196  H24   S    
N16   H56   S    
N23   H78   S    
C48   C104  A    
C65   C73   A    
C159  C168  A    
C15   C169  A    
C160  C167  A    
C92   O16   A    
O3    Zn3   S    
C58   C66   A    
C156  C189  S    
C31   C39   A    
C105  C113  A    
C57   C136  S    
C153  C192  S    
C80   C96   A    
C1    O1    A    
C189  H17   S    
C116  N28   S    
O43   Zn12  S    
C138  O38   A    
O23   Zn7   S    
O44   Zn11  S    
C145  C153  A    
C28   C100  A    
C32   C40   A    
C52   C108  A    
C125  H9    S    
C197  O57   D    
C5    O29   A    
C13   N5    S    
C137  O47   A    
C26   C34   A    
C143  C157  A    
C51   C99   A    
C11   C173  A    
O15   Zn4   S    
C14   C172  A    
C87   C184  S    
C88   C183  S    
C7    C75   S    
C86   O18   A    
C89   O13   A    
N7    H38   S    
O11   Zn8   S    
C85   O9    A    
C88   O20   A    
C109  N21   S    
N15   H54   S    
O30   Zn1   S    
C107  C115  A    
C45   C101  A    
O48   Zn9   S    
C26   C98   A    
C12   C175  A    
N6    H35   S    
C45   C93   A    
C41   C110  A    
C193  O53   D    
C150  C152  A    
O35   Zn12  S    
C51   C59   A    
C43   C112  A    
O36   Zn11  S    
C144  C158  A    
O2    Zn2   S    
C35   C43   A    
N22   H75   S    
C47   C55   A    
C61   C69   A    
C191  O51   D    
N24   H80   S    
C88   O12   A    
C190  O50   D    
C142  C160  A    
C12   C168  A    
C6    O6    A    
C84   C124  A    
C118  C126  A    
C201  H69   S    
O21   Zn5   S    
N21   H73   S    
N20   H63   S    
C85   O17   A    
C3    O3    A    
N1    H26   S    
O14   Zn1   S    
C135  O35   A    
C64   C72   A    
C91   O15   A    
C200  H68   S    
C180  C185  A    
O47   Zn10  S    
C111  N23   S    
C1    O25   A    
C34   C130  A    
C47   C95   A    
C14   N6    S    
O40   Zn9   S    
O4    Zn4   S    
C13   C148  A    
O45   Zn9   S    
C122  C130  A    
