data_mof_unit_62289.cif
_audit_creation_date              2013-03-05T16:24:11-0500
_audit_creation_method            fapswitch 2.2
_symmetry_space_group_name_H-M    P1
_symmetry_Int_Tables_number       1
_space_group_crystal_system       triclinic
_cell_length_a                    30.580063
_cell_length_b                    30.551549
_cell_length_c                    24.559375
_cell_angle_alpha                 89.87254
_cell_angle_beta                  127.945201
_cell_angle_gamma                 90.025185
_cell_volume                      18094.3876994

loop_
_atom_site_label
_atom_site_type_symbol
_atom_site_description
_atom_site_fract_x
_atom_site_fract_y
_atom_site_fract_z
_atom_type_partial_charge
O1    O     O_R   0.821670 0.769930 0.500000 -0.627927
O2    O     O_R   0.178330 0.769930 0.500000 -0.628243
O3    O     O_R   0.321670 0.269930 0.500000 -0.627938
O4    O     O_R   0.678330 0.269930 0.500000 -0.628178
O5    O     O_R   0.769920 0.821660 0.500020 -0.622600
O6    O     O_R   0.230080 0.821660 0.499980 -0.615502
O7    O     O_R   0.269920 0.321660 0.500020 -0.622537
O8    O     O_R   0.730080 0.321660 0.499980 -0.615516
C1    C     C_R   0.809613 0.810106 0.499315 0.870472
C2    C     C_R   0.190389 0.810108 0.500698 0.876764
C3    C     C_R   0.309609 0.310109 0.499304 0.870348
C4    C     C_R   0.690390 0.310107 0.500699 0.876730
O9    O     O_R   0.724940 0.724130 0.398140 -0.602707
O10   O     O_R   0.275060 0.724130 0.601860 -0.626440
O11   O     O_R   0.224940 0.224130 0.398140 -0.602647
O12   O     O_R   0.775060 0.224130 0.601860 -0.626677
O13   O     O_R   0.673180 0.775850 0.398150 -0.626340
O14   O     O_R   0.326820 0.775850 0.601850 -0.625861
O15   O     O_R   0.173180 0.275850 0.398150 -0.626336
O16   O     O_R   0.826820 0.275850 0.601850 -0.626027
C5    C     C_R   0.682778 0.749985 0.365316 0.899833
C6    C     C_R   0.317228 0.749866 0.634653 0.849238
C7    C     C_R   0.182770 0.249976 0.365316 0.899239
C8    C     C_R   0.817241 0.249851 0.634649 0.846357
Zn1   Zn    Zn3+2 0.784540 0.715450 0.500000 1.009969
Zn2   Zn    Zn3+2 0.215460 0.715450 0.500000 0.958400
Zn3   Zn    Zn3+2 0.284540 0.215450 0.500000 1.010250
Zn4   Zn    Zn3+2 0.715460 0.215450 0.500000 0.959660
Zn5   Zn    Zn3+2 0.715430 0.784520 0.500010 0.978375
Zn6   Zn    Zn3+2 0.284570 0.784520 0.499990 1.026666
Zn7   Zn    Zn3+2 0.215430 0.284520 0.500010 0.978746
Zn8   Zn    Zn3+2 0.784570 0.284520 0.499990 1.028832
O17   O     O_R   0.730060 0.678320 0.499990 -0.584110
O18   O     O_R   0.269940 0.678320 0.500010 -0.628063
O19   O     O_R   0.230060 0.178320 0.499990 -0.583805
O20   O     O_R   0.769940 0.178320 0.500010 -0.625317
O21   O     O_R   0.678300 0.730040 0.500010 -0.614634
O22   O     O_R   0.321700 0.730040 0.499990 -0.587920
O23   O     O_R   0.178300 0.230040 0.500010 -0.614542
O24   O     O_R   0.821700 0.230040 0.499990 -0.585608
O25   O     O_R   0.826790 0.724120 0.601860 -0.625788
O26   O     O_R   0.173210 0.724120 0.398140 -0.629615
O27   O     O_R   0.326790 0.224120 0.601860 -0.625762
O28   O     O_R   0.673210 0.224120 0.398140 -0.629827
O29   O     O_R   0.775040 0.775850 0.601880 -0.624473
O30   O     O_R   0.224960 0.775850 0.398120 -0.599757
O31   O     O_R   0.275040 0.275850 0.601880 -0.624372
O32   O     O_R   0.724960 0.275850 0.398120 -0.597955
C9    C     C_R   0.689004 0.689953 0.498170 0.965763
C10   C     C_R   0.308881 0.690008 0.497586 0.977749
C11   C     C_R   0.188988 0.189950 0.498139 0.965464
C12   C     C_R   0.808996 0.190061 0.497999 0.973534
C13   C     C_R   0.817232 0.750054 0.634651 0.848429
C14   C     C_R   0.182694 0.750204 0.365312 0.906377
C15   C     C_R   0.317230 0.250053 0.634650 0.848461
C16   C     C_R   0.682695 0.250202 0.365310 0.904357
C17   C     C_R   0.609301 0.785336 0.253475 -0.192315
C18   C     C_R   0.388037 0.786229 0.746246 -0.188589
C19   C     C_R   0.109224 0.285272 0.253450 -0.192110
C20   C     C_R   0.887897 0.286251 0.746251 -0.188103
H1    H     H_    0.609243 0.813260 0.280530 0.159542
H2    H     H_    0.386265 0.814963 0.719024 0.156885
H3    H     H_    0.109127 0.313189 0.280485 0.159583
H4    H     H_    0.885951 0.315062 0.719041 0.156786
C21   C     C_R   0.573570 0.785327 0.181664 -0.145957
C22   C     C_R   0.423492 0.786244 0.818051 -0.155738
C23   C     C_R   0.073491 0.285241 0.181638 -0.145929
C24   C     C_R   0.923369 0.286241 0.818054 -0.155940
H5    H     H_    0.546299 0.813097 0.154648 0.153472
H6    H     H_    0.448806 0.814861 0.844951 0.151670
H7    H     H_    0.046183 0.312990 0.154605 0.153512
H8    H     H_    0.948524 0.314922 0.844966 0.151699
C25   C     C_R   0.572544 0.749496 0.145292 0.077043
C26   C     C_R   0.426762 0.749393 0.854572 0.084418
C27   C     C_R   0.072521 0.249421 0.145287 0.077038
C28   C     C_R   0.926848 0.249295 0.854556 0.084447
C29   C     C_R   0.608102 0.713861 0.181624 -0.152509
C30   C     C_R   0.393751 0.712666 0.818379 -0.154146
C31   C     C_R   0.108127 0.213815 0.181646 -0.152614
C32   C     C_R   0.894044 0.212485 0.818338 -0.154099
H9    H     H_    0.608212 0.685982 0.154544 0.158323
H10   H     H_    0.395451 0.683955 0.845577 0.152948
H11   H     H_    0.108282 0.185943 0.154588 0.158280
H12   H     H_    0.895912 0.183695 0.845518 0.153096
C33   C     C_R   0.644555 0.714222 0.253450 -0.117828
C34   C     C_R   0.357542 0.712959 0.746526 -0.190324
C35   C     C_R   0.144577 0.214196 0.253471 -0.118300
C36   C     C_R   0.857817 0.212799 0.746485 -0.193458
H13   H     H_    0.671828 0.686458 0.280499 0.188868
H14   H     H_    0.332290 0.684335 0.719486 0.154334
H15   H     H_    0.171888 0.186454 0.280538 0.188912
H16   H     H_    0.832727 0.184112 0.719418 0.154443
C37   C     C_R   0.645123 0.749846 0.289801 -0.038256
C38   C     C_R   0.354702 0.749670 0.710099 -0.028246
C39   C     C_R   0.145101 0.249814 0.289800 -0.038397
C40   C     C_R   0.854750 0.249618 0.710087 -0.027893
N1    N     N_R   0.518156 0.711127 0.034399 -0.161368
N2    N     N_R   0.483546 0.711095 0.965784 -0.168463
N3    N     N_R   0.018310 0.211044 0.034396 -0.161573
N4    N     N_R   0.983732 0.211004 0.965779 -0.168787
C41   C     C_R   0.464509 0.749338 0.930139 0.284360
C42   C     C_R   0.534589 0.749392 0.069729 0.291263
C43   C     C_R   0.964572 0.249240 0.930127 0.284282
C44   C     C_R   0.034588 0.249307 0.069720 0.291328
N5    N     N_R   0.481089 0.787592 0.965480 -0.172344
N6    N     N_R   0.515359 0.787613 0.034074 -0.173821
N7    N     N_R   0.980995 0.287492 0.965463 -0.172256
N8    N     N_R   0.015234 0.287519 0.034057 -0.173778
C45   C     C_R   0.899261 0.844430 0.552530 0.106802
C46   C     C_R   0.100739 0.844533 0.447629 0.120114
C47   C     C_R   0.399311 0.344291 0.552317 0.107073
C48   C     C_R   0.600779 0.344627 0.447504 0.119990
C49   C     C_R   0.842278 0.843739 0.500345 -0.081933
C50   C     C_R   0.157738 0.843731 0.499718 -0.093318
C51   C     C_R   0.342285 0.343751 0.500359 -0.082183
C52   C     C_R   0.657749 0.343730 0.499731 -0.093084
C53   C     C_R   0.816128 0.878975 0.454125 -0.212005
C54   C     C_R   0.183880 0.878809 0.545984 -0.204807
C55   C     C_R   0.316140 0.379132 0.454431 -0.210744
C56   C     C_R   0.683897 0.378733 0.546148 -0.204715
H17   H     H_    0.771386 0.880257 0.416046 0.156416
H18   H     H_    0.228626 0.880023 0.584002 0.157027
H19   H     H_    0.271385 0.380531 0.416555 0.156402
H20   H     H_    0.728635 0.379880 0.584279 0.156902
C57   C     C_R   0.848273 0.911234 0.454211 -0.214303
C58   C     C_R   0.151726 0.910988 0.546016 -0.155051
C59   C     C_R   0.348286 0.411393 0.454521 -0.216530
C60   C     C_R   0.651745 0.410921 0.546170 -0.156073
H21   H     H_    0.828245 0.937303 0.416236 0.166373
H22   H     H_    0.171756 0.936955 0.583964 0.166912
H23   H     H_    0.328252 0.437584 0.416763 0.164971
H24   H     H_    0.671771 0.436825 0.584229 0.166801
C61   C     C_R   0.906190 0.908620 0.501998 -0.091741
C62   C     C_R   0.093804 0.908466 0.498299 -0.079645
C63   C     C_R   0.406205 0.408628 0.502020 -0.090520
C64   C     C_R   0.593824 0.408481 0.498299 -0.079841
C65   C     C_R   0.930931 0.876913 0.553806 0.148547
C66   C     C_R   0.069069 0.876944 0.446460 0.173238
C67   C     C_R   0.430988 0.376773 0.553605 0.149240
C68   C     C_R   0.569116 0.377044 0.446333 0.173813
C69   C     C_3   0.977104 0.846025 0.576142 -0.495787
C70   C     C_3   0.022941 0.846051 0.424145 -0.513806
C71   C     C_3   0.476994 0.345827 0.575470 -0.496542
C72   C     C_3   0.522879 0.346194 0.423722 -0.513383
C73   C     C_3   0.941966 0.810107 0.574482 -0.470716
C74   C     C_3   0.058079 0.810211 0.425686 -0.477352
C75   C     C_3   0.441848 0.309910 0.573795 -0.470445
C76   C     C_3   0.558011 0.310348 0.425264 -0.477710
H25   H     H_    0.983553 0.841968 0.536551 0.190820
H26   H     H_    0.016550 0.841781 0.463779 0.188904
H27   H     H_    0.483224 0.341887 0.535665 0.190862
H28   H     H_    0.516348 0.341857 0.463218 0.188857
H29   H     H_    0.015215 0.853354 0.629053 0.213010
H30   H     H_    0.984795 0.853548 0.371268 0.221138
H31   H     H_    0.515239 0.353004 0.628347 0.213093
H32   H     H_    0.484820 0.353785 0.370822 0.221203
H33   H     H_    0.927909 0.785207 0.533793 0.218291
H34   H     H_    0.072194 0.785145 0.466351 0.218075
H35   H     H_    0.427569 0.285129 0.532883 0.218279
H36   H     H_    0.571981 0.285211 0.465792 0.218120
H37   H     H_    0.959826 0.796655 0.626428 0.202551
H38   H     H_    0.040184 0.796973 0.373705 0.206733
H39   H     H_    0.459838 0.296307 0.625699 0.202602
H40   H     H_    0.540200 0.297200 0.373261 0.206844
C77   C     C_R   0.836516 0.765623 0.746672 -0.192006
C78   C     C_R   0.162505 0.767746 0.253099 -0.112529
C79   C     C_R   0.336481 0.265572 0.746662 -0.191952
C80   C     C_R   0.662398 0.267937 0.253082 -0.114776
H41   H     H_    0.794324 0.777015 0.719783 0.155730
H42   H     H_    0.204069 0.780524 0.279857 0.188659
H43   H     H_    0.294274 0.276928 0.719767 0.155765
H44   H     H_    0.703892 0.280864 0.279828 0.189866
C81   C     C_R   0.872319 0.765717 0.818503 -0.154901
C82   C     C_R   0.126699 0.767832 0.181260 -0.148882
C83   C     C_R   0.372278 0.265666 0.818493 -0.154890
C84   C     C_R   0.626586 0.268029 0.181244 -0.149404
H45   H     H_    0.857238 0.777536 0.845780 0.151731
H46   H     H_    0.141158 0.780976 0.153885 0.159845
H47   H     H_    0.357178 0.277448 0.845767 0.151742
H48   H     H_    0.640975 0.281311 0.153864 0.159924
C85   C     C_R   0.927220 0.751271 0.854546 0.084344
C86   C     C_R   0.072574 0.751639 0.145328 0.076798
C87   C     C_R   0.427197 0.251269 0.854542 0.084344
C88   C     C_R   0.572539 0.251665 0.145318 0.077062
C89   C     C_R   0.945710 0.736360 0.817852 -0.155021
C90   C     C_R   0.054845 0.735073 0.182134 -0.149075
C91   C     C_R   0.445714 0.236404 0.817856 -0.155045
C92   C     C_R   0.554891 0.234930 0.182127 -0.149311
H49   H     H_    0.987834 0.724851 0.844626 0.152953
H50   H     H_    0.013328 0.722219 0.155454 0.151768
H51   H     H_    0.487854 0.224932 0.844638 0.152876
H52   H     H_    0.513433 0.221947 0.155447 0.151698
C93   C     C_R   0.909623 0.735560 0.746040 -0.189476
C94   C     C_R   0.090958 0.734290 0.253940 -0.197458
C95   C     C_R   0.409633 0.235601 0.746044 -0.189372
C96   C     C_R   0.591014 0.234141 0.253932 -0.197092
H53   H     H_    0.924664 0.723858 0.718653 0.154801
H54   H     H_    0.076487 0.721230 0.281354 0.156388
H55   H     H_    0.424692 0.223935 0.718661 0.154751
H56   H     H_    0.576606 0.220944 0.281345 0.156643
C97   C     C_R   0.854918 0.750374 0.710080 -0.029098
C98   C     C_R   0.144937 0.750735 0.289833 -0.036580
C99   C     C_R   0.354909 0.250371 0.710078 -0.029063
C100  C     C_R   0.644923 0.250746 0.289825 -0.038009
N9    N     N_R   0.020689 0.752522 0.965054 -0.168625
N10   N     N_R   0.979120 0.750862 0.034815 -0.173094
N11   N     N_R   0.520657 0.252645 0.965049 -0.168665
N12   N     N_R   0.479089 0.250763 0.034806 -0.173038
N13   N     N_R   0.054980 0.752784 0.033662 -0.162718
N14   N     N_R   0.944823 0.750913 0.966210 -0.172891
N15   N     N_R   0.554946 0.252916 0.033657 -0.162965
N16   N     N_R   0.444794 0.250807 0.966200 -0.172903
C101  C     C_R   0.034796 0.751852 0.069741 0.291883
C102  C     C_R   0.965008 0.751632 0.930130 0.284649
C103  C     C_R   0.534762 0.251873 0.069733 0.291704
C104  C     C_R   0.464981 0.251636 0.930123 0.284644
C105  C     C_R   0.631452 0.663321 0.527659 0.131932
C106  C     C_R   0.367777 0.626356 0.547346 0.064796
C107  C     C_R   0.131096 0.163427 0.527188 0.132520
C108  C     C_R   0.859425 0.121857 0.537027 0.085969
C109  C     C_R   0.652272 0.657488 0.491357 -0.279911
C110  C     C_R   0.341475 0.657737 0.495442 -0.263960
C111  C     C_R   0.152228 0.157478 0.491266 -0.280855
C112  C     C_R   0.839993 0.157661 0.493715 -0.266923
C113  C     C_R   0.636913 0.620357 0.448935 0.210225
C114  C     C_R   0.355949 0.662763 0.451021 0.201015
C115  C     C_R   0.137169 0.120207 0.449182 0.210439
C116  C     C_R   0.855651 0.162936 0.450365 0.199891
C117  C     C_R   0.607212 0.586626 0.452102 0.194069
C118  C     C_R   0.391549 0.631871 0.454176 0.192597
C119  C     C_R   0.107486 0.086477 0.452394 0.193179
C120  C     C_R   0.890993 0.131482 0.453234 0.190665
C121  C     C_R   0.593765 0.591067 0.497576 -0.272013
C122  C     C_R   0.411433 0.596776 0.501452 -0.268043
C123  C     C_R   0.093764 0.091058 0.497572 -0.272834
C124  C     C_R   0.909933 0.095648 0.499552 -0.264298
C125  C     C_R   0.602807 0.630475 0.530977 0.149995
C126  C     C_R   0.402468 0.596376 0.550473 0.113377
C127  C     C_R   0.102473 0.130582 0.530550 0.154940
C128  C     C_R   0.893837 0.092792 0.540949 0.083965
C129  C     C_3   0.629164 0.639438 0.605021 -0.444856
C130  C     C_3   0.382511 0.560105 0.571034 -0.463255
C131  C     C_3   0.128453 0.139824 0.604405 -0.445431
C132  C     C_3   0.897893 0.065589 0.594291 -0.442875
C133  C     C_3   0.660827 0.676032 0.601270 -0.487713
C134  C     C_3   0.343830 0.593326 0.567269 -0.435356
C135  C     C_3   0.160100 0.176417 0.600614 -0.487744
C136  C     C_3   0.859121 0.099646 0.590835 -0.447635
H57   H     H_    0.598658 0.651439 0.612124 0.216517
H58   H     H_    0.360465 0.534029 0.531216 0.194198
H59   H     H_    0.097693 0.151839 0.611057 0.217732
H60   H     H_    0.878515 0.032859 0.574275 0.197889
H61   H     H_    0.656241 0.612197 0.639902 0.210694
H62   H     H_    0.415400 0.548276 0.624360 0.210441
H63   H     H_    0.155574 0.112719 0.639633 0.210131
H64   H     H_    0.940455 0.065488 0.644246 0.211294
H65   H     H_    0.648513 0.709169 0.606045 0.219165
H66   H     H_    0.299244 0.586638 0.525129 0.215897
H67   H     H_    0.147532 0.209568 0.604928 0.219849
H68   H     H_    0.817570 0.086453 0.569679 0.210697
H69   H     H_    0.706313 0.670144 0.634046 0.195364
H70   H     H_    0.354271 0.600576 0.618396 0.199228
H71   H     H_    0.205625 0.170664 0.633711 0.195168
H72   H     H_    0.879444 0.119650 0.638447 0.196469
O33   O     O_R   0.425360 0.545810 0.442460 -0.588677
O34   O     O_R   0.574640 0.545810 0.557540 -0.644424
O35   O     O_R   0.925360 0.045810 0.442460 -0.592302
O36   O     O_R   0.074640 0.045810 0.557540 -0.644626
O37   O     O_R   0.482840 0.545830 0.557470 -0.627804
O38   O     O_R   0.517160 0.545830 0.442530 -0.555490
O39   O     O_R   0.982840 0.045830 0.557470 -0.630902
O40   O     O_R   0.017160 0.045830 0.442530 -0.556657
C137  C     C_R   0.440699 0.560871 0.500188 0.951079
C138  C     C_R   0.561029 0.558973 0.499657 1.011317
C139  C     C_R   0.940833 0.060857 0.500026 0.961894
C140  C     C_R   0.061032 0.058966 0.499659 1.013389
O41   O     O_R   0.925420 0.954200 0.442500 -0.630949
O42   O     O_R   0.074580 0.954200 0.557500 -0.640340
O43   O     O_R   0.425420 0.454200 0.442500 -0.630947
O44   O     O_R   0.574580 0.454200 0.557500 -0.640328
O45   O     O_R   0.982890 0.954220 0.557510 -0.625724
O46   O     O_R   0.017110 0.954220 0.442490 -0.593956
O47   O     O_R   0.482890 0.454220 0.557510 -0.625279
O48   O     O_R   0.517110 0.454220 0.442490 -0.593847
C141  C     C_R   0.940019 0.939875 0.500366 0.855214
C142  C     C_R   0.059936 0.939773 0.499746 0.901531
C143  C     C_R   0.440017 0.439883 0.500368 0.853403
C144  C     C_R   0.559945 0.439779 0.499745 0.900854
Zn9   Zn    Zn3+2 0.461590 0.500000 0.423210 1.073231
Zn10  Zn    Zn3+2 0.538410 0.500000 0.576790 0.962258
Zn11  Zn    Zn3+2 0.961590 0.000000 0.423210 1.071174
Zn12  Zn    Zn3+2 0.038410 0.000000 0.576790 0.960075
N17   N     N_R   0.653116 0.616137 0.405319 0.248952
O49   O     O_R   0.641914 0.647217 0.362158 -0.393466
O50   O     O_R   0.678611 0.581103 0.408096 -0.322817
N18   N     N_R   0.333253 0.697883 0.401598 0.245823
O51   O     O_R   0.280007 0.704743 0.359921 -0.404364
O52   O     O_R   0.365671 0.722677 0.397370 -0.321141
N19   N     N_R   0.153658 0.115843 0.405886 0.249238
O53   O     O_R   0.142437 0.146757 0.362482 -0.393049
O54   O     O_R   0.179473 0.080855 0.409233 -0.322975
N20   N     N_R   0.836029 0.199592 0.404048 0.248065
O55   O     O_R   0.783297 0.208479 0.361673 -0.401491
O56   O     O_R   0.870715 0.223882 0.403497 -0.320356
N21   N     N_R   0.592657 0.547734 0.411446 0.246909
O57   O     O_R   0.605555 0.509324 0.440518 -0.402192
O58   O     O_R   0.567294 0.550643 0.345395 -0.301211
N22   N     N_R   0.405407 0.635095 0.408017 0.249678
O59   O     O_R   0.456962 0.633387 0.432015 -0.390035
O60   O     O_R   0.366603 0.639649 0.341913 -0.306729
N23   N     N_R   0.093220 0.047456 0.412084 0.246781
O61   O     O_R   0.106107 0.009137 0.441431 -0.402839
O62   O     O_R   0.068155 0.050152 0.346086 -0.301464
N24   N     N_R   0.907200 0.135917 0.409602 0.249603
O63   O     O_R   0.959278 0.133851 0.435874 -0.393656
O64   O     O_R   0.870009 0.142366 0.343566 -0.306916

loop_
_geom_bond_atom_site_label_1
_geom_bond_atom_site_label_2
_geom_bond_distance
_ccdc_geom_bond_type
C61   C65   1.393203 A    
C35   H15   1.083095 S    
O36   Zn12  2.012369 S    
O38   C138  1.271477 A    
C116  C120  1.415450 A    
C64   C68   1.393225 A    
C31   C35   1.391484 A    
C47   C67   1.373219 A    
C63   C67   1.393162 A    
O35   C139  1.270445 A    
C129  C133  1.517975 S    
C105  C133  1.493880 S    
C8    C40   1.461058 S    
C95   C99   1.401891 A    
C109  C113  1.412785 A    
C128  C132  1.489215 S    
C131  H63   1.112242 S    
Zn6   O22   2.015259 S    
C76   H36   1.112178 S    
C107  C127  1.366592 A    
C70   C74   1.518485 S    
C11   C111  1.429245 S    
O43   Zn9   2.011442 S    
N13   C101  1.356252 A    
C85   C102  1.464005 S    
O4    C4    1.278645 A    
C3    C51   1.422298 S    
C69   C73   1.518464 S    
C28   C43   1.463661 S    
C71   H27   1.111776 S    
C108  C136  1.489338 S    
O33   Zn9   2.014508 S    
C123  C140  1.424009 S    
C112  C116  1.419429 A    
C77   H41   1.083265 S    
C78   C82   1.391369 A    
C46   C66   1.373228 A    
C129  H57   1.111691 S    
C34   H14   1.083252 S    
Zn1   O25   2.006313 S    
C88   C103  1.463958 S    
C79   H43   1.083268 S    
Zn3   O19   2.014996 S    
N24   O63   1.301046 A    
Zn4   O28   2.004995 S    
C114  N18   1.437048 S    
Zn5   O29   2.010264 S    
C90   H50   1.083073 S    
O15   C7    1.286459 A    
C73   H33   1.112178 S    
C30   H10   1.083080 S    
O11   Zn3   2.010094 S    
C24   H8    1.083098 S    
C15   C99   1.460967 S    
O9    C5    1.286857 A    
O2    Zn2   2.015257 S    
O10   Zn2   2.011348 S    
C74   H34   1.112178 S    
C26   C41   1.463598 S    
N18   O51   1.300977 A    
O6    Zn6   2.016246 S    
N9    C102  1.356322 A    
C12   C112  1.418934 S    
O19   C11   1.279048 A    
C106  C126  1.367701 A    
C83   C87   1.402904 A    
C84   C88   1.402806 A    
C10   C110  1.426165 S    
C13   C97   1.460993 S    
C45   C73   1.492833 S    
C17   H1    1.083183 S    
C55   H19   1.083697 S    
C120  N24   1.436893 S    
C19   H3    1.083180 S    
C20   H4    1.083253 S    
C20   C24   1.390654 A    
C32   C36   1.391815 A    
N14   C102  1.356200 A    
C22   H6    1.083102 S    
C73   H37   1.111623 S    
C121  C138  1.424098 S    
N11   C104  1.356313 A    
C62   C142  1.426536 S    
C7    C39   1.462628 S    
C118  C122  1.412169 A    
C59   H23   1.083507 S    
O3    C3    1.278959 A    
C88   C92   1.402712 A    
C58   C62   1.401503 A    
C132  H64   1.111484 S    
C25   C29   1.402605 A    
C108  C128  1.334529 A    
C127  C131  1.493578 S    
O17   C9    1.279026 A    
O16   C8    1.285574 A    
C135  H71   1.112473 S    
C136  H72   1.111829 S    
C115  C119  1.406752 A    
C48   C68   1.373215 A    
C67   C71   1.493777 S    
C133  H69   1.112503 S    
C82   C86   1.402839 A    
O38   Zn9   2.020547 S    
N1    N2    1.329099 A    
C23   C27   1.402581 A    
C93   C97   1.401899 A    
C5    C37   1.462603 S    
C122  C126  1.389467 A    
C111  C115  1.412939 A    
C22   C26   1.402620 A    
C120  C124  1.418703 A    
C54   H18   1.083689 S    
C121  C125  1.387084 A    
C19   C23   1.390852 A    
C33   C37   1.402552 A    
N21   O58   1.301161 A    
C35   C39   1.402561 A    
N7    N8    1.328548 A    
C81   H45   1.083061 S    
C46   C50   1.390297 A    
O20   C12   1.276574 A    
O29   C13   1.286306 A    
N11   N15   1.328872 A    
C6    C38   1.461211 S    
N22   O60   1.301176 A    
O7    C3    1.274563 A    
C95   H55   1.083270 S    
O47   Zn10  2.018704 S    
N20   O56   1.301128 A    
C131  H59   1.111664 S    
O22   C10   1.274510 A    
C76   H40   1.111625 S    
C114  C118  1.406683 A    
O41   C141  1.275788 A    
C80   C100  1.402277 A    
O43   C143  1.275788 A    
C72   H32   1.111552 S    
O5    C1    1.274555 A    
N17   O49   1.300722 A    
C57   H21   1.083494 S    
N10   N14   1.328776 A    
C71   H31   1.111553 S    
O8    C4    1.274334 A    
O36   C140  1.274974 A    
O34   Zn10  2.012369 S    
C70   H30   1.111551 S    
O25   C13   1.286186 A    
C49   C53   1.402093 A    
O33   C137  1.275391 A    
C78   H42   1.083172 S    
N12   C103  1.356267 A    
C51   C55   1.402209 A    
N23   O62   1.301174 A    
C96   C100  1.402199 A    
C105  C125  1.366628 A    
C48   C52   1.390256 A    
Zn2   O26   2.004995 S    
C79   C83   1.391234 A    
O16   Zn8   2.004994 S    
O27   C15   1.286184 A    
C80   C84   1.391356 A    
C124  C128  1.377864 A    
C9    C109  1.429035 S    
O14   C6    1.285609 A    
C90   C94   1.390987 A    
C28   C32   1.402947 A    
C2    C50   1.422653 S    
C43   N7    1.356128 A    
C89   H49   1.083067 S    
O41   Zn11  2.011442 S    
C24   C28   1.402648 A    
O42   Zn12  2.013584 S    
C125  C129  1.493654 S    
C92   H52   1.083076 S    
C1    C49   1.422118 S    
O10   C6    1.286247 A    
O3    Zn3   2.014433 S    
C72   H28   1.111774 S    
C75   H39   1.111624 S    
C69   H29   1.111553 S    
C94   H54   1.083224 S    
C27   C31   1.402608 A    
C117  C121  1.414327 A    
C84   H48   1.083059 S    
C129  H61   1.112290 S    
C119  C123  1.414231 A    
C46   C74   1.492807 S    
C53   C57   1.390770 A    
C14   C98   1.461978 S    
C4    C52   1.422575 S    
C64   C144  1.426627 S    
C18   H2    1.083246 S    
C36   C40   1.402059 A    
O13   Zn5   2.006313 S    
O23   C11   1.275985 A    
C32   H12   1.083075 S    
O15   Zn7   2.006313 S    
C74   H38   1.111626 S    
C130  C134  1.517909 S    
C122  C137  1.428441 S    
C59   C63   1.401325 A    
C60   C64   1.401541 A    
O40   Zn11  2.020547 S    
C52   C56   1.402214 A    
C58   H22   1.083490 S    
N24   O64   1.301128 A    
C94   C98   1.402153 A    
C86   C90   1.402736 A    
C77   C97   1.401892 A    
C136  H68   1.111510 S    
C86   C101  1.463997 S    
C79   C99   1.401895 A    
C133  H65   1.111601 S    
C82   H46   1.083054 S    
N1    C42   1.356412 A    
C134  H70   1.111672 S    
C96   H56   1.083219 S    
N18   O52   1.301135 A    
N3    C44   1.356432 A    
C81   C85   1.402923 A    
Zn7   O31   2.010264 S    
C105  C109  1.389542 A    
Zn8   O32   2.011519 S    
Zn6   O30   2.011519 S    
O45   C141  1.272753 A    
O47   C143  1.272662 A    
C130  H58   1.112522 S    
O48   C144  1.272896 A    
O1    C1    1.278873 A    
C66   C70   1.493769 S    
C33   H13   1.083095 S    
O44   Zn10  2.013584 S    
N4    C43   1.356352 A    
C113  C117  1.406652 A    
C132  C136  1.540317 S    
O39   C139  1.272835 A    
N19   O53   1.300768 A    
O44   C144  1.276018 A    
C47   C75   1.492837 S    
O21   C9    1.275891 A    
O28   C16   1.285976 A    
C29   H9    1.083089 S    
O40   C140  1.271464 A    
O30   C14   1.286410 A    
C113  N17   1.436289 S    
C119  N23   1.437129 S    
C20   C40   1.401822 A    
N10   C101  1.356266 A    
C25   C42   1.463606 S    
O48   Zn9   2.018277 S    
C131  C135  1.518071 S    
C116  N20   1.436543 S    
C27   C44   1.463676 S    
C107  C135  1.493960 S    
C115  N19   1.436224 S    
O39   Zn12  2.020120 S    
C44   N8    1.356053 A    
C87   C104  1.463963 S    
C65   C69   1.493790 S    
O42   C142  1.275990 A    
C123  C127  1.387022 A    
C68   C72   1.493775 S    
C17   C21   1.390836 A    
O6    C2    1.274364 A    
C56   C60   1.391120 A    
N2    C41   1.356345 A    
N5    N6    1.328563 A    
O37   C137  1.272417 A    
C124  C139  1.417791 S    
C70   H26   1.111800 S    
O35   Zn11  2.014508 S    
O26   C14   1.285945 A    
C31   H11   1.083087 S    
O34   C138  1.275038 A    
C21   H5    1.083104 S    
C23   H7    1.083103 S    
O13   C5    1.286432 A    
O45   Zn12  2.018704 S    
C107  C111  1.389571 A    
Zn3   O27   2.006313 S    
O46   Zn11  2.018277 S    
C80   H44   1.083142 S    
Zn4   O20   2.015824 S    
N21   O57   1.301039 A    
C26   C30   1.402899 A    
Zn5   O21   2.014433 S    
O12   Zn4   2.011348 S    
N15   C103  1.356247 A    
N23   O61   1.301024 A    
C72   C76   1.518493 S    
C75   H35   1.112177 S    
C69   H25   1.111799 S    
C71   C75   1.518460 S    
C106  C134  1.493907 S    
C87   C91   1.402913 A    
C110  C114  1.415168 A    
C77   C81   1.391238 A    
C21   C25   1.402550 A    
C45   C65   1.373232 A    
C53   H17   1.083702 S    
C34   C38   1.402095 A    
Zn2   O18   2.015824 S    
C36   H16   1.083271 S    
O14   Zn6   2.004994 S    
C91   H51   1.083068 S    
N12   N16   1.328781 A    
C30   C34   1.391789 A    
O11   C7    1.286842 A    
O12   C8    1.286209 A    
C17   C37   1.402281 A    
O1    Zn1   2.014433 S    
O9    Zn1   2.010094 S    
C19   C39   1.402271 A    
C60   H24   1.083486 S    
O4    Zn4   2.015257 S    
C18   C22   1.390685 A    
C106  C110  1.387561 A    
O5    Zn5   2.015424 S    
C41   N5    1.356122 A    
O18   C10   1.279010 A    
O7    Zn7   2.015424 S    
O8    Zn8   2.016246 S    
N16   C104  1.356204 A    
C85   C89   1.402915 A    
C83   H47   1.083060 S    
O24   C12   1.273438 A    
C48   C76   1.492788 S    
C134  H66   1.112274 S    
C118  N22   1.436899 S    
N3    N4    1.329112 A    
N9    N13   1.328877 A    
N19   O54   1.301225 A    
C50   C54   1.402238 A    
O46   C142  1.272880 A    
C130  H62   1.111589 S    
C63   C143  1.425861 S    
O2    C2    1.278655 A    
C108  C112  1.378096 A    
N22   O59   1.301082 A    
O31   C15   1.286292 A    
C57   C61   1.401409 A    
O32   C16   1.286435 A    
N20   O55   1.300910 A    
C132  H60   1.111811 S    
C91   C95   1.391218 A    
C89   C93   1.391215 A    
C62   C66   1.393189 A    
C135  H67   1.111600 S    
C16   C100  1.462084 S    
C45   C49   1.390320 A    
C126  C130  1.493751 S    
C61   C141  1.426024 S    
C18   C38   1.401889 A    
O37   Zn10  2.020120 S    
N17   O50   1.301197 A    
C93   H53   1.083268 S    
Zn7   O23   2.014433 S    
C42   N6    1.356064 A    
Zn8   O24   2.015259 S    
C78   C98   1.402244 A    
C117  N21   1.437092 S    
C29   C33   1.391489 A    
C92   C96   1.390995 A    
Zn1   O17   2.014996 S    
C47   C51   1.390347 A    
C54   C58   1.391103 A    
C56   H20   1.083691 S    
C55   C59   1.390799 A    
