data_mof_unit_65492.cif
_audit_creation_date              2013-03-05T16:34:41-0500
_audit_creation_method            fapswitch 2.2
_symmetry_space_group_name_H-M    P1
_symmetry_Int_Tables_number       1
_space_group_crystal_system       triclinic
_cell_length_a                    35.489067
_cell_length_b                    35.505367
_cell_length_c                    23.539387
_cell_angle_alpha                 89.903467
_cell_angle_beta                  89.943247
_cell_angle_gamma                 90.037496
_cell_volume                      29660.7968348

loop_
_atom_site_label
_atom_site_type_symbol
_atom_site_description
_atom_site_fract_x
_atom_site_fract_y
_atom_site_fract_z
_atom_type_partial_charge
O1    O     O_R   0.031300 0.444560 0.499980 -0.594349
O2    O     O_R   0.444560 0.968700 0.499980 -0.591637
O3    O     O_R   0.968700 0.555440 0.499980 -0.591344
O4    O     O_R   0.555440 0.031300 0.499980 -0.592030
O5    O     O_R   0.968700 0.444560 0.500020 -0.584617
O6    O     O_R   0.555440 0.968700 0.500020 -0.585052
O7    O     O_R   0.031300 0.555440 0.500020 -0.592028
O8    O     O_R   0.444560 0.031300 0.500020 -0.585396
O9    O     O_R   0.531300 0.944560 0.999980 -0.584959
O10   O     O_R   0.944560 0.468700 0.999980 -0.593189
O11   O     O_R   0.468700 0.055440 0.999980 -0.585346
O12   O     O_R   0.055440 0.531300 0.999980 -0.592108
O13   O     O_R   0.468700 0.944560 0.000020 -0.592029
O14   O     O_R   0.055440 0.468700 0.000020 -0.585167
O15   O     O_R   0.531300 0.055440 0.000020 -0.592662
O16   O     O_R   0.944560 0.531300 0.000020 -0.584364
C1    C     C_R   0.000004 0.426683 0.500312 0.994616
C2    C     C_R   0.426654 0.999989 0.500051 0.995146
C3    C     C_R   0.000016 0.573335 0.499879 1.009745
C4    C     C_R   0.573339 0.000009 0.500047 0.995778
C5    C     C_R   0.499981 0.926644 0.999778 0.995548
C6    C     C_R   0.926663 0.499972 0.000392 0.996025
C7    C     C_R   0.500020 0.073324 0.999762 0.996491
C8    C     C_R   0.073345 0.500012 0.000058 0.995382
O17   O     O_R   0.031300 0.500000 0.582760 -0.597319
O18   O     O_R   0.500000 0.968700 0.582760 -0.596896
O19   O     O_R   0.968700 0.500000 0.582760 -0.597069
O20   O     O_R   0.500000 0.031300 0.582760 -0.597501
O21   O     O_R   0.968700 0.500000 0.417240 -0.600500
O22   O     O_R   0.500000 0.968700 0.417240 -0.597751
O23   O     O_R   0.031300 0.500000 0.417240 -0.596403
O24   O     O_R   0.500000 0.031300 0.417240 -0.598638
O25   O     O_R   0.531300 0.000000 0.082760 -0.598139
O26   O     O_R   0.000000 0.468700 0.082760 -0.596535
O27   O     O_R   0.468700 0.000000 0.082760 -0.598507
O28   O     O_R   0.000000 0.531300 0.082760 -0.596938
O29   O     O_R   0.468700 0.000000 0.917240 -0.597240
O30   O     O_R   1.000000 0.468700 0.917240 -0.598415
O31   O     O_R   0.531300 0.000000 0.917240 -0.597436
O32   O     O_R   1.000000 0.531300 0.917240 -0.599281
C9    C     C_R   0.999984 0.500007 0.609461 0.950473
C10   C     C_R   0.499999 0.999972 0.609453 0.945989
C11   C     C_R   0.000014 0.499912 0.390540 0.939815
C12   C     C_R   0.499997 0.000028 0.390548 0.930650
C13   C     C_R   0.499984 0.000004 0.109460 0.930394
C14   C     C_R   0.000022 0.499972 0.109453 0.947752
C15   C     C_R   0.500016 0.999993 0.890539 0.947892
C16   C     C_R   0.999993 0.500028 0.890548 0.930105
Zn1   Zn    Zn3+2 0.041800 0.500000 0.500000 1.135829
Zn2   Zn    Zn3+2 0.500000 0.958200 0.500000 1.144398
Zn3   Zn    Zn3+2 0.958200 0.500000 0.500000 1.142318
Zn4   Zn    Zn3+2 0.500000 0.041800 0.500000 1.141267
Zn5   Zn    Zn3+2 0.541800 0.000000 0.000000 1.142541
Zn6   Zn    Zn3+2 0.000000 0.458200 0.000000 1.141416
Zn7   Zn    Zn3+2 0.458200 0.000000 0.000000 1.142181
Zn8   Zn    Zn3+2 1.000000 0.541800 0.000000 1.142368
C17   C     C_1   0.999952 0.500042 0.669635 -0.058050
C18   C     C_1   0.500020 0.999917 0.669626 -0.062249
C19   C     C_1   0.000045 0.499878 0.330367 -0.058469
C20   C     C_1   0.499975 0.000083 0.330375 -0.056356
C21   C     C_1   0.499951 0.000040 0.169633 -0.058537
C22   C     C_1   0.000040 0.499910 0.169627 -0.059173
C23   C     C_1   0.500048 0.999958 0.830366 -0.060478
C24   C     C_1   0.999973 0.500082 0.830376 -0.059618
C25   C     C_1   0.999946 0.500072 0.720387 0.080015
C26   C     C_1   0.500039 0.999907 0.720378 0.077971
C27   C     C_1   0.000055 0.499867 0.279615 0.081411
C28   C     C_1   0.499957 0.000093 0.279622 0.084680
C29   C     C_1   0.499945 0.000072 0.220386 0.084170
C30   C     C_1   0.000051 0.499878 0.220379 0.079823
C31   C     C_1   0.500053 0.999927 0.779614 0.078210
C32   C     C_1   0.999957 0.500092 0.779623 0.082448
C33   C     C_R   0.984539 0.173940 0.453902 -0.219891
C34   C     C_R   0.173054 0.022109 0.457429 -0.203538
C35   C     C_R   0.023386 0.826907 0.460582 -0.202321
C36   C     C_R   0.826943 0.977983 0.457364 -0.196893
C37   C     C_R   0.019863 0.173947 0.541877 -0.223201
C38   C     C_R   0.825726 0.019934 0.538507 -0.216507
C39   C     C_R   0.978787 0.826088 0.538695 -0.221577
C40   C     C_R   0.174150 0.978689 0.537032 -0.221466
C41   C     C_R   0.476324 0.673582 0.963262 -0.200994
C42   C     C_R   0.673956 0.519579 0.959300 -0.221325
C43   C     C_R   0.519836 0.326043 0.959007 -0.225242
C44   C     C_R   0.326965 0.478072 0.957504 -0.204229
C45   C     C_R   0.521921 0.673353 0.039978 -0.199448
C46   C     C_R   0.325801 0.521035 0.037445 -0.220803
C47   C     C_R   0.482230 0.326244 0.044942 -0.225745
C48   C     C_R   0.673173 0.475650 0.038283 -0.204606
H1    H     H_    0.970576 0.189417 0.420241 0.198708
H2    H     H_    0.187898 0.038628 0.425739 0.203565
H3    H     H_    0.040626 0.811944 0.430011 0.205535
H4    H     H_    0.812140 0.961967 0.425175 0.204174
H5    H     H_    0.034633 0.189390 0.574717 0.193747
H6    H     H_    0.809827 0.036971 0.568228 0.197346
H7    H     H_    0.960951 0.810315 0.567600 0.197325
H8    H     H_    0.189998 0.961043 0.566034 0.197446
H9    H     H_    0.458468 0.688952 0.933957 0.205142
H10   H     H_    0.689753 0.536861 0.929669 0.195943
H11   H     H_    0.535347 0.310533 0.926998 0.195393
H12   H     H_    0.312147 0.461731 0.925706 0.203339
H13   H     H_    0.539247 0.688527 0.070175 0.204418
H14   H     H_    0.309927 0.538509 0.066610 0.197909
H15   H     H_    0.467281 0.310838 0.077761 0.196231
H16   H     H_    0.688167 0.458373 0.068803 0.203680
C49   C     C_R   0.984212 0.134571 0.453635 0.450138
C50   C     C_R   0.133785 0.022976 0.459340 0.457493
C51   C     C_R   0.023634 0.866187 0.461201 0.450125
C52   C     C_R   0.866215 0.977249 0.459058 0.452509
C53   C     C_R   0.018191 0.134603 0.544152 0.434829
C54   C     C_R   0.865104 0.019340 0.541239 0.458294
C55   C     C_R   0.978903 0.865479 0.540366 0.434416
C56   C     C_R   0.134773 0.979419 0.539992 0.432837
C57   C     C_R   0.476298 0.634267 0.962536 0.454149
C58   C     C_R   0.634543 0.520205 0.958584 0.429577
C59   C     C_R   0.518476 0.365386 0.956657 0.432719
C60   C     C_R   0.366229 0.477193 0.959366 0.458538
C61   C     C_R   0.523200 0.634092 0.038579 0.456790
C62   C     C_R   0.365176 0.520286 0.040363 0.428991
C63   C     C_R   0.482160 0.365628 0.045176 0.433360
C64   C     C_R   0.633863 0.476160 0.038654 0.455377
C65   C     C_R   0.000676 0.114731 0.499416 -0.269813
C66   C     C_R   0.114487 0.000717 0.499745 -0.273302
C67   C     C_R   0.000594 0.885584 0.500298 -0.270099
C68   C     C_R   0.885473 0.998937 0.500052 -0.266596
C69   C     C_R   0.499990 0.614384 0.000129 -0.271585
C70   C     C_R   0.614456 0.499185 0.999500 -0.269027
C71   C     C_R   0.500058 0.385332 0.000471 -0.278342
C72   C     C_R   0.385502 0.499234 0.999905 -0.273872
C73   C     C_R   0.002712 0.193279 0.497351 -0.029042
C74   C     C_R   0.192979 0.000020 0.496086 -0.038559
C75   C     C_R   0.001092 0.807125 0.499240 -0.038254
C76   C     C_R   0.806965 0.999314 0.496850 -0.039596
C77   C     C_R   0.498746 0.692869 0.002248 -0.047016
C78   C     C_R   0.692943 0.497178 0.998617 -0.036308
C79   C     C_R   0.501469 0.306800 0.002593 -0.028326
C80   C     C_R   0.307010 0.499948 0.996342 -0.038224
C81   C     C_1   0.003591 0.233256 0.496260 0.097158
C82   C     C_1   0.232981 0.998990 0.493679 0.097837
C83   C     C_1   0.000923 0.767120 0.498394 0.101598
C84   C     C_1   0.766980 0.000409 0.494436 0.101482
C85   C     C_1   0.497921 0.732893 0.003628 0.103136
C86   C     C_1   0.732967 0.496490 0.998226 0.099089
C87   C     C_1   0.502374 0.266820 0.003920 0.093519
C88   C     C_1   0.267015 0.501007 0.993946 0.097726
C89   C     C_1   0.004114 0.266886 0.495356 0.181088
C90   C     C_1   0.266634 0.997985 0.492421 0.180692
C91   C     C_1   0.000683 0.733468 0.498158 0.181405
C92   C     C_1   0.733342 0.001526 0.493081 0.181079
C93   C     C_1   0.497234 0.766552 0.004652 0.182947
C94   C     C_1   0.766630 0.496101 0.997474 0.182440
C95   C     C_1   0.503089 0.233190 0.004921 0.179622
C96   C     C_1   0.233367 0.502025 0.992661 0.180646
C97   C     C_R   0.980578 0.326530 0.457073 0.216791
C98   C     C_R   0.326944 0.020791 0.455144 0.214738
C99   C     C_R   0.023167 0.673556 0.459551 0.223160
C100  C     C_R   0.673098 0.979073 0.455463 0.214436
C101  C     C_R   0.026196 0.326451 0.535303 0.218900
C102  C     C_R   0.674252 0.025369 0.532659 0.219538
C103  C     C_R   0.977345 0.674009 0.537543 0.224599
C104  C     C_R   0.325695 0.974293 0.532293 0.219666
C105  C     C_R   0.473973 0.826113 0.965679 0.219296
C106  C     C_R   0.826157 0.520065 0.959078 0.216716
C107  C     C_R   0.525937 0.173799 0.965318 0.219022
C108  C     C_R   0.173135 0.479297 0.955305 0.214716
C109  C     C_R   0.520701 0.826406 0.042354 0.214533
C110  C     C_R   0.174235 0.525643 0.032430 0.219239
C111  C     C_R   0.479861 0.173337 0.043062 0.216469
C112  C     C_R   0.826464 0.473647 0.036362 0.219032
C113  C     C_R   0.978258 0.365893 0.460376 0.188664
C114  C     C_R   0.366349 0.022479 0.459051 0.190287
C115  C     C_R   0.023000 0.634012 0.459970 0.182560
C116  C     C_R   0.633680 0.977532 0.459155 0.190292
C117  C     C_R   0.024120 0.365894 0.538104 0.185535
C118  C     C_R   0.634750 0.024040 0.535918 0.184990
C119  C     C_R   0.977229 0.634461 0.538111 0.182979
C120  C     C_R   0.365184 0.975769 0.535761 0.184621
C121  C     C_R   0.475586 0.865615 0.962992 0.184692
C122  C     C_R   0.865587 0.522179 0.961684 0.190079
C123  C     C_R   0.524196 0.134331 0.962533 0.184907
C124  C     C_R   0.133724 0.477605 0.959148 0.190388
C125  C     C_R   0.522512 0.865833 0.039245 0.190480
C126  C     C_R   0.134741 0.524161 0.035836 0.184424
C127  C     C_R   0.477893 0.133950 0.039810 0.189335
C128  C     C_R   0.865965 0.475552 0.038522 0.184430
C129  C     C_R   0.000226 0.385519 0.500405 -0.353629
C130  C     C_R   0.385427 0.999867 0.499009 -0.354537
C131  C     C_R   0.000077 0.614536 0.499328 -0.358294
C132  C     C_R   0.614554 0.000104 0.499056 -0.354392
C133  C     C_R   0.499804 0.885405 0.999979 -0.353905
C134  C     C_R   0.885445 0.499719 0.000915 -0.353911
C135  C     C_R   0.500217 0.114501 0.999972 -0.354490
C136  C     C_R   0.114570 0.500139 0.999064 -0.354538
C137  C     C_R   0.004453 0.307092 0.494781 -0.207726
C138  C     C_R   0.306885 0.996843 0.492073 -0.206120
C139  C     C_R   0.000352 0.693240 0.498336 -0.216651
C140  C     C_R   0.693111 0.002833 0.492535 -0.205912
C141  C     C_R   0.496529 0.806812 0.005332 -0.206413
C142  C     C_R   0.806877 0.495864 0.996611 -0.207412
C143  C     C_R   0.503771 0.192981 0.005554 -0.207067
C144  C     C_R   0.193121 0.503171 0.992252 -0.206173
O33   O     O_R   0.944690 0.999980 0.546690 -0.607537
O34   O     O_R   0.999980 0.055310 0.546690 -0.592655
O35   O     O_R   0.055310 0.000020 0.546690 -0.604032
O36   O     O_R   0.000020 0.944690 0.546690 -0.606378
O37   O     O_R   0.055310 0.999980 0.453310 -0.580044
O38   O     O_R   0.000020 0.055310 0.453310 -0.596682
O39   O     O_R   0.944690 0.000020 0.453310 -0.570311
O40   O     O_R   0.999980 0.944690 0.453310 -0.578664
O41   O     O_R   0.444690 0.499980 0.046690 -0.601154
O42   O     O_R   0.499980 0.555310 0.046690 -0.579595
O43   O     O_R   0.555310 0.500020 0.046690 -0.579608
O44   O     O_R   0.500020 0.444690 0.046690 -0.598024
O45   O     O_R   0.555310 0.499980 0.953310 -0.602660
O46   O     O_R   0.500020 0.555310 0.953310 -0.580938
O47   O     O_R   0.444690 0.500020 0.953310 -0.578969
O48   O     O_R   0.499980 0.444690 0.953310 -0.596753
C145  C     C_R   0.926644 0.999913 0.500037 0.969462
C146  C     C_R   0.000087 0.073429 0.499905 0.962582
C147  C     C_R   0.073340 0.999974 0.499964 0.942139
C148  C     C_R   0.999876 0.926683 0.500064 0.943954
C149  C     C_R   0.426656 0.500012 0.000016 0.942780
C150  C     C_R   0.500066 0.573301 0.999980 0.942681
C151  C     C_R   0.573332 0.500163 0.999930 0.943916
C152  C     C_R   0.499926 0.426594 0.000077 0.937374
Zn9   Zn    Zn3+2 0.000000 0.000000 0.562390 1.005161
Zn10  Zn    Zn3+2 1.000000 0.000000 0.437610 1.090170
Zn11  Zn    Zn3+2 0.500000 0.500000 0.062390 1.055647
Zn12  Zn    Zn3+2 0.500000 0.500000 0.937610 1.055224
O49   O     O_3   0.964816 0.115416 0.411614 -0.577098
C153  C     C_3   0.984520 0.119010 0.359782 -0.177851
H17   H     H_    0.014626 0.110584 0.364175 0.147092
H18   H     H_    0.982405 0.148119 0.342646 0.165532
H19   H     H_    0.971448 0.099853 0.328256 0.201763
O50   O     O_3   0.114408 0.044471 0.420028 -0.574844
C154  C     C_3   0.108288 0.080493 0.443430 -0.234306
H20   H     H_    0.135429 0.095238 0.451641 0.175467
H21   H     H_    0.091218 0.078946 0.483085 0.145216
H22   H     H_    0.092178 0.097616 0.412372 0.191726
O51   O     O_3   0.045526 0.885469 0.422200 -0.576276
C155  C     C_3   0.081396 0.891484 0.446274 -0.200417
H23   H     H_    0.096013 0.864325 0.454769 0.173894
H24   H     H_    0.079567 0.908478 0.485896 0.153475
H25   H     H_    0.098817 0.907610 0.415545 0.206550
O52   O     O_3   0.885629 0.956376 0.419091 -0.572535
C156  C     C_3   0.891510 0.919938 0.441292 -0.211994
H26   H     H_    0.864282 0.905185 0.448961 0.170500
H27   H     H_    0.908496 0.920748 0.481021 0.150703
H28   H     H_    0.907596 0.903261 0.409703 0.208488
O53   O     O_3   0.036913 0.115329 0.586797 -0.600120
C157  C     C_3   0.017570 0.120556 0.638575 -0.200253
H29   H     H_    0.987206 0.112948 0.634834 0.165479
H30   H     H_    0.020661 0.149917 0.654212 0.166334
H31   H     H_    0.030172 0.101652 0.670947 0.188159
O54   O     O_3   0.883907 0.041830 0.579965 -0.583634
C158  C     C_3   0.878806 0.026881 0.635000 -0.215425
H32   H     H_    0.886976 0.996612 0.637108 0.156109
H33   H     H_    0.849312 0.030675 0.649851 0.168919
H34   H     H_    0.897353 0.042454 0.664729 0.192123
O55   O     O_3   0.954961 0.884534 0.576831 -0.608592
C159  C     C_3   0.967643 0.879767 0.633159 -0.211745
H35   H     H_    0.997902 0.887588 0.637736 0.162078
H36   H     H_    0.962838 0.850480 0.648265 0.171094
H37   H     H_    0.951169 0.898763 0.661097 0.189108
O56   O     O_3   0.115852 0.956270 0.577868 -0.606196
C160  C     C_3   0.121199 0.969961 0.633498 -0.208039
H38   H     H_    0.113377 0.000259 0.637000 0.161966
H39   H     H_    0.150665 0.965509 0.647977 0.169752
H40   H     H_    0.102516 0.953960 0.662646 0.190760
O57   O     O_3   0.453764 0.615437 0.924026 -0.579506
C161  C     C_3   0.418120 0.609602 0.949086 -0.196217
H41   H     H_    0.403811 0.636835 0.958115 0.176553
H42   H     H_    0.420259 0.592421 0.988570 0.157451
H43   H     H_    0.400233 0.593744 0.918783 0.204862
O58   O     O_3   0.615514 0.544128 0.922005 -0.609040
C162  C     C_3   0.619850 0.531155 0.865762 -0.186988
H44   H     H_    0.612047 0.500873 0.861684 0.160807
H45   H     H_    0.649015 0.535943 0.850097 0.170485
H46   H     H_    0.600595 0.547443 0.837942 0.197250
O59   O     O_3   0.538295 0.384585 0.914995 -0.598526
C163  C     C_3   0.520093 0.379501 0.862301 -0.197476
H47   H     H_    0.489690 0.387203 0.864606 0.155231
H48   H     H_    0.523401 0.350149 0.846725 0.165878
H49   H     H_    0.533502 0.398408 0.830614 0.194022
O60   O     O_3   0.385627 0.455890 0.919893 -0.574367
C164  C     C_3   0.391693 0.419743 0.943048 -0.234330
H50   H     H_    0.364532 0.404981 0.951194 0.173267
H51   H     H_    0.408735 0.421072 0.982693 0.148417
H52   H     H_    0.407811 0.402765 0.911856 0.192485
O61   O     O_3   0.546218 0.615102 0.076310 -0.576561
C165  C     C_3   0.581711 0.609955 0.050491 -0.208358
H53   H     H_    0.595563 0.637458 0.041417 0.171528
H54   H     H_    0.579456 0.592982 0.010907 0.159133
H55   H     H_    0.600080 0.594189 0.080294 0.205019
O62   O     O_3   0.384051 0.543186 0.078456 -0.603484
C166  C     C_3   0.378666 0.529102 0.133942 -0.188540
H56   H     H_    0.386530 0.498793 0.137115 0.158053
H57   H     H_    0.349179 0.533409 0.148489 0.166714
H58   H     H_    0.397294 0.544928 0.163250 0.199521
O63   O     O_3   0.461677 0.384981 0.085839 -0.601894
C167  C     C_3   0.479585 0.381095 0.139020 -0.194268
H59   H     H_    0.509949 0.389004 0.136803 0.157547
H60   H     H_    0.476368 0.352042 0.155996 0.169602
H61   H     H_    0.465841 0.400497 0.169557 0.191423
O64   O     O_3   0.614592 0.454969 0.078545 -0.577593
C168  C     C_3   0.607831 0.418950 0.055514 -0.222582
H62   H     H_    0.634707 0.403790 0.047141 0.178712
H63   H     H_    0.590651 0.420597 0.016025 0.148709
H64   H     H_    0.591561 0.402173 0.086885 0.192338
N1    N     N_R   0.959065 0.306434 0.415046 0.238588
O65   O     O_R   0.923624 0.314127 0.407102 -0.271954
O66   O     O_R   0.974950 0.280615 0.384023 -0.358495
N2    N     N_R   0.307422 0.043000 0.413256 0.236593
O67   O     O_R   0.315511 0.078456 0.406376 -0.278009
O68   O     O_R   0.281537 0.027798 0.381570 -0.346156
N3    N     N_R   0.045573 0.693629 0.418484 0.246827
O69   O     O_R   0.043394 0.685162 0.364825 -0.276244
O70   O     O_R   0.068390 0.720252 0.434557 -0.351056
N4    N     N_R   0.692689 0.956926 0.413629 0.236522
O71   O     O_R   0.684586 0.921489 0.406766 -0.276029
O72   O     O_R   0.718685 0.972156 0.382028 -0.343962
N5    N     N_R   0.049189 0.306016 0.575120 0.243207
O73   O     O_R   0.046616 0.312825 0.629285 -0.287252
O74   O     O_R   0.072541 0.280325 0.557456 -0.347753
N6    N     N_R   0.695249 0.048364 0.571726 0.242405
O75   O     O_R   0.688522 0.046473 0.626008 -0.288670
O76   O     O_R   0.721405 0.070999 0.553266 -0.341780
N7    N     N_R   0.955100 0.694560 0.578131 0.243960
O77   O     O_R   0.957221 0.686527 0.631988 -0.284890
O78   O     O_R   0.932529 0.721230 0.561430 -0.354214
N8    N     N_R   0.304650 0.951121 0.571244 0.242758
O79   O     O_R   0.311164 0.952922 0.625563 -0.288544
O80   O     O_R   0.278660 0.928417 0.552641 -0.346255
N9    N     N_R   0.450596 0.805577 0.926566 0.244974
O81   O     O_R   0.452287 0.812632 0.872359 -0.280383
O82   O     O_R   0.427771 0.779553 0.944907 -0.345569
N10   N     N_R   0.805828 0.542002 0.917749 0.236481
O83   O     O_R   0.813197 0.577617 0.910917 -0.277714
O84   O     O_R   0.780007 0.526372 0.886422 -0.359837
N11   N     N_R   0.549013 0.194431 0.925739 0.243100
O85   O     O_R   0.546840 0.187571 0.871555 -0.288052
O86   O     O_R   0.572033 0.220359 0.943635 -0.345523
N12   N     N_R   0.192742 0.457176 0.913454 0.236403
O87   O     O_R   0.184690 0.421727 0.906607 -0.278610
O88   O     O_R   0.218674 0.472450 0.881781 -0.346990
N13   N     N_R   0.542938 0.806388 0.083656 0.236397
O89   O     O_R   0.578536 0.814040 0.089992 -0.276227
O90   O     O_R   0.527624 0.780490 0.115344 -0.345986
N14   N     N_R   0.195204 0.548737 0.071398 0.242898
O91   O     O_R   0.188579 0.546834 0.125707 -0.287374
O92   O     O_R   0.221236 0.571472 0.052822 -0.345281
N15   N     N_R   0.458016 0.193260 0.084914 0.237022
O93   O     O_R   0.422514 0.185504 0.092257 -0.278209
O94   O     O_R   0.473619 0.219108 0.116197 -0.358849
N16   N     N_R   0.806227 0.450292 0.076029 0.245291
O95   O     O_R   0.813462 0.452257 0.130126 -0.279894
O96   O     O_R   0.780323 0.427184 0.058303 -0.347215
N17   N     N_R   0.955906 0.386149 0.419962 0.252679
O97   O     O_R   0.920717 0.393375 0.430916 -0.281157
O98   O     O_R   0.971728 0.400786 0.375214 -0.362258
N18   N     N_R   0.387188 0.044948 0.419352 0.253837
O99   O     O_R   0.394070 0.080158 0.430472 -0.282795
O100  O     O_R   0.402998 0.029144 0.375598 -0.363679
N19   N     N_R   0.045996 0.613715 0.420172 0.255530
O101  O     O_R   0.081902 0.620736 0.416408 -0.273116
O102  O     O_R   0.030824 0.589303 0.385947 -0.374594
N20   N     N_R   0.612892 0.955248 0.419328 0.253869
O103  O     O_R   0.606092 0.919959 0.430188 -0.280213
O104  O     O_R   0.596913 0.971301 0.375888 -0.364165
N21   N     N_R   0.046309 0.385953 0.579197 0.256719
O105  O     O_R   0.082382 0.379941 0.583019 -0.273488
O106  O     O_R   0.030373 0.409672 0.613760 -0.375358
N22   N     N_R   0.615240 0.046933 0.576748 0.256807
O107  O     O_R   0.621889 0.082923 0.579628 -0.271824
O108  O     O_R   0.591465 0.031713 0.612107 -0.373565
N23   N     N_R   0.954060 0.614627 0.578356 0.255717
O109  O     O_R   0.918224 0.621965 0.582006 -0.273317
O110  O     O_R   0.968999 0.590281 0.613014 -0.375139
N24   N     N_R   0.384637 0.952843 0.576671 0.256964
O111  O     O_R   0.378079 0.916828 0.579540 -0.270357
O112  O     O_R   0.408310 0.968044 0.612056 -0.373162
N25   N     N_R   0.452655 0.885548 0.922634 0.256754
O113  O     O_R   0.416577 0.879241 0.920047 -0.272170
O114  O     O_R   0.467929 0.909353 0.887378 -0.373636
N26   N     N_R   0.885629 0.544874 0.921347 0.253724
O115  O     O_R   0.892038 0.580220 0.932115 -0.280876
O116  O     O_R   0.901476 0.529164 0.877545 -0.364231
N27   N     N_R   0.546767 0.114468 0.921665 0.256668
O117  O     O_R   0.582822 0.120763 0.918256 -0.272484
O118  O     O_R   0.531191 0.090692 0.886833 -0.375522
N28   N     N_R   0.112961 0.455215 0.919430 0.253839
O119  O     O_R   0.106124 0.419963 0.930511 -0.282818
O120  O     O_R   0.097123 0.471129 0.875757 -0.364273
N29   N     N_R   0.545198 0.886162 0.079097 0.254208
O121  O     O_R   0.580524 0.892638 0.067980 -0.280182
O122  O     O_R   0.529476 0.902196 0.122733 -0.362672
N30   N     N_R   0.115209 0.547004 0.076708 0.257018
O123  O     O_R   0.121746 0.583016 0.079549 -0.270538
O124  O     O_R   0.091499 0.531724 0.112107 -0.373174
N31   N     N_R   0.455482 0.113511 0.080053 0.253645
O125  O     O_R   0.420169 0.106758 0.069360 -0.281961
O126  O     O_R   0.471418 0.097841 0.123845 -0.363584
N32   N     N_R   0.886223 0.452933 0.078918 0.256660
O127  O     O_R   0.880182 0.416839 0.082058 -0.272972
O128  O     O_R   0.910068 0.468509 0.113659 -0.374304

loop_
_geom_bond_atom_site_label_1
_geom_bond_atom_site_label_2
_geom_bond_distance
_ccdc_geom_bond_type
C67   C148  1.459468 S    
C158  H33   1.111547 S    
C35   C51   1.394749 A    
N17   O97   1.300701 A    
C165  H55   1.109295 S    
O25   C13   1.276257 A    
C65   C146  1.466579 S    
C10   C18   1.416439 S    
C69   C150  1.458703 S    
O33   Zn9   1.997747 S    
C53   O53   1.384580 S    
C14   C22   1.416453 S    
C101  C137  1.407387 A    
O60   C164  1.410268 S    
N30   O124  1.301235 A    
O18   Zn2   1.984084 S    
C54   O54   1.384502 S    
C157  H30   1.111529 S    
O52   C156  1.410242 S    
C98   C114  1.402778 A    
N31   O126  1.300626 A    
O58   C162  1.410798 S    
O24   Zn4   1.984087 S    
O46   C150  1.271714 A    
C102  C118  1.404665 A    
C162  H44   1.114409 S    
C35   C75   1.393953 A    
N6    O75   1.301258 A    
O38   Zn10  1.998882 S    
O3    C3    1.279813 A    
C51   C67   1.411127 A    
C6    C134  1.462839 S    
C13   C21   1.416433 S    
C157  H31   1.109305 S    
C87   C95   1.194517 T    
C156  H26   1.113253 S    
O25   Zn5   1.983073 S    
C42   H10   1.083795 S    
C126  C136  1.411395 A    
C52   C68   1.412206 A    
O47   C149  1.271600 A    
C97   N1    1.440082 S    
O34   Zn9   1.997659 S    
C112  N16   1.438966 S    
O39   C145  1.272230 A    
N8    O79   1.301259 A    
C44   H12   1.084109 S    
C40   C74   1.394516 A    
O17   C9    1.276262 A    
N12   O87   1.300826 A    
N28   O120  1.300625 A    
N9    O81   1.301255 A    
C42   C78   1.393788 A    
O48   C152  1.273708 A    
O49   C153  1.411210 S    
C110  N14   1.438973 S    
O43   C151  1.272487 A    
C40   C56   1.399393 A    
O13   C5    1.279843 A    
O37   Zn10  1.997744 S    
C37   C73   1.392683 A    
C45   C61   1.395177 A    
O7    Zn1   2.003614 S    
N8    O80   1.301283 A    
C56   O56   1.384538 S    
C47   H15   1.083911 S    
C23   C31   1.194680 T    
O26   Zn6   1.984084 S    
O7    C3    1.279571 A    
N25   O113  1.301188 A    
C161  H42   1.113562 S    
C105  C121  1.404974 A    
N27   O117  1.301193 A    
O27   C13   1.276324 A    
O35   Zn9   1.997024 S    
C124  N28   1.432518 S    
C167  H59   1.114557 S    
O31   C15   1.276332 A    
O32   C16   1.276696 A    
N10   O83   1.300812 A    
N26   O116  1.300655 A    
N23   O109  1.301154 A    
N29   O121  1.300712 A    
C106  C142  1.408041 A    
C106  N10   1.439846 S    
C34   H2    1.084100 S    
C164  H51   1.113591 S    
O45   Zn12  1.997744 S    
C53   C65   1.412933 A    
C38   H6    1.083895 S    
C101  N5    1.438997 S    
O11   C7    1.279758 A    
N14   O91   1.301258 A    
C64   C70   1.411231 A    
O21   Zn3   1.983075 S    
C33   H1    1.083969 S    
O4    C4    1.280141 A    
C123  C135  1.411458 A    
N5    O73   1.301261 A    
C156  H28   1.109279 S    
O5    Zn3   2.003617 S    
O36   Zn9   1.998886 S    
C98   N2    1.439972 S    
O42   C150  1.270679 A    
N15   O93   1.300836 A    
C110  C126  1.404767 A    
O9    C5    1.280292 A    
C166  H57   1.111512 S    
N22   O107  1.301189 A    
C103  C139  1.407235 A    
C22   C30   1.194687 T    
O53   C157  1.410844 S    
O48   Zn12  1.997661 S    
O23   C11   1.276386 A    
C57   O57   1.382406 S    
O47   Zn12  1.997029 S    
C58   C70   1.410103 A    
N31   O125  1.300710 A    
N2    O67   1.300833 A    
O14   C8    1.280164 A    
C38   C76   1.394242 A    
N4    O72   1.301362 A    
O2    Zn2   2.002762 S    
C19   C27   1.194681 T    
O44   Zn11  1.998886 S    
C33   C49   1.397894 A    
O56   C160  1.410529 S    
C168  H63   1.113648 S    
C100  N4    1.439937 S    
O28   C14   1.276606 A    
O26   C14   1.276695 A    
O29   C15   1.276259 A    
O8    Zn4   2.002281 S    
O30   C16   1.276581 A    
C167  H61   1.109322 S    
C35   H3    1.084109 S    
C3    C131  1.462875 S    
C79   C87   1.420184 S    
C107  C143  1.407534 A    
C44   C60   1.394547 A    
C155  H24   1.113538 S    
N18   O99   1.300722 A    
C48   H16   1.084083 S    
O19   Zn3   1.983798 S    
N1    O66   1.301370 A    
C104  N8    1.438967 S    
C66   C147  1.460494 S    
C43   C59   1.398763 A    
C162  H46   1.109242 S    
C99   C139  1.406780 A    
C163  H47   1.114543 S    
N7    O78   1.301249 A    
C70   C151  1.459910 S    
C39   C55   1.399229 A    
C100  C116  1.402566 A    
C102  C140  1.407923 A    
O16   Zn8   2.002281 S    
C47   C63   1.398392 A    
C4    C132  1.462847 S    
O39   Zn10  1.997029 S    
C5    C133  1.464204 S    
N19   O101  1.301151 A    
C39   C75   1.394228 A    
C50   C66   1.411987 A    
C103  N7    1.438778 S    
O61   C165  1.410153 S    
C73   C81   1.419902 S    
C8    C136  1.463219 S    
O6    Zn2   2.002279 S    
C37   C53   1.399056 A    
C160  H39   1.111503 S    
C71   C152  1.465029 S    
C128  N32   1.437222 S    
C154  H22   1.109410 S    
C128  C134  1.411846 A    
C90   C138  1.429081 S    
C41   C57   1.396016 A    
C46   H14   1.083857 S    
C109  N13   1.439821 S    
O18   C10   1.276702 A    
N32   O127  1.301190 A    
O44   C152  1.272465 A    
C107  N11   1.438989 S    
C68   C145  1.461523 S    
O37   C147  1.271566 A    
C64   O64   1.382488 S    
C50   O50   1.382481 S    
C61   O61   1.382357 S    
C62   O62   1.384488 S    
C63   O63   1.384991 S    
C159  H35   1.114349 S    
N27   O118  1.301190 A    
C72   C149  1.460762 S    
C41   C77   1.395399 A    
C25   C32   1.394374 S    
O12   C8    1.280147 A    
O1    C1    1.278876 A    
C27   C30   1.394369 S    
O34   C146  1.274488 A    
N24   O111  1.301192 A    
C48   C78   1.394245 A    
C88   C96   1.195118 T    
C107  C123  1.404285 A    
C36   C76   1.393539 A    
C111  N15   1.439969 S    
C82   C90   1.195198 T    
C125  N29   1.432553 S    
C155  H23   1.113184 S    
N22   O108  1.301232 A    
C106  C122  1.402672 A    
C75   C83   1.420582 S    
C119  C131  1.411692 A    
O29   Zn7   1.983075 S    
C97   C137  1.407940 A    
N6    O76   1.301288 A    
N16   O95   1.301259 A    
C101  C117  1.404065 A    
C111  C143  1.407688 A    
C61   C69   1.410728 A    
O55   C159  1.410626 S    
N21   O106  1.301172 A    
C63   C71   1.412760 A    
N20   O104  1.300635 A    
O41   C149  1.272059 A    
O51   C155  1.410253 S    
C163  H49   1.109330 S    
C118  N22   1.437323 S    
O10   C6    1.279566 A    
C105  N9    1.438943 S    
C112  C142  1.407315 A    
O36   C148  1.271123 A    
O15   Zn5   2.003614 S    
C81   C89   1.194334 T    
C100  C140  1.407331 A    
C15   C23   1.416442 S    
O62   C166  1.410552 S    
C122  C134  1.408897 A    
N12   O88   1.301362 A    
C16   C24   1.416416 S    
C127  N31   1.432491 S    
C117  N21   1.437373 S    
C165  H53   1.113228 S    
C123  N27   1.437339 S    
N20   O103  1.300720 A    
C54   C68   1.410306 A    
C125  C133  1.409512 A    
C102  N6    1.438974 S    
C1    C129  1.461582 S    
C28   C29   1.394386 S    
O32   Zn8   1.984087 S    
C154  H20   1.113212 S    
C104  C120  1.404833 A    
C48   C64   1.395224 A    
C89   C137  1.427613 S    
C108  C124  1.402738 A    
O22   Zn2   1.982853 S    
C158  H34   1.109275 S    
N3    O69   1.301227 A    
C36   C52   1.394610 A    
C43   H11   1.083951 S    
O57   C161  1.410264 S    
O21   C11   1.276199 A    
C161  H43   1.109304 S    
O22   C12   1.276586 A    
O23   Zn1   1.983800 S    
C159  H37   1.109261 S    
C55   O55   1.384805 S    
C167  H60   1.111369 S    
N9    O82   1.301291 A    
C33   C73   1.391620 A    
C55   C67   1.409717 A    
C47   C79   1.392158 A    
N30   O123  1.301190 A    
N10   O84   1.301354 A    
C166  H56   1.114342 S    
O3    Zn3   2.003134 S    
C157  H29   1.114380 S    
C51   O51   1.382359 S    
C155  H25   1.109292 S    
O8    C2    1.280172 A    
C49   O49   1.384843 S    
O63   C167  1.411104 S    
C39   H7    1.083810 S    
O54   C158  1.410633 S    
O28   Zn8   1.982850 S    
C109  C141  1.407847 A    
C78   C86   1.420664 S    
N11   O85   1.301261 A    
O30   Zn6   1.982853 S    
C117  C129  1.411481 A    
C114  C130  1.409657 A    
N14   O92   1.301288 A    
C46   C62   1.399386 A    
C156  H27   1.113560 S    
C60   O60   1.382445 S    
O9    Zn5   2.003139 S    
O50   C154  1.410279 S    
N24   O112  1.301242 A    
O14   Zn6   2.002279 S    
O11   Zn7   2.003134 S    
C58   O58   1.385061 S    
C59   O59   1.384520 S    
C44   C80   1.393705 A    
O16   C6    1.280534 A    
C17   C25   1.194685 T    
N19   O102  1.301079 A    
N15   O94   1.301364 A    
N28   O119  1.300722 A    
C115  C131  1.412080 A    
C76   C84   1.420776 S    
O6    C4    1.279979 A    
C77   C85   1.421833 S    
C105  C141  1.407757 A    
C86   C94   1.194868 T    
O59   C163  1.410894 S    
C9    C17   1.416463 S    
N7    O77   1.301227 A    
C80   C88   1.421085 S    
C115  N19   1.436869 S    
O45   C151  1.270770 A    
O31   Zn5   1.983800 S    
C12   C20   1.416430 S    
C37   H5    1.083906 S    
N2    O68   1.301362 A    
C153  H17   1.114547 S    
O17   Zn1   1.983073 S    
C122  N26   1.432510 S    
O33   C145  1.271834 A    
C20   C28   1.194692 T    
C168  H62   1.113110 S    
C97   C113  1.402345 A    
N25   O114  1.301197 A    
C161  H41   1.113136 S    
O41   Zn11  1.997747 S    
C94   C142  1.428501 S    
C108  C144  1.407451 A    
C45   C77   1.394820 A    
O13   Zn7   2.003617 S    
C114  N18   1.432500 S    
O40   C148  1.271868 A    
O2    C2    1.280199 A    
C121  N25   1.437228 S    
O42   Zn11  1.997659 S    
N26   O115  1.300699 A    
C84   C92   1.194918 T    
N18   O100  1.300619 A    
C85   C93   1.195626 T    
C99   N3    1.438777 S    
N1    O65   1.300889 A    
O38   C146  1.272520 A    
N29   O122  1.300655 A    
C83   C91   1.194845 T    
C164  H50   1.113223 S    
O4    Zn4   2.002758 S    
C162  H45   1.111292 S    
C163  H48   1.111616 S    
C164  H52   1.109391 S    
C57   C69   1.410166 A    
C59   C71   1.412164 A    
C153  H19   1.109281 S    
C118  C132  1.411310 A    
C92   C140  1.428615 S    
C111  C127  1.402388 A    
C26   C31   1.394369 S    
C112  C128  1.404394 A    
C116  N20   1.432579 S    
C91   C139  1.428360 S    
C40   H8    1.083854 S    
O46   Zn12  1.998882 S    
C160  H38   1.114335 S    
C43   C79   1.392857 A    
O40   Zn10  1.997661 S    
O15   C7    1.279238 A    
C103  C119  1.404179 A    
C154  H21   1.113577 S    
C96   C144  1.428944 S    
C62   C72   1.409857 A    
C18   C26   1.194685 T    
C166  H58   1.109237 S    
N32   O128  1.301150 A    
N23   O110  1.301138 A    
C120  N24   1.437366 S    
N3    O70   1.301251 A    
C121  C133  1.411815 A    
O27   Zn7   1.983798 S    
C95   C143  1.427923 S    
C7    C135  1.462037 S    
C113  N17   1.432298 S    
C42   C58   1.399039 A    
C159  H36   1.111389 S    
C124  C136  1.409635 A    
N5    O74   1.301287 A    
C2    C130  1.463324 S    
N17   O98   1.300600 A    
C153  H18   1.111438 S    
C56   C66   1.409732 A    
N4    O71   1.300812 A    
C34   C50   1.394641 A    
O19   C9    1.276336 A    
C168  H64   1.109399 S    
C52   O52   1.382291 S    
C119  N23   1.436993 S    
O24   C12   1.276695 A    
C49   C65   1.413558 A    
C38   C54   1.399227 A    
O5    C1    1.279880 A    
O12   Zn8   2.002758 S    
C36   H4    1.084120 S    
C46   C80   1.394442 A    
O64   C168  1.410350 S    
N11   O86   1.301285 A    
N16   O96   1.301287 A    
C34   C74   1.393828 A    
C158  H32   1.114358 S    
C45   H13   1.084122 S    
C104  C138  1.407992 A    
N21   O105  1.301199 A    
C21   C29   1.194699 T    
C108  N12   1.439963 S    
C127  C135  1.409026 A    
C120  C130  1.411394 A    
C11   C19   1.416435 S    
O35   C147  1.271941 A    
C109  C125  1.403101 A    
C113  C129  1.408605 A    
O20   Zn4   1.982850 S    
N13   O90   1.301350 A    
C41   H9    1.084099 S    
C116  C132  1.409646 A    
O20   C10   1.276593 A    
C165  H54   1.113459 S    
C24   C32   1.194690 T    
O10   Zn6   2.002762 S    
C160  H40   1.109259 S    
C110  C144  1.407945 A    
C98   C138  1.407459 A    
C99   C115  1.404033 A    
C60   C72   1.412095 A    
O43   Zn11  1.997024 S    
N13   O89   1.300803 A    
O1    Zn1   2.003139 S    
C126  N30   1.437342 S    
C93   C141  1.429780 S    
C74   C82   1.421222 S    
