data_mof_unit_9669.cif
_audit_creation_date              2012-12-10T16:57:14-0500
_audit_creation_method            fapswitch 2.2
_symmetry_space_group_name_H-M    P1
_symmetry_Int_Tables_number       1
_space_group_crystal_system       triclinic
_cell_length_a                    15.913196
_cell_length_b                    10.963935
_cell_length_c                    9.80681
_cell_angle_alpha                 91.4626
_cell_angle_beta                  90.395427
_cell_angle_gamma                 91.298255
_cell_volume                      1709.96195463

loop_
_atom_site_label
_atom_site_type_symbol
_atom_type_description
_atom_site_fract_x
_atom_site_fract_y
_atom_site_fract_z
_atom_type_partial_charge
C1    C     C_R   0.505207 0.265919 0.498016 0.757682
C2    C     C_3   0.950211 0.432703 0.628332 0.293524
C3    C     C_3   0.916507 0.506354 0.501627 0.096639
C4    C     C_3   0.953815 0.640814 0.515997 -0.118074
C5    C     C_3   0.051299 0.640417 0.507226 -0.418536
C6    C     C_1   0.824046 0.505929 0.501263 0.065655
C7    C     C_1   0.175716 0.509870 0.495752 -0.072352
C8    C     C_1   0.251167 0.507113 0.498776 -0.188690
C9    C     C_2   0.533563 0.929765 0.415564 -0.193724
C10   C     C_2   0.491239 0.864036 0.506302 0.278249
C11   C     C_2   0.511883 0.056580 0.393741 0.035971
C12   C     C_R   0.340592 0.501994 0.499746 0.817886
C13   C     C_2   0.531112 0.138846 0.495452 0.289298
C14   C     C_2   0.487731 0.408073 0.927938 0.464602
C15   C     C_2   0.456557 0.426725 0.070530 0.152276
C16   C     C_R   0.499182 0.733696 0.501939 0.759113
C17   C     C_R   0.659346 0.501114 0.500343 0.816003
C18   C     C_3   0.050459 0.427697 0.615258 -0.157295
C19   C     C_3   0.047168 0.452169 0.353577 -0.125093
C20   C     C_3   0.949250 0.437848 0.368665 0.192569
C21   C     C_1   0.748692 0.503861 0.501081 -0.079664
C22   C     C_3   0.083136 0.507487 0.491960 0.144534
Cu1   Cu    Cu3+1 0.500020 0.500020 0.638630 1.115720
Cu2   Cu    Cu3+1 0.499980 0.499980 0.361370 0.965894
H1    H     H_    0.080919 0.469733 0.707169 0.158457
H2    H     H_    0.576826 0.886372 0.345083 0.133866
H3    H     H_    0.554473 0.534077 0.114925 0.233473
H4    H     H_    0.073254 0.359246 0.340109 0.125244
H5    H     H_    0.937595 0.338672 0.379345 0.182271
H6    H     H_    0.079860 0.686194 0.599249 0.155079
H7    H     H_    0.074100 0.695447 0.421621 0.191051
H8    H     H_    0.940461 0.668409 0.622091 0.159465
N1    N     N_2   0.499090 0.498660 0.846910 -0.047925
N2    N     N_2   0.499070 0.498630 0.153040 -0.278108
O1    O     O_R   0.500010 0.321960 0.617040 -0.495087
O2    O     O_R   0.499990 0.321920 0.382900 -0.626362
O3    O     O_R   0.379450 0.500030 0.617120 -0.547875
O4    O     O_R   0.379420 0.499980 0.382980 -0.601253
O5    O     O_R   0.500010 0.678080 0.617100 -0.481085
O6    O     O_R   0.499990 0.678040 0.382960 -0.604857
O7    O     O_R   0.620580 0.500020 0.617020 -0.547162
O8    O     O_R   0.620550 0.499970 0.382880 -0.563511
Cl1   Cl    Cl    0.898908 0.281540 0.620079 -0.654789
C23   C     C_3   0.919824 0.485358 0.771611 -0.342589
C24   C     C_3   0.976809 0.577551 0.854047 -0.451330
C25   C     C_3   0.925371 0.669860 0.934747 -0.780959
H9    H     H_    0.892375 0.730552 0.864038 0.249429
H10   H     H_    0.878004 0.622646 0.998176 0.306464
H11   H     H_    0.967951 0.726839 0.001502 0.234336
H12   H     H_    0.015786 0.526415 0.925859 0.233644
H13   H     H_    0.020985 0.630222 0.791420 0.212299
H14   H     H_    0.856521 0.524244 0.758694 0.214276
H15   H     H_    0.908820 0.408678 0.842017 0.258748
C26   C     C_3   0.909216 0.749046 0.446619 -0.339651
C27   C     C_3   0.926501 0.772643 0.296067 -0.364911
C28   C     C_3   0.877380 0.881830 0.247750 -0.782736
H16   H     H_    0.808734 0.864491 0.258860 0.266098
H17   H     H_    0.896120 0.965546 0.307682 0.269183
H18   H     H_    0.890824 0.897350 0.138523 0.247753
H19   H     H_    0.994088 0.793270 0.279497 0.205056
H20   H     H_    0.906157 0.693144 0.233089 0.281615
H21   H     H_    0.840221 0.739480 0.460985 0.202757
H22   H     H_    0.928553 0.834265 0.504060 0.203055
Cl2   Cl    Cl    0.416400 0.926764 0.619385 -0.576112
C29   C     C_3   0.460933 0.083915 0.265943 -0.425600
C30   C     C_3   0.442945 0.969054 0.174130 -0.326147
C31   C     C_3   0.393331 0.995773 0.045838 -0.705972
H23   H     H_    0.332146 0.035310 0.073012 0.236447
H24   H     H_    0.430160 0.058172 0.980974 0.303952
H25   H     H_    0.381005 0.909444 0.986622 0.285754
H26   H     H_    0.503211 0.928437 0.141655 0.253894
H27   H     H_    0.406464 0.900307 0.232289 0.233062
H28   H     H_    0.399928 0.122231 0.298014 0.190557
H29   H     H_    0.496252 0.151841 0.205169 0.248585
Cl3   Cl    Cl    0.599453 0.098670 0.630308 -0.452998
Cl4   Cl    Cl    0.528325 0.264272 0.889201 -0.549845
Cl5   Cl    Cl    0.462443 0.639755 0.903363 -0.530300
C32   C     C_3   0.372984 0.372978 0.114262 -0.350947
C33   C     C_3   0.321979 0.306653 0.999890 -0.383491
C34   C     C_3   0.241299 0.247739 0.054269 -0.891717
H30   H     H_    0.252443 0.204379 0.153710 0.254159
H31   H     H_    0.191704 0.316105 0.066947 0.258195
H32   H     H_    0.217971 0.176206 0.980630 0.259545
H33   H     H_    0.305511 0.371983 0.919547 0.235095
H34   H     H_    0.359728 0.234211 0.951944 0.259470
H35   H     H_    0.334728 0.449664 0.151266 0.229373
H36   H     H_    0.383415 0.310679 0.199258 0.214488
C35   C     C_3   0.085543 0.295392 0.609998 -0.353433
C36   C     C_3   0.086363 0.237331 0.751154 -0.318907
C37   C     C_3   0.110542 0.103487 0.740557 -0.801331
H37   H     H_    0.065327 0.051171 0.673527 0.265944
H38   H     H_    0.174914 0.095390 0.698642 0.261739
H39   H     H_    0.109159 0.063272 0.843287 0.236470
H40   H     H_    0.132591 0.287992 0.817786 0.202598
H41   H     H_    0.024183 0.243249 0.800831 0.270684
H42   H     H_    0.050324 0.236521 0.534597 0.234701
H43   H     H_    0.151520 0.295776 0.574298 0.190311
C38   C     C_3   0.071053 0.519293 0.219839 -0.334248
C39   C     C_3   0.164017 0.553827 0.200590 -0.395435
C40   C     C_3   0.181743 0.593179 0.054978 -0.852406
H44   H     H_    0.167794 0.517187 0.980722 0.242359
H45   H     H_    0.142931 0.672520 0.029445 0.257095
H46   H     H_    0.249094 0.620244 0.045789 0.276510
H47   H     H_    0.182169 0.631769 0.269812 0.237416
H48   H     H_    0.202842 0.474603 0.224158 0.237061
H49   H     H_    0.052495 0.456228 0.133874 0.227437
H50   H     H_    0.034473 0.602624 0.209375 0.227108
Cl6   Cl    Cl    0.887285 0.459304 0.217171 -0.686730

loop_
_geom_bond_atom_site_label_1
_geom_bond_atom_site_label_2
_ccdc_geom_bond_type
C32   H36   S    
C27   C28   S    
C35   H42   S    
C2    C18   S    
Cu2   O8    S    
C19   C20   S    
C3    C6    S    
C32   H35   S    
C14   N1    D    
C7    C8    T    
C24   C25   S    
C25   H11   S    
Cu2   O2    S    
C33   H33   S    
C15   C32   S    
C26   H22   S    
C24   H13   S    
C12   O3    A    
C29   H28   S    
C28   H16   S    
C36   H40   S    
C17   O8    A    
C25   H9    S    
C23   H15   S    
C30   H27   S    
C5    C22   S    
C13   Cl3   S    
C2    C23   S    
Cu1   N1    S    
Cu2   O4    S    
Cu1   Cu2   S    
C9    C10   D    
C15   N2    D    
C35   H43   S    
C23   H14   S    
C30   C31   S    
C27   H19   S    
C18   H1    S    
C34   H32   S    
C19   C38   S    
C9    H2    S    
C17   O7    A    
C20   H5    S    
H3    N2    S    
C39   H48   S    
C25   H10   S    
C31   H23   S    
C19   C22   S    
C34   H31   S    
C32   C33   S    
C4    C5    S    
C26   H21   S    
Cu1   O3    S    
C6    C21   T    
C40   H46   S    
Cu2   N2    S    
C38   H50   S    
C31   H24   S    
C14   Cl4   S    
C36   H41   S    
C37   H38   S    
C30   H26   S    
C2    Cl1   S    
C8    C12   S    
C40   H45   S    
C3    C20   S    
C19   H4    S    
C9    C11   S    
C4    H8    S    
C16   O6    A    
C38   C39   S    
Cu1   O1    S    
C1    C13   S    
C3    C4    S    
C33   H34   S    
C23   C24   S    
C1    O1    A    
C37   H39   S    
C5    H6    S    
C26   C27   S    
C4    C26   S    
C18   C22   S    
C10   Cl2   S    
C34   H30   S    
Cu1   O7    S    
C7    C22   S    
C38   H49   S    
C28   H18   S    
C31   H25   S    
C2    C3    S    
C10   C16   S    
C39   C40   S    
C11   C13   D    
N1    Cl5   S    
C37   H37   S    
C24   H12   S    
Cu1   O5    S    
C27   H20   S    
C40   H44   S    
Cu2   O6    S    
C28   H17   S    
C39   H47   S    
C12   O4    A    
C17   C21   S    
C18   C35   S    
C29   H29   S    
C16   O5    A    
C33   C34   S    
C35   C36   S    
C29   C30   S    
C14   C15   S    
C5    H7    S    
C36   C37   S    
C11   C29   S    
C1    O2    A    
C20   Cl6   S    
