data_mof_unit_40039.cif
_audit_creation_date              2013-03-05T16:04:20-0500
_audit_creation_method            fapswitch 2.2
_symmetry_space_group_name_H-M    P1
_symmetry_Int_Tables_number       1
_space_group_crystal_system       triclinic
_cell_length_a                    9.5196
_cell_length_b                    10.883516
_cell_length_c                    13.450107
_cell_angle_alpha                 89.642923
_cell_angle_beta                  72.732751
_cell_angle_gamma                 90.305967
_cell_volume                      1330.65275347

loop_
_atom_site_label
_atom_site_type_symbol
_atom_site_description
_atom_site_fract_x
_atom_site_fract_y
_atom_site_fract_z
_atom_type_partial_charge
O1    O     O_R   0.381250 0.680340 0.500010 -0.593427
O2    O     O_R   0.618820 0.680370 0.500010 -0.585730
C1    C     C_R   0.500951 0.737613 0.498545 0.815691
O3    O     O_R   0.323240 0.499950 0.650980 -0.561378
O4    O     O_R   0.560810 0.499980 0.650980 -0.588200
C2    C     C_R   0.421335 0.495267 0.700254 0.795961
Cu1   Cu    Cu3+1 0.359340 0.499980 0.500000 0.952257
Cu2   Cu    Cu3+1 0.640660 0.500020 0.500000 0.948355
O5    O     O_R   0.381180 0.319630 0.499990 -0.581670
O6    O     O_R   0.618750 0.319660 0.499990 -0.578199
O7    O     O_R   0.439190 0.500020 0.349020 -0.596857
O8    O     O_R   0.676760 0.500050 0.349020 -0.597209
C3    C     C_R   0.503904 0.262168 0.490127 0.783628
C4    C     C_R   0.578429 0.498110 0.300102 0.782149
C5    C     C_R   0.786831 0.396175 0.031149 -0.106340
H1    H     H_    0.840374 0.414035 0.173960 0.147072
H2    H     H_    0.892324 0.355107 0.994310 0.211459
C6    C     C_R   0.622445 0.481425 0.187370 -0.038379
C7    C     C_R   0.234841 0.541063 0.867458 -0.121269
C8    C     C_R   0.192160 0.554629 0.974673 -0.158014
C9    C     C_R   0.290183 0.528391 0.030551 -0.169916
C10   C     C_R   0.433191 0.483580 0.979983 0.090006
C11   C     C_R   0.468338 0.454985 0.873042 -0.003685
C12   C     C_R   0.541929 0.465606 0.031939 0.016916
C13   C     C_R   0.679342 0.410642 0.978876 0.021057
C14   C     C_R   0.704091 0.369491 0.876036 0.420199
C15   C     C_R   0.596478 0.387882 0.826650 -0.288271
C16   C     C_R   0.518710 0.503212 0.135032 -0.213992
C17   C     C_R   0.758277 0.430930 0.134495 -0.249864
C18   C     C_R   0.373305 0.493103 0.815132 -0.074575
H3    H     H_    0.419706 0.549490 0.177494 0.141056
H4    H     H_    0.160191 0.570703 0.825179 0.170182
H5    H     H_    0.249079 0.542266 0.113319 0.119536
H6    H     H_    0.083889 0.589602 0.014464 0.147360
H7    H     H_    0.612785 0.346605 0.751460 0.218716
C19   C     C_R   0.634176 0.934398 0.482982 -0.202758
H8    H     H_    0.732133 0.883916 0.482710 0.152390
C20   C     C_R   0.642169 0.061344 0.468730 0.091130
C21   C     C_R   0.510043 0.127359 0.475369 -0.107810
C22   C     C_R   0.383124 0.059675 0.470637 0.134953
C23   C     C_R   0.382945 0.932412 0.479371 -0.206383
H9    H     H_    0.286949 0.880843 0.475668 0.167469
C24   C     C_R   0.504619 0.870615 0.490545 -0.094763
C25   C     C_R   0.892339 0.550133 0.580608 0.038333
H10   H     H_    0.810199 0.590910 0.645197 0.123501
C26   C     C_R   0.041075 0.550334 0.580465 0.057260
H11   H     H_    0.070168 0.591156 0.644815 0.122414
N1    N     N_R   0.147940 0.499970 0.499970 -0.162591
C27   C     C_R   0.107797 0.450967 0.418971 -0.057435
H12   H     H_    0.190073 0.411155 0.353948 0.120872
C28   C     C_R   0.959347 0.452107 0.418625 -0.046581
H13   H     H_    0.930802 0.415389 0.352824 0.134162
N2    N     N_R   0.852060 0.500060 0.499990 -0.161197
C29   C     C_3   0.796528 0.116394 0.432120 -0.374765
C30   C     C_3   0.833580 0.160047 0.318210 -0.340237
C31   C     C_3   0.999545 0.169216 0.266519 -0.880808
H14   H     H_    0.053130 0.223243 0.314870 0.238683
H15   H     H_    0.048241 0.075923 0.255727 0.257893
H16   H     H_    0.022027 0.214346 0.189036 0.251804
H17   H     H_    0.787909 0.094385 0.272540 0.230519
H18   H     H_    0.782727 0.250759 0.314644 0.219836
H19   H     H_    0.813120 0.190068 0.483816 0.235812
H20   H     H_    0.878734 0.045950 0.436279 0.192138
C32   C     C_3   0.250775 0.114543 0.446067 -0.438453
C33   C     C_3   0.123007 0.139530 0.544486 -0.218210
C34   C     C_3   0.048451 0.021459 0.597804 -0.821098
H21   H     H_    0.022618 0.958797 0.540669 0.222678
H22   H     H_    0.120484 0.973592 0.636890 0.246328
H23   H     H_    0.943971 0.043519 0.658000 0.290385
H24   H     H_    0.161138 0.194004 0.601213 0.267532
H25   H     H_    0.040663 0.195182 0.521157 0.223086
H26   H     H_    0.281249 0.198447 0.397160 0.184176
H27   H     H_    0.211559 0.051260 0.395084 0.182566
S1    S     S_3+6 0.868467 0.296135 0.804577 -0.065151
O9    O     O_2   0.862765 0.267527 0.696785 -0.346646
O10   O     O_2   0.997543 0.379523 0.796953 -0.353067
O11   O     O_3   0.888232 0.165118 0.865812 -0.550651
H28   H     H_    0.989106 0.137012 0.829324 0.368056

loop_
_geom_bond_atom_site_label_1
_geom_bond_atom_site_label_2
_geom_bond_distance
_ccdc_geom_bond_type
C34   H22   1.110136 S    
C30   C31   1.528022 S    
C23   H9    1.083741 S    
C4    C6    1.461039 S    
C7    C8    1.386315 A    
Cu1   Cu2   2.678053 S    
O11   H28   0.990852 S    
Cu1   O7    1.945546 S    
C1    C24   1.450322 S    
C14   C15   1.391133 A    
S1    O10   1.502045 D    
C19   H8    1.083942 S    
C20   C21   1.431784 A    
O7    C4    1.293447 A    
C5    C13   1.411936 A    
C34   H23   1.108748 S    
C9    H5    1.076727 S    
C29   H20   1.111397 S    
C33   H24   1.110482 S    
C31   H14   1.107870 S    
C5    H2    1.079795 S    
O5    C3    1.300167 A    
C26   H11   1.081199 S    
C25   N2    1.368106 A    
C27   C28   1.414688 A    
S1    O11   1.681454 S    
C32   H27   1.113137 S    
C11   C15   1.405018 A    
C8    H6    1.083003 S    
C34   H21   1.110435 S    
C30   H17   1.112539 S    
C23   C24   1.388144 A    
O3    Cu1   1.956406 S    
C7    H4    1.082815 S    
C25   C26   1.415330 A    
C5    C17   1.390126 A    
C26   N1    1.366392 A    
S1    O9    1.501330 D    
C28   H13   1.078355 S    
C11   C18   1.419693 A    
C6    C16   1.392873 A    
C12   C13   1.427521 A    
O3    C2    1.296665 A    
C21   C22   1.429408 A    
C29   H19   1.105504 S    
C15   H7    1.077903 S    
H1    C17   1.083036 S    
C33   H25   1.108386 S    
C28   N2    1.364698 A    
C20   C29   1.522509 S    
Cu2   O8    1.956407 S    
C6    C17   1.395107 A    
C22   C23   1.389262 A    
C2    C18   1.475480 S    
O8    C4    1.294286 A    
C27   H12   1.080631 S    
C10   C12   1.424082 A    
C25   H10   1.080894 S    
Cu1   O5    1.974922 S    
C29   C30   1.538117 S    
N1    C27   1.367326 A    
O1    Cu1   1.972898 S    
C16   H3    1.075751 S    
O2    Cu2   1.974924 S    
C12   C16   1.401843 A    
O6    C3    1.297775 A    
Cu2   N2    2.012401 S    
O4    Cu2   1.945545 S    
C22   C32   1.518528 S    
C31   H16   1.110507 S    
Cu1   N1    2.012563 S    
C19   C20   1.392238 A    
O2    C1    1.291509 A    
C13   C14   1.408817 A    
C32   C33   1.535514 S    
O4    C2    1.296625 A    
C30   H18   1.108892 S    
C14   S1    1.771946 S    
C31   H15   1.110779 S    
C32   H26   1.107768 S    
C3    C21   1.480921 S    
C8    C9    1.390560 A    
Cu2   O6    1.972898 S    
C33   C34   1.531645 S    
C10   C11   1.413746 A    
C19   C24   1.388831 A    
O1    C1    1.290867 A    
C9    C10   1.419630 A    
C7    C18   1.402294 A    
