data_mof_unit_37587.cif
_audit_creation_date              2013-03-05T15:48:44-0500
_audit_creation_method            fapswitch 2.2
_symmetry_space_group_name_H-M    P1
_symmetry_Int_Tables_number       1
_space_group_crystal_system       triclinic
_cell_length_a                    11.245143
_cell_length_b                    13.180029
_cell_length_c                    11.871951
_cell_angle_alpha                 98.809166
_cell_angle_beta                  93.942616
_cell_angle_gamma                 94.771789
_cell_volume                      1726.83091979

loop_
_atom_site_label
_atom_site_type_symbol
_atom_site_description
_atom_site_fract_x
_atom_site_fract_y
_atom_site_fract_z
_atom_type_partial_charge
O1    O     O_R   0.506640 0.354460 0.582000 -0.540797
O2    O     O_R   0.490840 0.341410 0.386200 -0.537007
C1    C     C_R   0.502696 0.299158 0.478236 0.946070
O3    O     O_R   0.325590 0.506510 0.597900 -0.533612
O4    O     O_R   0.309790 0.493450 0.402100 -0.520308
C2    C     C_R   0.260162 0.500331 0.499961 0.996355
Cu1   Cu    Cu3+1 0.509350 0.507730 0.615930 1.189434
Cu2   Cu    Cu3+1 0.490650 0.492270 0.384070 1.188273
O5    O     O_R   0.509160 0.658590 0.613800 -0.538915
O6    O     O_R   0.493360 0.645540 0.418000 -0.538447
O7    O     O_R   0.690210 0.506550 0.597900 -0.524781
O8    O     O_R   0.674410 0.493490 0.402100 -0.534482
C3    C     C_R   0.495710 0.700136 0.521036 0.950329
C4    C     C_R   0.740519 0.504063 0.501290 1.007175
C5    C     C_3   0.081777 0.482774 0.625232 0.368449
C6    C     C_3   0.937226 0.469227 0.620861 0.389368
C7    C     C_3   0.084619 0.617429 0.479790 0.373059
C8    C     C_3   0.052658 0.418788 0.399664 0.486765
C9    C     C_3   0.122690 0.505419 0.501449 -0.514997
C10   C     C_3   0.879464 0.505383 0.503128 -0.548361
C11   C     C_3   0.941736 0.621706 0.495416 0.372919
C12   C     C_3   0.910055 0.425655 0.392379 0.275907
C13   C     C_R   0.482658 0.812867 0.533981 -0.255784
C14   C     C_R   0.507463 0.184359 0.462492 -0.238589
C15   C     C_R   0.487330 0.012897 0.344521 0.300383
C16   C     C_R   0.501894 0.121445 0.352441 0.217807
C17   C     C_R   0.521976 0.135767 0.559236 0.419101
C18   C     C_R   0.493016 0.029255 0.551911 -0.166515
C19   C     C_R   0.474234 0.966989 0.443502 -0.173174
C20   C     C_R   0.453522 0.859118 0.437195 0.417624
C21   C     C_R   0.495429 0.876234 0.642944 0.229433
C22   C     C_R   0.488995 0.982375 0.650802 0.416816
N1    N     N_R   0.523430 0.519360 0.790130 -0.310971
N2    N     N_R   0.476570 0.480640 0.209880 -0.311034
C23   C     C_R   0.376289 0.406471 0.022164 0.350241
C24   C     C_R   0.398013 0.404469 0.140858 0.385444
C25   C     C_R   0.531556 0.556895 0.156358 0.487119
C26   C     C_R   0.515133 0.553846 0.034292 -0.234643
C27   C     C_R   0.449481 0.470414 0.966821 -0.231492
C28   C     C_R   0.461645 0.448924 0.846047 0.511849
C29   C     C_R   0.586023 0.605060 0.858718 0.370782
C30   C     C_R   0.568178 0.628430 0.975921 0.349850
N3    N     N_R   0.139162 0.563443 0.722401 0.213011
O9    O     O_R   0.220845 0.541070 0.795616 -0.224871
O10   O     O_R   0.105327 0.655532 0.745263 -0.160191
N4    N     N_R   0.864679 0.460296 0.283999 0.179420
O11   O     O_R   0.918614 0.535231 0.242345 -0.183664
O12   O     O_R   0.775208 0.407223 0.219568 -0.197668
Cl1   Cl    Cl    0.129613 0.639257 0.341780 -0.300173
N5    N     N_R   0.878709 0.672152 0.408502 0.210033
O13   O     O_R   0.765938 0.682940 0.418011 -0.291229
O14   O     O_R   0.935898 0.744131 0.363899 -0.117219
Cl2   Cl    Cl    0.365525 0.786462 0.318235 -0.335225
N6    N     N_R   0.511716 0.835023 0.747318 0.178318
O15   O     O_R   0.604386 0.870683 0.818272 -0.175189
O16   O     O_R   0.421236 0.785923 0.784735 -0.207727
N7    N     N_R   0.514319 0.950752 0.241335 0.197922
O17   O     O_R   0.431297 0.921306 0.158029 -0.138150
O18   O     O_R   0.626041 0.943828 0.222018 -0.161621
Cl3   Cl    Cl    0.459765 0.051373 0.784432 -0.218621
N8    N     N_R   0.527005 0.164294 0.250416 0.179524
O19   O     O_R   0.481419 0.117605 0.150533 -0.163107
O20   O     O_R   0.616996 0.232999 0.252613 -0.207523
Cl4   Cl    Cl    0.626167 0.195913 0.670960 -0.305614
N9    N     N_R   0.447103 0.342175 0.797116 0.169959
O21   O     O_R   0.495178 0.277735 0.855112 -0.216160
O22   O     O_R   0.361079 0.306476 0.719388 -0.223432
Cl5   Cl    Cl    0.139148 0.366091 0.661680 -0.291627
N10   N     N_R   0.689155 0.661834 0.823894 0.195632
O23   O     O_R   0.695977 0.683409 0.722058 -0.243085
O24   O     O_R   0.779139 0.696787 0.898747 -0.144873
Cl6   Cl    Cl    0.242607 0.342567 0.946209 -0.223007
Cl7   Cl    Cl    0.595373 0.759063 0.038909 -0.220715
N11   N     N_R   0.343860 0.314728 0.181310 0.179076
O25   O     O_R   0.315985 0.229200 0.110446 -0.169150
O26   O     O_R   0.302353 0.319741 0.280332 -0.254851
N12   N     N_R   0.624515 0.628349 0.217567 0.182442
O27   O     O_R   0.598076 0.718023 0.265430 -0.224000
O28   O     O_R   0.731566 0.622313 0.184114 -0.196976
N13   N     N_R   0.888501 0.362103 0.632974 0.193321
O29   O     O_R   0.817693 0.348279 0.712604 -0.160722
O30   O     O_R   0.924998 0.278802 0.578173 -0.175661
Cl8   Cl    Cl    0.894851 0.543653 0.751436 -0.286535
N14   N     N_R   0.154923 0.706563 0.552870 0.192081
O31   O     O_R   0.130682 0.799577 0.541166 -0.165920
O32   O     O_R   0.259200 0.697715 0.602181 -0.335954
Cl9   Cl    Cl    0.918657 0.713137 0.620071 -0.266571
Cl10  Cl    Cl    0.101390 0.416781 0.257246 -0.272010
Cl11  Cl    Cl    0.096151 0.292416 0.415285 -0.300742
N15   N     N_R   0.848702 0.320141 0.385894 0.202973
O33   O     O_R   0.753329 0.303595 0.438771 -0.341492
O34   O     O_R   0.868579 0.248523 0.302497 -0.119080

loop_
_geom_bond_atom_site_label_1
_geom_bond_atom_site_label_2
_geom_bond_distance
_ccdc_geom_bond_type
C11   Cl9   1.807830 S    
N2    C25   1.393707 A    
C29   C30   1.410181 A    
C23   C27   1.395675 A    
C23   C24   1.418145 A    
C14   C17   1.404590 A    
N7    O17   1.302124 A    
Cu1   Cu2   2.721065 S    
N12   O27   1.297760 A    
C5    C9    1.632413 S    
C2    C9    1.554099 S    
C19   C20   1.411063 A    
N11   O26   1.288806 A    
C18   C19   1.408836 A    
C16   N8    1.447689 S    
C14   C16   1.430651 A    
C26   C30   1.403671 A    
O4    C2    1.317104 A    
O7    C4    1.310499 A    
N7    O18   1.300602 A    
C5    C6    1.616807 S    
C3    C13   1.490711 S    
N8    O20   1.296702 A    
C8    C9    1.637386 S    
N10   O24   1.303552 A    
O5    C3    1.308107 A    
N4    O11   1.295774 A    
N9    O22   1.295075 A    
N5    O14   1.301212 A    
C6    C10   1.653264 S    
O1    Cu1   1.995704 S    
Cu1   N1    2.044361 S    
C1    C14   1.501806 S    
N10   O23   1.289515 A    
C15   N7    1.431361 S    
O3    Cu1   2.061240 S    
C11   N5    1.482241 S    
N4    O12   1.303791 A    
N12   O28   1.298154 A    
C15   C19   1.412583 A    
C20   Cl2   1.768250 S    
N6    O16   1.300764 A    
N1    C28   1.389285 A    
N11   O25   1.300468 A    
C13   C20   1.412526 A    
C4    C10   1.559723 S    
C18   C22   1.409606 A    
N14   O31   1.303481 A    
N13   O30   1.300012 A    
C7    Cl1   1.804835 S    
C27   C28   1.436601 A    
C15   C16   1.414269 A    
C25   N12   1.424725 S    
C6    Cl8   1.818227 S    
C8    Cl10  1.809930 S    
O1    C1    1.327727 A    
C13   C21   1.419559 A    
Cu1   O7    2.060704 S    
N3    O9    1.303820 A    
C25   C26   1.442185 A    
N15   O34   1.304036 A    
C21   C22   1.395986 A    
Cu2   O8    2.061239 S    
N5    O13   1.298415 A    
C12   N15   1.488683 S    
Cu2   N2    2.044245 S    
N3    O10   1.296816 A    
C24   N11   1.447355 S    
O3    C2    1.320337 A    
C12   N4    1.500929 S    
C10   C12   1.628011 S    
C23   Cl6   1.775573 S    
C28   N9    1.428999 S    
C22   Cl3   1.769581 S    
C29   N10   1.446422 S    
Cu1   O5    1.992545 S    
N6    O15   1.301145 A    
C30   Cl7   1.761748 S    
C8    C12   1.610787 S    
C8    Cl11  1.807055 S    
O2    Cu2   1.992545 S    
N14   O32   1.296377 A    
N13   O29   1.301165 A    
O6    C3    1.318176 A    
O4    Cu2   2.060703 S    
C7    N14   1.482184 S    
N1    C29   1.393377 A    
O2    C1    1.304011 A    
O8    C4    1.330747 A    
C5    N3    1.511769 S    
N15   O33   1.299018 A    
C26   C27   1.381917 A    
C5    Cl5   1.816331 S    
C7    C9    1.623304 S    
N2    C24   1.400233 A    
C21   N6    1.433694 S    
N8    O19   1.299238 A    
C7    C11   1.634650 S    
C17   Cl4   1.752193 S    
C10   C11   1.649981 S    
Cu2   O6    1.995704 S    
N9    O21   1.300762 A    
C17   C18   1.402497 A    
C6    N13   1.502889 S    
