data_mof_unit_66612.cif
_audit_creation_date              2013-03-05T16:02:35-0500
_audit_creation_method            fapswitch 2.2
_symmetry_space_group_name_H-M    P1
_symmetry_Int_Tables_number       1
_space_group_crystal_system       triclinic
_cell_length_a                    8.566182
_cell_length_b                    14.627359
_cell_length_c                    16.484924
_cell_angle_alpha                 106.371925
_cell_angle_beta                  82.128728
_cell_angle_gamma                 91.591322
_cell_volume                      1963.01716545

loop_
_atom_site_label
_atom_site_type_symbol
_atom_site_description
_atom_site_fract_x
_atom_site_fract_y
_atom_site_fract_z
_atom_type_partial_charge
P1    P     P_3+3 0.619500 0.379780 0.307000 0.680957
O1    O     O_2   0.449810 0.404330 0.292300 -0.330530
O2    O     O_3   0.665430 0.428070 0.399450 -0.266921
O3    O     O_3   0.183150 0.584440 0.337010 -0.308692
O4    O     O_2   0.335917 0.491883 0.190425 -0.253838
O5    O     O_3   0.623907 0.254137 0.275743 -0.502325
O6    O     O_3   0.237068 0.662610 0.197972 -0.563945
C1    C     C_3   0.030997 0.765600 0.185265 -0.125475
H1    H     H_    0.959563 0.703578 0.156202 0.036110
P2    P     P_3+3 0.105540 0.727570 0.557610 0.590929
P3    P     P_3+3 0.609886 0.763822 0.387439 0.531504
O7    O     O_2   0.286000 0.735700 0.531070 -0.332108
O8    O     O_3   0.580930 0.641410 0.378050 -0.385654
O9    O     O_2   0.458053 0.817516 0.437347 -0.300544
O10   O     O_3   0.086433 0.774446 0.667830 -0.472295
O11   O     O_3   0.612410 0.782659 0.286851 -0.532295
C2    C     C_3   0.616969 0.694429 0.224333 0.276913
H2    H     H_    0.513625 0.651085 0.237850 0.184140
H3    H     H_    0.726909 0.654622 0.221979 -0.001175
C3    C     C_3   0.610988 0.711910 0.137897 0.050383
H4    H     H_    0.714323 0.753903 0.121523 0.158632
C4    C     C_3   0.639152 0.814691 0.768929 0.833389
C5    C     C_3   0.513639 0.894958 0.813396 -0.162288
H5    H     H_    0.577937 0.962713 0.832739 0.244549
H6    H     H_    0.437832 0.900629 0.765616 0.207999
Ba1   Ba    Ba6+2 0.356390 0.534880 0.456030 1.843035
C6    C     C_3   0.520543 0.211605 0.327104 0.762120
H7    H     H_    0.407156 0.251188 0.348569 -0.030134
C7    C     C_3   0.490548 0.110088 0.273506 -0.776974
H8    H     H_    0.460849 0.111118 0.210731 0.260286
H9    H     H_    0.394301 0.076765 0.307350 0.224947
H10   H     H_    0.598580 0.065035 0.259689 0.296249
C8    C     C_3   0.147958 0.710399 0.703099 0.407932
H11   H     H_    0.266638 0.685960 0.668798 0.101302
H12   H     H_    0.066513 0.649516 0.699828 0.126111
C9    C     C_3   0.164530 0.760222 0.795586 -0.700295
H13   H     H_    0.123008 0.835557 0.815121 0.338811
H14   H     H_    0.289458 0.757582 0.801561 0.161824
H15   H     H_    0.101452 0.722573 0.839726 0.228726
P4    P     P_3+3 0.570190 0.620290 0.693000 0.583981
O12   O     O_2   0.739870 0.595710 0.707750 -0.316582
O13   O     O_3   0.524260 0.572010 0.600550 -0.303997
O14   O     O_3   0.006540 0.415640 0.663000 -0.268223
O15   O     O_3   0.576933 0.743853 0.700790 -0.616977
P5    P     P_3+3 0.583555 0.237147 0.619915 0.647964
O16   O     O_3   0.149240 0.378950 0.461440 -0.308374
O17   O     O_3   0.608760 0.358670 0.621950 -0.260935
O18   O     O_2   0.734189 0.182855 0.568805 -0.298144
O19   O     O_3   0.587518 0.225844 0.723421 -0.553563
Ba2   Ba    Ba6+2 0.833430 0.465200 0.543970 1.853293
P6    P     P_3+3 0.189159 0.557547 0.226547 0.601079
C10   C     C_3   0.129198 0.735993 0.245026 0.730052
H16   H     H_    0.044240 0.716413 0.294782 -0.064442
H17   H     H_    0.948522 0.824172 0.222969 0.150446
O20   O     O_3   0.040450 0.621130 0.538560 -0.353608
C11   C     C_3   0.101989 0.202219 0.258978 0.722277
C12   C     C_3   0.115004 0.106945 0.185872 -0.053303
H18   H     H_    0.123213 0.121774 0.122801 0.182889
H19   H     H_    0.222695 0.066813 0.185278 0.146804
P7    P     P_3+3 0.088795 0.256678 0.439271 0.561274
O21   O     O_2   0.903680 0.264350 0.468980 -0.242368
O22   O     O_3   0.126479 0.177981 0.333894 -0.677515
H20   H     H_    0.502177 0.752476 0.139954 0.221622
C13   C     C_3   0.437978 0.248756 0.772015 0.479256
H21   H     H_    0.350408 0.197485 0.741931 0.078130
C14   C     C_3   0.433134 0.243894 0.864740 0.462741
H22   H     H_    0.317740 0.272574 0.899867 0.124121
P8    P     P_3+3 0.989267 0.454888 0.775664 0.621949
C15   C     C_3   0.913061 0.281473 0.784264 0.679627
O23   O     O_2   0.824725 0.501073 0.813231 -0.337305
O24   O     O_3   0.006568 0.358642 0.819263 -0.576765
H23   H     H_    0.794937 0.308369 0.783375 0.111847
C16   C     C_3   0.900792 0.210674 0.838836 0.576129
H24   H     H_    0.852584 0.246406 0.905674 0.090233
C17   C     C_2   0.273473 0.545061 0.752500 0.108869
C18   C     C_R   0.879949 0.486828 0.251995 0.159224
C19   C     C_2   0.447573 0.619232 0.858670 -0.195725
C20   C     C_2   0.424153 0.590745 0.776295 0.095963
C21   C     C_2   0.155019 0.531822 0.812191 0.123577
C22   C     C_3   0.194167 0.543165 0.902000 0.009293
C23   C     C_3   0.317390 0.618678 0.930040 0.374504
C24   C     C_2   0.065096 0.535817 0.973604 -0.237175
C25   C     C_2   0.094338 0.491700 0.032372 0.524871
C26   C     C_R   0.837582 0.427136 0.080610 0.251477
C27   C     C_R   0.974458 0.477698 0.102716 -0.290723
C28   C     C_R   0.728380 0.401702 0.141914 -0.196889
C29   C     C_R   0.749741 0.429534 0.228216 0.192171
C30   C     C_R   0.001173 0.502823 0.189788 0.108304
H25   H     H_    0.558067 0.651048 0.875994 0.219862
H26   H     H_    0.628344 0.358803 0.121600 0.237854
H27   H     H_    0.951315 0.569388 0.979034 0.189910
C31   C     C_R   0.180514 0.954293 0.552966 0.372205
C32   C     C_R   0.006189 0.808376 0.510716 0.256894
C33   C     C_R   0.868144 0.771783 0.477641 -0.340591
C34   C     C_R   0.783415 0.820723 0.436926 0.213820
C35   C     C_R   0.834557 0.910577 0.430762 -0.203337
C36   C     C_R   0.968145 0.953093 0.467378 0.074003
C37   C     C_R   0.054185 0.904182 0.511012 -0.115556
H28   H     H_    0.823620 0.704603 0.485342 0.191091
C38   C     C_R   0.141911 0.092363 0.499147 -0.011005
C39   C     C_R   0.230631 0.044025 0.541393 0.004203
C40   C     C_R   0.180984 0.188880 0.500321 0.187472
C41   C     C_R   0.310033 0.231654 0.539280 -0.269903
C42   C     C_R   0.406506 0.180917 0.573248 0.238419
C43   C     C_R   0.365578 0.088687 0.575337 -0.200975
C44   C     C_R   0.012342 0.045239 0.462168 -0.010682
H29   H     H_    0.768859 0.947736 0.397839 0.204273
H30   H     H_    0.440501 0.053621 0.605080 0.204266
H31   H     H_    0.339571 0.304074 0.539953 0.187235
H32   H     H_    0.942332 0.080591 0.430085 0.208139
Cl1   Cl    Cl    0.235859 0.834474 0.301432 -0.587264
N1    N     N_R   0.411314 0.888672 0.891048 0.266500
O25   O     O_R   0.303819 0.954222 0.925941 -0.219298
O26   O     O_R   0.420369 0.819656 0.925455 -0.369240
N2    N     N_R   0.593523 0.208459 0.400654 0.187414
O27   O     O_R   0.610652 0.287623 0.458102 -0.369797
O28   O     O_R   0.649039 0.129557 0.407879 -0.436370
N3    N     N_R   0.127232 0.795762 0.117161 0.308598
O29   O     O_R   0.092582 0.765325 0.039747 -0.354545
O30   O     O_R   0.223096 0.866951 0.135249 -0.275786
N4    N     N_R   0.947679 0.243104 0.265211 0.217642
O31   O     O_R   0.897460 0.241532 0.193693 -0.414686
O32   O     O_R   0.906173 0.314526 0.331026 -0.329037
N5    N     N_R   0.219446 0.270244 0.239295 0.185060
O33   O     O_R   0.334845 0.242921 0.177314 -0.402227
O34   O     O_R   0.179876 0.359952 0.264187 -0.323895
N6    N     N_R   0.979554 0.045985 0.195488 0.282738
O35   O     O_R   0.889580 0.019923 0.135647 -0.267264
O36   O     O_R   0.953318 0.012991 0.261485 -0.384988
N7    N     N_R   0.391153 0.343188 0.774041 0.205666
O37   O     O_R   0.291766 0.349497 0.723474 -0.414467
O38   O     O_R   0.482293 0.414271 0.801858 -0.358379
Cl2   Cl    Cl    0.575393 0.317569 0.921007 -0.552437
N8    N     N_R   0.444949 0.146592 0.869643 0.266033
O39   O     O_R   0.457094 0.131758 0.942750 -0.247671
O40   O     O_R   0.407149 0.076248 0.807576 -0.352066
Cl3   Cl    Cl    0.996229 0.220596 0.679311 -0.550167
Cl4   Cl    Cl    0.083352 0.162575 0.844620 -0.497945
Cl5   Cl    Cl    0.784649 0.110753 0.796254 -0.439732
Cl6   Cl    Cl    0.265935 0.496154 0.642098 -0.550768
Cl7   Cl    Cl    0.883592 0.544950 0.360154 -0.573015
Cl8   Cl    Cl    0.277898 0.437285 0.020334 -0.482999
N9    N     N_R   0.233373 0.927844 0.622106 0.241732
O41   O     O_R   0.378342 0.899577 0.615912 -0.384019
O42   O     O_R   0.154484 0.960333 0.697775 -0.244170
Cl9   Cl    Cl    0.610733 0.601833 0.056820 -0.576595
N10   N     N_R   0.715504 0.783989 0.832403 0.215721
O43   O     O_R   0.714857 0.842725 0.908358 -0.289501
O44   O     O_R   0.835514 0.726806 0.807125 -0.395452
Cl10  Cl    Cl    0.787068 0.871319 0.713365 -0.493635

loop_
_geom_bond_atom_site_label_1
_geom_bond_atom_site_label_2
_geom_bond_distance
_ccdc_geom_bond_type
P1    C29   1.884669 S    
C4    Cl10  1.783849 S    
C32   C33   1.399666 A    
C6    C7    1.533973 S    
C16   H24   1.104728 S    
N10   O43   1.303020 A    
Ba1   O20   2.996788 S    
C8    C9    1.517552 S    
N1    O26   1.298467 A    
C36   C37   1.427257 A    
C31   C37   1.435900 A    
C19   C20   1.344947 D    
C5    N1    1.473084 S    
C19   H25   1.081052 S    
P5    O18   1.545157 D    
C11   N5    1.464473 S    
C9    H13   1.111237 S    
N10   O44   1.289979 A    
C26   C28   1.403012 A    
O6    C10   1.413193 S    
C7    H10   1.110895 S    
C17   Cl6   1.767441 S    
Ba1   Ba2   4.746161 S    
P3    O9    1.544269 D    
C12   H19   1.104565 S    
C16   Cl4   1.757688 S    
N2    O27   1.292164 A    
C2    C3    1.524598 S    
C11   C12   1.559483 S    
P7    O22   1.785139 S    
P1    O1    1.573260 D    
C15   O24   1.399230 S    
C31   N9    1.432979 S    
N3    O29   1.300404 A    
N1    O25   1.300454 A    
C2    H3    1.111394 S    
C14   N8    1.455191 S    
C4    O15   1.447961 S    
C34   C35   1.400298 A    
C1    H1    1.109709 S    
N2    O28   1.302244 A    
C5    H5    1.107658 S    
C15   C16   1.544689 S    
C19   C23   1.507782 S    
C18   C30   1.419430 A    
C3    Cl9   1.779421 S    
C18   Cl7   1.749863 S    
P2    Ba1   3.472151 S    
P8    C21   1.846191 S    
P4    O13   1.586901 S    
C14   H22   1.103500 S    
O19   C13   1.409397 S    
C15   Cl3   1.767198 S    
C33   C34   1.386679 A    
P7    C40   1.855742 S    
C42   C43   1.393100 A    
O2    Ba2   2.864976 S    
C8    H11   1.108991 S    
O17   Ba2   2.840714 S    
P5    O17   1.776099 S    
C39   C43   1.416095 A    
C43   H30   1.077805 S    
O3    P6    1.744985 S    
C1    N3    1.462944 S    
P1    O5    1.763298 S    
C26   C27   1.404100 A    
C22   C24   1.527988 S    
C28   H26   1.081895 S    
C1    H17   1.110240 S    
C28   C29   1.401391 A    
O14   P8    1.768964 S    
N8    O40   1.299690 A    
C16   Cl5   1.775083 S    
P2    C32   1.862832 S    
C9    H15   1.107427 S    
C24   H27   1.084901 S    
O7    Ba1   2.892769 S    
P7    O21   1.591592 D    
P1    O2    1.586925 S    
C13   C14   1.545001 S    
C15   H23   1.099228 S    
N7    O38   1.298116 A    
N6    O36   1.300026 A    
C7    H8    1.103168 S    
P5    C42   1.860675 S    
C14   Cl2   1.783231 S    
P3    O11   1.753106 S    
O5    C6    1.396037 S    
P5    O19   1.764957 S    
C35   C36   1.413744 A    
C38   C40   1.437244 A    
C2    H2    1.108943 S    
O1    Ba1   2.856510 S    
C3    H4    1.109746 S    
P2    O20   1.599271 S    
C18   C29   1.408093 A    
N4    O31   1.303327 A    
P2    O7    1.558556 D    
C31   C39   1.425098 A    
O13   Ba2   3.009432 S    
C36   C44   1.412610 A    
P4    O12   1.573594 D    
C25   C27   1.495748 S    
C35   H29   1.083352 S    
C13   N7    1.439116 S    
P1    Ba1   3.447862 S    
C11   O22   1.420148 S    
O8    Ba1   2.840045 S    
N6    O35   1.300936 A    
O12   Ba2   2.857067 S    
C6    H7    1.106999 S    
C10   H16   1.114355 S    
Ba1   O13   2.864298 S    
N5    O34   1.299305 A    
C44   H32   1.079380 S    
C27   C30   1.426755 A    
P3    C34   1.857027 S    
N9    O42   1.300505 A    
C1    C10   1.534091 S    
O16   P7    1.797874 S    
O2    Ba1   3.008482 S    
C22   C23   1.526087 S    
P6    C30   1.877051 S    
C12   N6    1.462302 S    
C25   Cl8   1.743678 S    
O3    Ba1   2.869922 S    
O14   Ba2   2.869372 S    
N8    O39   1.301280 A    
O16   Ba2   2.995838 S    
C38   C44   1.408748 A    
Ba2   O20   2.863872 S    
C10   Cl1   1.782964 S    
C41   H31   1.079607 S    
P2    O10   1.738031 S    
C11   N4    1.444831 S    
C3    H20   1.110307 S    
C9    H14   1.090748 S    
N7    O37   1.292417 A    
O6    P6    1.752763 S    
C7    H9    1.110665 S    
C13   H21   1.109988 S    
P3    O8    1.766693 S    
C12   H18   1.113233 S    
O11   C2    1.403986 S    
C33   H28   1.078637 S    
P8    O24   1.769654 S    
P4    Ba2   3.448435 S    
C38   C39   1.419486 A    
C8    H12   1.109711 S    
P4    C20   1.863109 S    
C5    H6    1.108550 S    
C40   C41   1.398396 A    
C17   C20   1.486425 S    
N3    O30   1.300818 A    
N4    O32   1.292650 A    
Ba1   O16   2.864532 S    
C21   C22   1.525213 S    
P4    O15   1.775364 S    
C4    N10   1.480886 S    
P8    O23   1.550656 D    
C24   C25   1.358542 D    
C41   C42   1.393693 A    
Ba2   O21   2.892856 S    
C4    C5    1.562325 S    
O4    P6    1.548270 D    
C17   C21   1.363237 D    
C32   C37   1.448318 A    
O10   C8    1.382706 S    
N9    O41   1.301353 A    
N5    O33   1.302308 A    
C6    N2    1.450402 S    
