data_mof_unit_11743.cif
_audit_creation_date              2012-12-10T18:57:04-0500
_audit_creation_method            fapswitch 2.2
_symmetry_space_group_name_H-M    P1
_symmetry_Int_Tables_number       1
_space_group_crystal_system       triclinic
_cell_length_a                    10.7099
_cell_length_b                    9.8457
_cell_length_c                    10.694159
_cell_angle_alpha                 90.090017
_cell_angle_beta                  90.165399
_cell_angle_gamma                 90.027855
_cell_volume                      1127.65500913

loop_
_atom_site_label
_atom_site_type_symbol
_atom_type_description
_atom_site_fract_x
_atom_site_fract_y
_atom_site_fract_z
_atom_type_partial_charge
C1    C     C_R   0.259933 0.499921 0.499563 0.901250
C2    C     C_R   0.740083 0.499970 0.499914 0.866958
C3    C     C_R   0.581835 0.072090 0.573468 0.463026
C4    C     C_R   0.418056 0.071786 0.426684 0.466393
C5    C     C_R   0.582187 0.928210 0.573052 0.462375
C6    C     C_R   0.417760 0.927934 0.427046 0.436678
C7    C     C_R   0.502136 0.499933 0.260100 0.942562
C8    C     C_R   0.502826 0.500260 0.739947 0.876766
C9    C     C_R   0.495516 0.621188 0.063488 0.101663
C10   C     C_R   0.501156 0.623169 0.936365 0.175931
C11   C     C_R   0.514934 0.500814 0.128517 -0.077248
C12   C     C_R   0.518209 0.502060 0.871419 -0.131256
C13   C     C_R   0.553625 0.383720 0.064699 -0.187890
C14   C     C_R   0.554489 0.384045 0.935250 -0.165781
C15   C     C_3   0.401458 0.729692 0.925879 -0.370523
C16   C     C_3   0.394749 0.727681 0.068733 -0.240535
C17   C     C_R   0.064018 0.380177 0.528444 -0.151339
C18   C     C_R   0.936113 0.380244 0.528709 -0.155033
C19   C     C_R   0.872546 0.499935 0.499392 -0.033399
C20   C     C_R   0.127492 0.499815 0.498907 -0.025856
C21   C     C_R   0.936009 0.619466 0.469394 -0.153897
C22   C     C_R   0.063955 0.619375 0.469044 -0.149681
H1    H     H_    0.576664 0.290876 0.113858 0.191642
H2    H     H_    0.577109 0.291079 0.885941 0.224525
H3    H     H_    0.316446 0.691485 0.876920 0.129372
H4    H     H_    0.427972 0.822119 0.115397 0.207436
H5    H     H_    0.112836 0.287358 0.552376 0.180875
H6    H     H_    0.887383 0.287462 0.552796 0.208312
H7    H     H_    0.887142 0.712264 0.445499 0.182474
H8    H     H_    0.112745 0.712086 0.444845 0.204421
N1    N     N_R   0.500000 0.857200 0.500000 -0.249634
N2    N     N_R   0.500000 0.142810 0.500000 -0.248638
O1    O     O_R   0.316770 0.614620 0.499990 -0.593094
O2    O     O_R   0.683230 0.614620 0.500010 -0.583946
O3    O     O_R   0.316800 0.385290 0.500000 -0.580043
O4    O     O_R   0.683200 0.385290 0.500000 -0.592261
O5    O     O_R   0.500000 0.614690 0.316780 -0.594738
O6    O     O_R   0.500000 0.614690 0.683220 -0.594019
O7    O     O_R   0.500020 0.385360 0.316780 -0.585301
O8    O     O_R   0.499980 0.385360 0.683220 -0.591751
Zn1   Zn    Zn3+2 0.500000 0.653120 0.500000 1.050667
Zn2   Zn    Zn3+2 0.500000 0.346880 0.500000 1.061775
C23   C     C_2   0.449046 0.861492 0.872701 0.560081
H9    H     H_    0.395796 0.912193 0.800060 0.022330
O9    O     O_2   0.546227 0.912566 0.910155 -0.510835
C24   C     C_2   0.268029 0.682504 0.114720 0.514903
H10   H     H_    0.192146 0.755408 0.115717 0.092264
O10   O     O_2   0.248399 0.566477 0.149691 -0.562033
F1    F     F_    0.663414 0.140263 0.647621 -0.600712
F2    F     F_    0.336151 0.139652 0.352905 -0.586471
F3    F     F_    0.664611 0.860291 0.646197 -0.574313
F4    F     F_    0.334825 0.859818 0.354514 -0.634453

loop_
_geom_bond_atom_site_label_1
_geom_bond_atom_site_label_2
_ccdc_geom_bond_type
C5    N1    A    
C23   H9    S    
C18   H6    S    
C22   H8    S    
C9    C10   A    
O4    Zn2   S    
C8    C12   S    
O1    Zn1   S    
C2    O2    A    
O8    Zn2   S    
C17   C18   A    
C3    F1    S    
C15   C23   S    
C21   C22   A    
C7    C11   S    
C23   O9    D    
C1    O3    A    
C4    N2    A    
O2    Zn1   S    
C10   C12   A    
C8    O6    A    
C19   C21   A    
C9    C16   S    
C12   C14   A    
C6    N1    A    
O7    Zn2   S    
C10   C15   S    
C9    C11   A    
O5    Zn1   S    
C3    N2    A    
C7    O5    A    
C24   O10   D    
C15   H3    S    
C20   C22   A    
C1    O1    A    
C15   C16   S    
C17   H5    S    
C11   C13   A    
C17   C20   A    
C2    O4    A    
C13   H1    S    
O6    Zn1   S    
C4    C6    A    
C18   C19   A    
C14   H2    S    
C8    O8    A    
O3    Zn2   S    
N2    Zn2   S    
C24   H10   S    
C16   C24   S    
C1    C20   S    
C7    O7    A    
N1    Zn1   S    
C6    F4    S    
C2    C19   S    
C13   C14   A    
C21   H7    S    
C5    F3    S    
C4    F2    S    
C3    C5    A    
C16   H4    S    
