data_mof_unit_45212.cif
_audit_creation_date              2012-12-10T17:09:50-0500
_audit_creation_method            fapswitch 2.2
_symmetry_space_group_name_H-M    P1
_symmetry_Int_Tables_number       1
_space_group_crystal_system       triclinic
_cell_length_a                    10.784846
_cell_length_b                    13.007826
_cell_length_c                    11.692351
_cell_angle_alpha                 100.037106
_cell_angle_beta                  93.357978
_cell_angle_gamma                 90.044423
_cell_volume                      1612.31119253

loop_
_atom_site_label
_atom_site_type_symbol
_atom_type_description
_atom_site_fract_x
_atom_site_fract_y
_atom_site_fract_z
_atom_type_partial_charge
C1    C     C_R   0.495279 0.298955 0.478201 0.834835
C2    C     C_R   0.067450 0.602015 0.567898 0.055401
C3    C     C_R   0.128729 0.515289 0.503310 -0.070178
C4    C     C_R   0.060874 0.433109 0.434802 -0.224509
C5    C     C_R   0.933107 0.431565 0.432595 -0.182737
C6    C     C_R   0.870792 0.511911 0.499433 -0.040104
C7    C     C_R   0.508506 0.813889 0.533681 -0.126403
C8    C     C_R   0.487813 0.184967 0.464401 -0.114833
C9    C     C_R   0.438385 0.013469 0.349216 0.117580
C10   C     C_R   0.443082 0.122683 0.358573 0.116272
C11   C     C_R   0.524781 0.138497 0.559847 -0.258145
C12   C     C_R   0.262643 0.506575 0.501515 0.888727
C13   C     C_R   0.519234 0.030620 0.552333 0.071417
C14   C     C_R   0.476416 0.967752 0.445963 0.062962
C15   C     C_R   0.472008 0.859790 0.438128 -0.212383
C16   C     C_R   0.549773 0.875813 0.639172 -0.278346
C17   C     C_R   0.555996 0.984656 0.649479 0.445342
C18   C     C_R   0.383153 0.401164 0.021875 0.287235
C19   C     C_R   0.394655 0.411530 0.144720 -0.066082
C20   C     C_R   0.550662 0.542503 0.157293 0.317178
C21   C     C_R   0.542315 0.535740 0.033913 -0.058675
C22   C     C_R   0.457767 0.464101 0.965904 0.006026
C23   C     C_R   0.504278 0.700724 0.521421 0.879788
C24   C     C_R   0.450279 0.457505 0.843011 0.101474
C25   C     C_R   0.604656 0.588978 0.855113 0.101734
C26   C     C_R   0.615910 0.598375 0.976614 -0.299342
C27   C     C_R   0.737415 0.502376 0.499533 0.780358
C28   C     C_R   0.131055 0.692573 0.630909 0.362563
C29   C     C_R   0.063411 0.774618 0.692418 -0.322815
C30   C     C_R   0.933828 0.770670 0.690020 0.425136
C31   C     C_R   0.871220 0.684180 0.626024 -0.198745
C32   C     C_R   0.935754 0.598966 0.565623 -0.051067
Cu1   Cu    Cu3+1 0.509250 0.507730 0.615930 0.972315
Cu2   Cu    Cu3+1 0.490750 0.492270 0.384070 0.978298
H1    H     H_    0.107602 0.368256 0.384260 0.144641
H2    H     H_    0.558763 0.187037 0.640531 0.224685
H3    H     H_    0.386071 0.403051 0.789114 0.172220
H4    H     H_    0.661587 0.637675 0.812581 0.132507
H5    H     H_    0.682156 0.654750 0.024374 0.144128
H6    H     H_    0.337486 0.364079 0.188518 0.149571
H7    H     H_    0.111988 0.842981 0.740698 0.132406
H8    H     H_    0.770927 0.685940 0.622845 0.158821
H9    H     H_    0.882536 0.365777 0.380889 0.145963
H10   H     H_    0.439264 0.810650 0.357455 0.200847
H11   H     H_    0.578503 0.839505 0.712955 0.168766
N1    N     N_R   0.523180 0.519350 0.790130 -0.201566
N2    N     N_R   0.476820 0.480650 0.209890 -0.188450
O1    O     O_R   0.506570 0.354460 0.582000 -0.603107
O2    O     O_R   0.490940 0.341410 0.386200 -0.551982
O3    O     O_R   0.327470 0.506530 0.597920 -0.549765
O4    O     O_R   0.311840 0.493480 0.402120 -0.596462
O5    O     O_R   0.509060 0.658590 0.613800 -0.576735
O6    O     O_R   0.493430 0.645540 0.418000 -0.567419
O7    O     O_R   0.688160 0.506520 0.597880 -0.593156
O8    O     O_R   0.672530 0.493470 0.402080 -0.558503
O9    O     O_3   0.597571 0.046978 0.752795 -0.734442
H12   H     H_    0.619669 0.002164 0.811247 0.334221
N3    N     N_3   0.400118 0.170502 0.261952 -0.584658
H13   H     H_    0.306797 0.150344 0.240416 0.204067
H14   H     H_    0.452349 0.142870 0.190672 0.225347
O10   O     O_3   0.300178 0.330653 0.955934 -0.738490
H15   H     H_    0.256035 0.292906 0.008440 0.321875
N4    N     N_3   0.636443 0.613742 0.228671 -0.521809
H16   H     H_    0.726310 0.595721 0.203189 0.202628
H17   H     H_    0.615467 0.689590 0.216121 0.198153
O11   O     O_3   0.258023 0.702397 0.628916 -0.732705
H18   H     H_    0.286558 0.769550 0.677215 0.323428
O12   O     O_3   0.865370 0.850985 0.747613 -0.741679
H19   H     H_    0.922953 0.906707 0.788521 0.328524
N5    N     N_3   0.394714 0.948558 0.242076 -0.617414
H20   H     H_    0.303576 0.968962 0.221049 0.223694
H21   H     H_    0.451048 0.961321 0.176053 0.221577

loop_
_geom_bond_atom_site_label_1
_geom_bond_atom_site_label_2
_ccdc_geom_bond_type
C16   H11   S    
C23   O5    A    
C6    C32   A    
C9    C14   A    
N4    H17   S    
C18   O10   S    
C23   O6    A    
C29   C30   A    
Cu2   N2    S    
C31   H8    S    
C25   H4    S    
C12   O3    A    
C1    C8    S    
C9    C10   A    
C28   O11   S    
C31   C32   A    
C13   C17   A    
C21   C26   A    
C24   N1    A    
C12   O4    A    
C20   N4    S    
C7    C15   A    
C24   H3    S    
C5    H9    S    
C4    H1    S    
Cu2   O8    S    
C1    O1    A    
C25   C26   A    
C18   C22   A    
C13   C14   A    
C9    N5    S    
Cu1   O5    S    
Cu1   N1    S    
C11   C13   A    
C17   O9    S    
Cu2   O4    S    
O10   H15   S    
C8    C11   A    
C7    C23   S    
C5    C6    A    
C2    C32   A    
C28   C29   A    
C10   N3    S    
Cu1   Cu2   S    
C15   H10   S    
C2    C3    A    
C22   C24   A    
C30   C31   A    
C27   O8    A    
C26   H5    S    
C27   O7    A    
C20   N2    A    
N5    H21   S    
C19   H6    S    
N4    H16   S    
N3    H14   S    
C3    C4    A    
N5    H20   S    
O11   H18   S    
C20   C21   A    
Cu2   O6    S    
C8    C10   A    
C18   C19   A    
C19   N2    A    
Cu1   O7    S    
O9    H12   S    
Cu1   O1    S    
C14   C15   A    
C7    C16   A    
Cu2   O2    S    
C2    C28   A    
C3    C12   S    
Cu1   O3    S    
C29   H7    S    
N3    H13   S    
C21   C22   A    
C1    O2    A    
C25   N1    A    
O12   H19   S    
C30   O12   S    
C6    C27   S    
C16   C17   A    
C4    C5    A    
C11   H2    S    
