data_mof_unit_27409.cif
_audit_creation_date              2012-12-10T17:48:47-0500
_audit_creation_method            fapswitch 2.2
_symmetry_space_group_name_H-M    P1
_symmetry_Int_Tables_number       1
_space_group_crystal_system       triclinic
_cell_length_a                    15.727281
_cell_length_b                    10.676934
_cell_length_c                    9.888704
_cell_angle_alpha                 88.912423
_cell_angle_beta                  89.619939
_cell_angle_gamma                 91.762018
_cell_volume                      1659.37526943

loop_
_atom_site_label
_atom_site_type_symbol
_atom_type_description
_atom_site_fract_x
_atom_site_fract_y
_atom_site_fract_z
_atom_type_partial_charge
C1    C     C_R   0.507480 0.260028 0.501787 0.888134
C2    C     C_R   0.483099 0.041235 0.874101 -0.196851
C3    C     C_R   0.431496 0.934375 0.860424 -0.143344
C4    C     C_R   0.338326 0.499233 0.500512 0.871303
C5    C     C_R   0.420155 0.881220 0.733388 0.147104
C6    C     C_R   0.464800 0.935156 0.618930 0.069184
C7    C     C_R   0.499578 0.056655 0.628603 0.024121
C8    C     C_R   0.515835 0.125573 0.506329 -0.263480
C9    C     C_R   0.523799 0.063175 0.382761 0.454774
C10   C     C_R   0.506988 0.936711 0.379997 -0.285250
C11   C     C_R   0.480682 0.871854 0.497471 -0.214406
C12   C     C_3   0.949376 0.453183 0.644355 0.402822
C13   C     C_R   0.388362 0.334985 0.144166 -0.127487
C14   C     C_R   0.332982 0.253281 0.075836 0.119726
C15   C     C_R   0.333491 0.254601 0.935519 -0.206032
C16   C     C_R   0.491443 0.739008 0.499113 0.907260
C17   C     C_R   0.388565 0.335906 0.863663 -0.190417
C18   C     C_R   0.445110 0.418852 0.929697 0.137167
C19   C     C_R   0.445076 0.418681 0.074287 0.101982
C20   C     C_R   0.552554 0.578282 0.069589 0.146264
C21   C     C_R   0.552377 0.577885 0.925860 -0.183605
C22   C     C_R   0.661611 0.500179 0.499481 0.903996
C23   C     C_3   0.916974 0.495922 0.500982 0.053606
C24   C     C_3   0.047859 0.455282 0.643156 -0.434540
C25   C     C_3   0.048058 0.404867 0.395156 -0.486754
C26   C     C_3   0.949175 0.402079 0.393526 0.371076
C27   C     C_1   0.750360 0.498872 0.498466 -0.193023
C28   C     C_3   0.082600 0.497579 0.502449 0.170249
C29   C     C_3   0.856698 0.327809 0.780709 0.120975
C30   C     C_3   0.816822 0.196636 0.794465 -0.814350
C31   C     C_3   0.633930 0.142352 0.254320 0.123905
C32   C     C_3   0.656599 0.220863 0.128529 -0.821645
C33   C     C_3   0.907329 0.209882 0.302434 0.078598
C34   C     C_3   0.955028 0.628789 0.456516 0.215164
C35   C     C_3   0.876269 0.077075 0.338578 -0.771967
C36   C     C_3   0.911593 0.747865 0.646389 0.128439
C37   C     C_3   0.896927 0.883730 0.680977 -0.828870
C38   C     C_3   0.052909 0.631974 0.470312 -0.500221
C39   C     C_1   0.825594 0.497469 0.498869 -0.016844
C40   C     C_1   0.174064 0.497609 0.502512 -0.030607
C41   C     C_1   0.249416 0.498250 0.501701 -0.195937
C42   C     C_R   0.515933 0.103535 0.759254 -0.150883
H1    H     H_    0.072449 0.520150 0.721729 0.128897
H2    H     H_    0.291274 0.191426 0.881345 0.162830
H3    H     H_    0.385392 0.330158 0.756558 0.220554
H4    H     H_    0.594927 0.641354 0.869430 0.154299
H5    H     H_    0.072797 0.433567 0.293097 0.135608
H6    H     H_    0.071492 0.309353 0.417510 0.207896
H7    H     H_    0.928078 0.436156 0.291768 0.000770
H8    H     H_    0.074920 0.697193 0.549813 0.196621
H9    H     H_    0.082547 0.667517 0.373798 0.172113
H10   H     H_    0.805185 0.393885 0.757374 0.133452
H11   H     H_    0.886510 0.353158 0.878612 0.111795
H12   H     H_    0.930197 0.519861 0.722663 -0.024590
H13   H     H_    0.865958 0.129166 0.824267 0.252013
H14   H     H_    0.766077 0.194877 0.872996 0.195402
H15   H     H_    0.788475 0.168130 0.696700 0.265161
H16   H     H_    0.659478 0.192795 0.343782 0.133755
H17   H     H_    0.664928 0.050313 0.246618 0.128428
H18   H     H_    0.627288 0.313865 0.134436 0.269654
H19   H     H_    0.726601 0.234810 0.120356 0.189951
H20   H     H_    0.633319 0.172808 0.036760 0.235675
H21   H     H_    0.342485 0.764582 0.620725 0.176768
H22   H     H_    0.375975 0.703195 0.771085 0.226447
H23   H     H_    0.944174 0.636345 0.345506 0.122668
H24   H     H_    0.671043 0.643596 0.109509 0.158872
H25   H     H_    0.596082 0.753565 0.106710 0.158775
H26   H     H_    0.285381 0.173567 0.252129 0.175231
H27   H     H_    0.214131 0.195439 0.129127 0.173550
H28   H     H_    0.969271 0.205276 0.247834 0.127915
H29   H     H_    0.859648 0.252865 0.234799 0.123856
H30   H     H_    0.815160 0.079064 0.395374 0.240381
H31   H     H_    0.866298 0.023003 0.244876 0.197583
H32   H     H_    0.924197 0.029850 0.401936 0.276345
H33   H     H_    0.971395 0.720579 0.696315 0.122806
H34   H     H_    0.555947 0.186025 0.774787 0.172165
H35   H     H_    0.856619 0.691133 0.687501 0.137206
H36   H     H_    0.837251 0.915605 0.633731 0.261283
H37   H     H_    0.891543 0.892728 0.792376 0.196412
H38   H     H_    0.951078 0.944340 0.643602 0.265434
H39   H     H_    0.494047 0.079438 0.973287 0.194435
H40   H     H_    0.399828 0.892908 0.948758 0.152452
H41   H     H_    0.517658 0.889120 0.285816 0.186427
H42   H     H_    0.071450 0.360689 0.669770 0.208329
H43   H     H_    0.384813 0.330678 0.251358 0.199865
N1    N     N_R   0.499210 0.498800 0.142780 -0.116781
N2    N     N_R   0.499180 0.498720 0.857170 -0.127699
N3    N     N_3   0.355428 0.784092 0.721725 -0.464102
N4    N     N_3   0.608815 0.662268 0.138990 -0.394959
N5    N     N_3   0.276158 0.167454 0.147803 -0.452070
O1    O     O_R   0.500000 0.316780 0.614690 -0.652530
O2    O     O_3   0.544675 0.125023 0.262261 -0.599364
O3    O     O_3   0.916117 0.278973 0.422176 -0.529387
O4    O     O_3   0.914680 0.737443 0.504488 -0.592416
O5    O     O_R   0.499990 0.316750 0.385360 -0.583823
O6    O     O_R   0.377150 0.500020 0.614720 -0.644900
O7    O     O_R   0.377140 0.499990 0.385380 -0.637214
O8    O     O_R   0.500010 0.683250 0.614640 -0.623479
O9    O     O_R   0.500000 0.683220 0.385310 -0.598952
O10   O     O_R   0.622860 0.500010 0.614620 -0.621450
O11   O     O_R   0.622850 0.499980 0.385280 -0.594694
O12   O     O_3   0.919037 0.329220 0.677038 -0.539936
Zn1   Zn    Zn3+2 0.500010 0.500020 0.653130 0.910545
Zn2   Zn    Zn3+2 0.499990 0.499980 0.346870 0.958389

loop_
_geom_bond_atom_site_label_1
_geom_bond_atom_site_label_2
_ccdc_geom_bond_type
C21   N2    A    
C35   H32   S    
H21   N3    S    
C1    C8    S    
C19   N1    A    
N1    Zn2   S    
C7    C8    A    
C25   C28   S    
C37   H37   S    
C12   C23   S    
C22   O11   A    
C31   H16   S    
C36   C37   S    
C17   H3    S    
C15   H2    S    
C36   H35   S    
C5    C6    A    
C23   C26   S    
C4    C41   S    
C28   C40   S    
O8    Zn1   S    
C30   H15   S    
C10   H41   S    
H25   N4    S    
C9    O2    S    
C18   C19   A    
C7    C42   A    
C31   H17   S    
C14   N5    S    
C4    O6    A    
C5    N3    S    
C27   C39   T    
C8    C9    A    
C20   N1    A    
H26   N5    S    
C9    C10   A    
C25   H5    S    
C26   O3    S    
O9    Zn2   S    
C1    O1    A    
C13   C14   A    
C34   H23   S    
H24   N4    S    
C37   H38   S    
C22   O10   A    
C13   C19   A    
C34   O4    S    
C26   H7    S    
C6    C11   A    
C38   H9    S    
C25   C26   S    
C30   H14   S    
O10   Zn1   S    
C12   O12   S    
C29   C30   S    
C36   H33   S    
C11   C16   S    
C31   C32   S    
C28   C38   S    
C1    O5    A    
C23   C34   S    
C3    H40   S    
C17   C18   A    
C25   H6    S    
C33   H28   S    
N2    Zn1   S    
C40   C41   T    
C35   H30   S    
O11   Zn2   S    
C22   C27   S    
C32   H18   S    
H27   N5    S    
O5    Zn2   S    
C21   H4    S    
C20   N4    S    
C15   C17   A    
C35   H31   S    
C34   C38   S    
C24   C28   S    
O1    Zn1   S    
C3    C5    A    
C33   O3    S    
C32   H19   S    
C16   O9    A    
C6    C7    A    
C38   H8    S    
C30   H13   S    
C12   C24   S    
C42   H34   S    
C18   N2    A    
C2    C3    A    
C24   H42   S    
C32   H20   S    
C16   O8    A    
C29   H11   S    
C2    C42   A    
C23   C39   S    
C33   C35   S    
C29   O12   S    
O7    Zn2   S    
C10   C11   A    
C33   H29   S    
C36   O4    S    
C20   C21   A    
C31   O2    S    
O6    Zn1   S    
C13   H43   S    
C24   H1    S    
C14   C15   A    
C2    H39   S    
C4    O7    A    
C37   H36   S    
H22   N3    S    
C12   H12   S    
C29   H10   S    
