data_mof_unit_6311.cif
_audit_creation_date              2012-12-10T19:54:20-0500
_audit_creation_method            fapswitch 2.2
_symmetry_space_group_name_H-M    P1
_symmetry_Int_Tables_number       1
_space_group_crystal_system       triclinic
_cell_length_a                    15.705037
_cell_length_b                    14.67013
_cell_length_c                    14.181431
_cell_angle_alpha                 89.436315
_cell_angle_beta                  89.83862
_cell_angle_gamma                 90.319388
_cell_volume                      3267.10751333

loop_
_atom_site_label
_atom_site_type_symbol
_atom_type_description
_atom_site_fract_x
_atom_site_fract_y
_atom_site_fract_z
_atom_type_partial_charge
C1    C     C_R   0.502134 0.326612 0.500623 0.941972
C2    C     C_R   0.599433 0.894495 0.571590 0.489312
C3    C     C_R   0.573674 0.049763 0.508549 -0.022290
C4    C     C_R   0.574196 0.951600 0.497090 -0.017068
C5    C     C_R   0.456570 0.432828 0.105856 -0.379420
C6    C     C_R   0.564407 0.544771 0.894068 -0.381341
C7    C     C_R   0.454680 0.435106 0.205426 0.683780
C8    C     C_R   0.564161 0.543779 0.794101 0.690751
C9    C     C_R   0.542609 0.566625 0.204074 -0.084695
C10   C     C_R   0.436453 0.456790 0.796011 -0.093694
C11   C     C_R   0.541760 0.569565 0.105038 -0.292875
C12   C     C_R   0.502628 0.673485 0.499448 0.940419
C13   C     C_R   0.434588 0.456975 0.894972 -0.293023
C14   C     C_R   0.499202 0.501313 0.053404 0.115031
C15   C     C_R   0.499451 0.500870 0.946475 0.115284
C16   C     C_R   0.337800 0.499657 0.500155 0.914638
C17   C     C_R   0.662126 0.499602 0.499849 0.880678
C18   C     C_3   0.970408 0.434578 0.567024 -0.328803
C19   C     C_3   0.028882 0.552573 0.432743 -0.308952
C20   C     C_3   0.028127 0.408195 0.482493 -0.327551
C21   C     C_3   0.971367 0.578976 0.517290 -0.319687
C22   C     C_1   0.248866 0.497661 0.500750 -0.177292
C23   C     C_R   0.499670 0.175709 0.580801 0.502886
C24   C     C_1   0.750877 0.496949 0.499264 -0.182475
C25   C     C_3   0.025925 0.519842 0.583574 0.588256
C26   C     C_3   0.973381 0.467427 0.416309 0.594000
C27   C     C_3   0.082686 0.494005 0.500672 0.077896
C28   C     C_3   0.916793 0.493341 0.499208 0.076282
C29   C     C_1   0.173544 0.495753 0.501252 0.000468
C30   C     C_1   0.826084 0.494677 0.498714 -0.011417
C31   C     C_R   0.523287 0.084351 0.581328 -0.282679
C32   C     C_R   0.529396 0.916453 0.420256 -0.291642
C33   C     C_3   0.004860 0.419845 0.264332 0.059604
C34   C     C_R   0.505829 0.824540 0.418463 0.511316
C35   C     C_3   0.004839 0.490628 0.184391 -0.322265
C36   C     C_3   0.073969 0.470790 0.111662 -0.978994
C37   C     C_3   0.992207 0.557264 0.736383 0.068216
C38   C     C_3   0.025760 0.603235 0.825130 -0.297144
C39   C     C_3   0.955632 0.613000 0.899076 -1.003550
C40   C     C_3   0.487411 0.210071 0.736764 -0.271966
C41   C     C_3   0.493911 0.807061 0.257767 -0.287525
C42   C     C_3   0.741539 0.076943 0.394257 0.069470
C43   C     C_3   0.782836 0.169312 0.369780 -0.340742
C44   C     C_3   0.877710 0.169933 0.392766 -0.951385
C45   C     C_R   0.522718 0.230557 0.502868 -0.209763
C46   C     C_3   0.732369 0.917097 0.632691 0.077402
C47   C     C_3   0.763920 0.831135 0.683823 -0.339502
C48   C     C_3   0.860672 0.823449 0.678622 -0.979401
C49   C     C_3   0.323220 0.377199 0.240535 -0.320593
C50   C     C_3   0.707318 0.573823 0.770039 -0.371425
C51   C     C_R   0.523795 0.769895 0.497955 -0.217073
C52   C     C_R   0.575560 0.196549 0.431806 -0.353035
C53   C     C_R   0.571211 0.804746 0.573221 -0.358574
C54   C     C_R   0.604223 0.107333 0.436281 0.497599
H1    H     H_    0.053158 0.339354 0.466759 0.156298
H2    H     H_    0.507068 0.962191 0.365370 0.186006
H3    H     H_    0.596278 0.239783 0.373628 0.199025
H4    H     H_    0.586836 0.762146 0.633446 0.223032
H5    H     H_    0.425645 0.376665 0.070750 0.150505
H6    H     H_    0.615103 0.580001 0.929993 0.146225
H7    H     H_    0.991424 0.351642 0.234228 0.163056
H8    H     H_    0.069825 0.416161 0.295957 0.120096
H9    H     H_    0.941747 0.490269 0.149048 0.232562
H10   H     H_    0.015920 0.559575 0.213773 0.215659
H11   H     H_    0.137807 0.472234 0.145214 0.259652
H12   H     H_    0.946193 0.647832 0.532756 0.157680
H13   H     H_    0.072510 0.523375 0.054875 0.274327
H14   H     H_    0.063141 0.402894 0.079701 0.265554
H15   H     H_    0.967019 0.488604 0.756143 0.139199
H16   H     H_    0.939470 0.599522 0.707314 0.125701
H17   H     H_    0.078424 0.562057 0.855423 0.228395
H18   H     H_    0.051129 0.671970 0.806380 0.230130
H19   H     H_    0.902459 0.654492 0.870543 0.263037
H20   H     H_    0.981680 0.647511 0.962163 0.271790
H21   H     H_    0.930930 0.544838 0.920805 0.268275
H22   H     H_    0.446573 0.245815 0.788358 0.183978
H23   H     H_    0.576807 0.618479 0.242495 0.154234
H24   H     H_    0.548842 0.248229 0.732067 0.159496
H25   H     H_    0.497993 0.139960 0.764557 0.160712
H26   H     H_    0.465025 0.760278 0.205696 0.191783
H27   H     H_    0.563735 0.793851 0.258317 0.143146
H28   H     H_    0.480844 0.877702 0.233238 0.168432
H29   H     H_    0.775832 0.022798 0.355546 0.166663
H30   H     H_    0.749651 0.061115 0.470851 0.111831
H31   H     H_    0.774308 0.184253 0.293411 0.237127
H32   H     H_    0.751728 0.224127 0.410650 0.215446
H33   H     H_    0.887579 0.156340 0.469147 0.260566
H34   H     H_    0.386260 0.422672 0.757723 0.174055
H35   H     H_    0.905357 0.237821 0.374948 0.283558
H36   H     H_    0.911355 0.117398 0.351121 0.259476
H37   H     H_    0.765293 0.977331 0.662822 0.163982
H38   H     H_    0.751044 0.915094 0.556634 0.107478
H39   H     H_    0.743927 0.832891 0.759029 0.239039
H40   H     H_    0.735650 0.769645 0.651070 0.222458
H41   H     H_    0.881887 0.819451 0.603989 0.263695
H42   H     H_    0.881253 0.760712 0.716337 0.261571
H43   H     H_    0.891308 0.883209 0.712346 0.270735
H44   H     H_    0.288834 0.334350 0.293269 0.193246
H45   H     H_    0.573895 0.625815 0.070076 0.147815
H46   H     H_    0.305711 0.351954 0.169523 0.148787
H47   H     H_    0.301011 0.448622 0.249593 0.160630
H48   H     H_    0.751215 0.592409 0.711393 0.194519
H49   H     H_    0.716874 0.500001 0.785787 0.156489
H50   H     H_    0.725567 0.616095 0.831353 0.164605
H51   H     H_    0.381368 0.424114 0.930137 0.151217
H52   H     H_    0.944273 0.387237 0.621503 0.150127
H53   H     H_    0.054946 0.599503 0.377877 0.155172
H54   H     H_    0.497257 0.038943 0.634961 0.189791
N1    N     N_R   0.500000 0.499980 0.252470 -0.127243
N2    N     N_R   0.500000 0.500020 0.747530 -0.129965
O1    O     O_R   0.500010 0.369070 0.579480 -0.599182
O2    O     O_3   0.059322 0.548781 0.670642 -0.635345
O3    O     O_3   0.445007 0.208650 0.649180 -0.597156
O4    O     O_3   0.455636 0.790011 0.346478 -0.590291
O5    O     O_3   0.655430 0.074614 0.364850 -0.645509
O6    O     O_3   0.643855 0.928642 0.647657 -0.647198
O7    O     O_3   0.411503 0.368703 0.256531 -0.582272
O8    O     O_3   0.623227 0.593389 0.741441 -0.593566
O9    O     O_R   0.499990 0.630930 0.420520 -0.587021
O10   O     O_R   0.500010 0.369060 0.420520 -0.576148
O11   O     O_R   0.499990 0.630940 0.579480 -0.596628
O12   O     O_R   0.376780 0.500000 0.579460 -0.614843
O13   O     O_R   0.623220 0.500000 0.420540 -0.625836
O14   O     O_R   0.376780 0.499990 0.420510 -0.598572
O15   O     O_R   0.623220 0.500010 0.579490 -0.581607
O16   O     O_3   0.939052 0.439637 0.329284 -0.645823
Zn1   Zn    Zn3+2 0.500000 0.500010 0.606140 0.992878
Zn2   Zn    Zn3+2 0.500000 0.499990 0.393860 0.995842

loop_
_geom_bond_atom_site_label_1
_geom_bond_atom_site_label_2
_ccdc_geom_bond_type
C50   H50   S    
C23   C45   A    
C48   H41   S    
C37   H15   S    
C21   H12   S    
C27   C29   S    
C31   H54   S    
C7    O7    S    
C35   C36   S    
C41   O4    S    
C17   O15   A    
C41   H26   S    
C36   H13   S    
C8    O8    S    
C48   H43   S    
C10   H34   S    
C34   C51   A    
C22   C29   T    
O11   Zn1   S    
C49   H47   S    
C38   C39   S    
C11   C14   A    
C46   H38   S    
C11   H45   S    
C26   O16   S    
C39   H20   S    
O12   Zn1   S    
C19   C26   S    
C16   O12   A    
C37   O2    S    
C25   O2    S    
C33   C35   S    
C6    C15   A    
C38   H17   S    
C2    O6    S    
C17   O13   A    
C49   O7    S    
C12   O11   A    
C40   O3    S    
C33   H8    S    
C35   H10   S    
C39   H21   S    
C44   H33   S    
C19   C27   S    
N2    Zn1   S    
O14   Zn2   S    
O9    Zn2   S    
C49   H44   S    
C50   H49   S    
C37   H16   S    
C18   C25   S    
C20   H1    S    
C52   C54   A    
C9    N1    A    
C38   H18   S    
C17   C24   S    
C5    H5    S    
C43   H31   S    
C6    H6    S    
C18   C28   S    
C13   H51   S    
C5    C7    A    
C36   H11   S    
C6    C8    A    
C46   H37   S    
C45   C52   A    
C10   C13   A    
C7    N1    A    
C51   C53   A    
C1    O10   A    
C32   C34   A    
C2    C4    A    
C43   C44   S    
C18   H52   S    
C37   C38   S    
C8    N2    A    
C23   O3    S    
C12   O9    A    
N1    Zn2   S    
C47   C48   S    
C41   H27   S    
C54   O5    S    
C36   H14   S    
C47   H39   S    
C40   H25   S    
C42   H30   S    
C9    H23   S    
C3    C31   A    
C9    C11   A    
C5    C14   A    
C4    C32   A    
C21   C28   S    
C50   H48   S    
C13   C15   A    
O1    Zn1   S    
C40   H24   S    
C34   O4    S    
C42   C43   S    
C3    C4    S    
C12   C51   S    
C44   H36   S    
C21   C25   S    
C46   C47   S    
C16   C22   S    
C48   H42   S    
C19   C21   S    
C50   O8    S    
C43   H32   S    
C42   H29   S    
C2    C53   A    
C53   H4    S    
O10   Zn2   S    
C20   C27   S    
C25   C27   S    
C26   C28   S    
C46   O6    S    
C28   C30   S    
C16   O14   A    
C1    O1    A    
C49   H46   S    
C1    C45   S    
O13   Zn2   S    
C20   C26   S    
C41   H28   S    
C33   O16   S    
C3    C54   A    
C47   H40   S    
C10   N2    A    
C18   C20   S    
C39   H19   S    
C24   C30   T    
C52   H3    S    
C40   H22   S    
C42   O5    S    
C33   H7    S    
O15   Zn1   S    
C14   C15   S    
C35   H9    S    
C32   H2    S    
C44   H35   S    
C23   C31   A    
C19   H53   S    
