data_mof_unit_21304.cif
_audit_creation_date              2012-12-11T16:26:35-0500
_audit_creation_method            fapswitch 2.2
_symmetry_space_group_name_H-M    P1
_symmetry_Int_Tables_number       1
_space_group_crystal_system       triclinic
_cell_length_a                    6.965625
_cell_length_b                    17.510385
_cell_length_c                    19.443383
_cell_angle_alpha                 108.464959
_cell_angle_beta                  89.740284
_cell_angle_gamma                 91.006105
_cell_volume                      2249.08445882

loop_
_atom_site_label
_atom_site_type_symbol
_atom_type_description
_atom_site_fract_x
_atom_site_fract_y
_atom_site_fract_z
_atom_type_partial_charge
O1    O     O_R   0.494330 0.415720 0.413720 -0.542528
O2    O     O_R   0.819330 0.430070 0.560210 -0.530685
O3    O     O_R   0.994320 0.584280 0.586280 -0.536525
C1    C     C_R   0.649871 0.413171 0.580055 0.732641
O4    O     O_R   0.823730 0.406300 0.412670 -0.530835
O5    O     O_R   0.998760 0.560340 0.437690 -0.544111
C2    C     C_R   0.653947 0.382874 0.385536 0.693364
O6    O     O_R   0.489890 0.439660 0.562310 -0.537195
O7    O     O_3   0.662340 0.550560 0.508380 -0.353587
V1    V     V_3+5 0.935370 0.490620 0.498450 1.495567
O8    O     O_R   0.328750 0.569930 0.439790 -0.526975
C3    C     C_R   0.160889 0.584770 0.418340 0.715678
O9    O     O_R   0.324340 0.593700 0.587330 -0.525711
C4    C     C_R   0.156978 0.621008 0.611472 0.719653
V2    V     V_3+5 0.435940 0.509380 0.501550 1.496825
O10   O     O_3   0.159100 0.449440 0.491620 -0.360746
H1    H     H_    0.290515 0.880034 0.566461 0.167628
C5    C     C_R   0.059868 0.595099 0.745703 -0.141585
C6    C     C_R   0.999907 0.579817 0.808531 -0.135821
C7    C     C_R   0.975260 0.643101 0.872133 -0.076220
C8    C     C_R   0.012572 0.721951 0.873494 -0.095159
C9    C     C_R   0.074878 0.739628 0.810570 0.062097
C10   C     C_R   0.095603 0.674898 0.744950 0.073987
C11   C     C_R   0.113668 0.820181 0.812474 -0.167647
C12   C     C_R   0.158313 0.836975 0.746669 0.023728
C13   C     C_R   0.196004 0.770960 0.681944 0.024499
C14   C     C_R   0.154796 0.689993 0.680492 -0.158133
C15   C     C_R   0.163565 0.917051 0.741160 0.097121
C16   C     C_R   0.192251 0.928993 0.674393 -0.146139
C17   C     C_R   0.245106 0.866466 0.614759 -0.142934
C18   C     C_R   0.266380 0.789924 0.619954 0.104311
H2    H     H_    0.928225 0.631092 0.920914 0.133153
H3    H     H_    0.189506 0.988908 0.669510 0.157176
C19   C     C_R   0.238262 0.604924 0.300124 -0.216999
C20   C     C_R   0.153616 0.633346 0.368912 -0.061652
C21   C     C_R   0.061206 0.707780 0.389989 -0.164953
C22   C     C_R   0.054469 0.754211 0.342810 0.052432
C23   C     C_R   0.134627 0.724476 0.272757 0.065257
C24   C     C_R   0.227754 0.649635 0.251722 0.119017
C25   C     C_R   0.978260 0.831611 0.365949 -0.169122
C26   C     C_R   0.976803 0.879015 0.319949 0.232116
C27   C     C_R   0.038234 0.846686 0.247038 0.057733
C28   C     C_R   0.126086 0.770449 0.224490 0.004344
C29   C     C_R   0.214653 0.741893 0.155398 0.098124
C30   C     C_R   0.305179 0.666551 0.135574 -0.153064
C31   C     C_R   0.311098 0.621147 0.182974 -0.200286
C32   C     C_R   0.025586 0.890511 0.197719 -0.172157
C33   C     C_R   0.112847 0.863136 0.129111 -0.104823
C34   C     C_R   0.214400 0.789983 0.108798 0.085112
H4    H     H_    0.998964 0.730253 0.443748 0.132859
H5    H     H_    0.929508 0.857174 0.421405 0.161738
H6    H     H_    0.953445 0.947734 0.213169 0.156167
H7    H     H_    0.372635 0.641400 0.083370 0.160782
C35   C     C_R   0.531426 0.208970 0.887551 -0.201752
C36   C     C_R   0.619346 0.133433 0.868537 -0.052277
C37   C     C_R   0.695390 0.100707 0.798762 -0.155606
C38   C     C_R   0.704158 0.145961 0.750844 0.098230
C39   C     C_R   0.619965 0.222453 0.770398 0.059907
C40   C     C_R   0.528778 0.253220 0.838438 0.109338
C41   C     C_R   0.795912 0.115962 0.683747 -0.167142
C42   C     C_R   0.810069 0.162290 0.637153 -0.104527
C43   C     C_R   0.726506 0.238966 0.655276 0.063399
C44   C     C_R   0.625706 0.267881 0.721716 0.024108
C45   C     C_R   0.531568 0.342331 0.740014 0.103733
C46   C     C_R   0.436637 0.371353 0.806940 -0.173546
C47   C     C_R   0.437241 0.327674 0.856061 -0.180837
C48   C     C_R   0.740790 0.287328 0.609046 0.112852
C49   C     C_R   0.640349 0.360892 0.626807 -0.113363
C50   C     C_R   0.534798 0.386902 0.691512 -0.231799
H8    H     H_    0.464554 0.232885 0.940338 0.112478
H9    H     H_    0.744938 0.039350 0.781387 0.139543
H10   H     H_    0.884954 0.136407 0.586591 0.193848
H11   H     H_    0.363920 0.428497 0.821741 0.129807
C51   C     C_R   0.750048 0.405635 0.248368 -0.151814
C52   C     C_R   0.796662 0.418806 0.183205 -0.126943
C53   C     C_R   0.785415 0.355785 0.118270 -0.120138
C54   C     C_R   0.727977 0.279036 0.117985 -0.138122
C55   C     C_R   0.680874 0.263721 0.183299 0.067844
C56   C     C_R   0.691705 0.328329 0.249903 0.064950
C57   C     C_R   0.622636 0.185698 0.183014 -0.148385
C58   C     C_R   0.576381 0.172200 0.249225 0.035861
C59   C     C_R   0.581051 0.236982 0.315549 0.035082
C60   C     C_R   0.641616 0.315103 0.316152 -0.147929
C61   C     C_R   0.530009 0.093936 0.250639 -0.223433
C62   C     C_R   0.486976 0.079145 0.315198 0.218687
C63   C     C_R   0.482359 0.143187 0.380289 0.261866
C64   C     C_R   0.528280 0.221295 0.380205 -0.183690
H12   H     H_    0.759381 0.456810 0.297300 0.107343
H13   H     H_    0.720573 0.232027 0.066084 0.089797
H14   H     H_    0.525538 0.269165 0.431546 0.141013
O11   O     O_R   0.775200 0.060470 0.937800 -0.530188
O12   O     O_R   0.441110 0.093720 0.087350 -0.541975
O13   O     O_R   0.266330 0.939630 0.062280 -0.522798
C65   C     C_R   0.610909 0.117773 0.113912 0.676780
O14   O     O_R   0.445750 0.069950 0.939820 -0.527100
O15   O     O_R   0.271000 0.915700 0.913700 -0.517536
C66   C     C_R   0.614362 0.085236 0.918623 0.723237
O16   O     O_R   0.770530 0.084400 0.086380 -0.540227
O17   O     O_3   0.602830 0.949510 0.991680 -0.354056
V3    V     V_3+5 0.329710 0.009370 0.001550 1.509835
O18   O     O_R   0.940990 0.906170 0.912570 -0.538958
C67   C     C_R   0.108460 0.885244 0.883608 0.758881
O19   O     O_R   0.936350 0.929940 0.060100 -0.540202
C68   C     C_R   0.104464 0.914099 0.081011 0.736028
V4    V     V_3+5 0.829160 0.990450 0.998310 1.496481
O20   O     O_3   0.105910 0.050480 0.008320 -0.363278
I1    I     I_    0.931880 0.004223 0.371314 -0.315972
I2    I     I_    0.373633 0.754564 0.009196 -0.460875
H15   H     H_    0.382808 0.563736 0.165919 0.128441
H16   H     H_    0.860310 0.057039 0.667780 0.143118
H17   H     H_    0.079374 0.543307 0.698076 0.110010
I3    I     I_    0.915259 0.250114 0.513060 -0.341657
H18   H     H_    0.460869 0.443804 0.705372 0.125527
H19   H     H_    0.365343 0.352003 0.907749 0.125876
I4    I     I_    0.413471 0.125323 0.480573 -0.289671
H20   H     H_    0.841078 0.478345 0.183106 0.122757
H21   H     H_    0.821035 0.366422 0.067777 0.116373
H22   H     H_    0.972766 0.518491 0.807821 0.120147
H23   H     H_    0.531426 0.042628 0.201734 0.141992
I5    I     I_    0.444432 0.957199 0.309155 -0.359032
H24   H     H_    0.991386 0.768615 0.924681 0.122505
I6    I     I_    0.133794 0.030031 0.822545 -0.420017
I7    I     I_    0.492322 0.732062 0.550683 -0.382615
H25   H     H_    0.310044 0.547470 0.284071 0.112267

loop_
_geom_bond_atom_site_label_1
_geom_bond_atom_site_label_2
_ccdc_geom_bond_type
C29   C34   A    
C2    C60   S    
C36   C37   A    
C52   C53   A    
O18   C67   A    
O15   C67   A    
C26   C27   A    
O11   V4    S    
C20   C21   A    
C1    O6    A    
C15   C16   A    
C58   C59   A    
C62   C63   A    
C12   C15   A    
C50   H18   S    
C13   C14   A    
C16   C17   A    
O16   V4    S    
C43   C48   A    
C21   C22   A    
C5    C6    A    
C22   C25   A    
C40   C47   A    
O5    C3    A    
C17   C18   A    
C55   C57   A    
C65   O16   A    
C59   C64   A    
C33   C68   S    
C16   H3    S    
C46   H11   S    
C37   C38   A    
C19   C20   A    
O8    V2    S    
C19   C24   A    
C6    C7    A    
C6    H22   S    
C49   C50   A    
O1    V2    S    
C10   C14   A    
C4    C14   S    
C47   H19   S    
O7    V1    S    
C11   C67   S    
C35   C40   A    
C30   H7    S    
C13   C18   A    
O1    C2    A    
C8    C9    A    
H1    C17   S    
O13   C68   A    
C34   I2    S    
C31   H15   S    
C53   C54   A    
O18   V4    S    
O17   V4    S    
C51   C52   A    
C48   C49   A    
C11   C12   A    
O14   V3    S    
C1    C49   S    
C55   C56   A    
C38   C41   A    
C12   C13   A    
C54   C55   A    
O11   C66   A    
C5    C10   A    
C41   C42   A    
C62   I5    S    
O2    C1    A    
C28   C29   A    
C22   C23   A    
C32   C33   A    
C35   H8    S    
C37   H9    S    
C54   H13   S    
C36   C66   S    
C43   C44   A    
O12   C65   A    
O19   V4    S    
C45   C50   A    
C61   C62   A    
C3    C20   S    
O13   V3    S    
O3    C4    A    
C24   C31   A    
C42   H10   S    
C25   C26   A    
C59   C60   A    
O6    V2    S    
C51   C56   A    
O9    V2    S    
C9    C11   A    
C39   C40   A    
C27   C28   A    
C57   C65   S    
C5    H17   S    
O2    V1    S    
C58   C61   A    
C21   H4    S    
C29   C30   A    
O12   V3    S    
O4    C2    A    
C7    H2    S    
C39   C44   A    
C35   C36   A    
C33   C34   A    
C19   H25   S    
C26   I1    S    
C63   C64   A    
C57   C58   A    
O5    V1    S    
O8    C3    A    
O14   C66   A    
C32   H6    S    
C25   H5    S    
V4    O20   S    
V3    O20   S    
C53   H21   S    
O17   V3    S    
C45   C46   A    
O7    V2    S    
C18   I7    S    
O4    V1    S    
O3    V1    S    
V1    O10   S    
C56   C60   A    
C38   C39   A    
C23   C24   A    
C61   H23   S    
O15   V3    S    
C15   I6    S    
C27   C32   A    
C8    H24   S    
C42   C43   A    
C41   H16   S    
C44   C45   A    
C30   C31   A    
C48   I3    S    
C23   C28   A    
C7    C8    A    
C46   C47   A    
C64   H14   S    
O19   C68   A    
C9    C10   A    
C63   I4    S    
C52   H20   S    
C51   H12   S    
O9    C4    A    
V2    O10   S    
