data_mof_unit_56128.cif
_audit_creation_date              2012-12-10T20:35:48-0500
_audit_creation_method            fapswitch 2.2
_symmetry_space_group_name_H-M    P1
_symmetry_Int_Tables_number       1
_space_group_crystal_system       triclinic
_cell_length_a                    15.716925
_cell_length_b                    10.664441
_cell_length_c                    9.942051
_cell_angle_alpha                 89.855275
_cell_angle_beta                  87.885818
_cell_angle_gamma                 90.115592
_cell_volume                      1665.26586994

loop_
_atom_site_label
_atom_site_type_symbol
_atom_type_description
_atom_site_fract_x
_atom_site_fract_y
_atom_site_fract_z
_atom_type_partial_charge
C1    C     C_R   0.502821 0.260200 0.499984 0.870314
C2    C     C_3   0.947102 0.394198 0.582292 0.308656
C3    C     C_3   0.917239 0.505026 0.493031 0.113177
C4    C     C_3   0.949492 0.631072 0.554309 -0.053824
C5    C     C_3   0.048350 0.629494 0.553656 -0.519211
C6    C     C_1   0.825632 0.503218 0.491598 -0.096129
C7    C     C_1   0.174303 0.502548 0.503595 -0.080597
C8    C     C_1   0.249579 0.501387 0.505661 -0.167543
C9    C     C_R   0.516815 0.063590 0.621268 0.139211
C10   C     C_R   0.516903 0.128768 0.499804 -0.100633
C11   C     C_R   0.533671 0.065284 0.378267 -0.225357
C12   C     C_R   0.338481 0.500136 0.502128 0.912253
C13   C     C_R   0.533629 0.935613 0.378066 -0.231691
C14   C     C_R   0.516915 0.871295 0.499423 -0.102443
C15   C     C_R   0.516809 0.935702 0.621053 0.133937
C16   C     C_3   0.456320 0.927881 0.740457 -0.466776
C17   C     C_3   0.456323 0.069997 0.740692 -0.498904
C18   C     C_R   0.425440 0.491591 0.075684 0.226660
C19   C     C_R   0.574128 0.516390 0.063145 0.149530
C20   C     C_R   0.572256 0.519301 0.920910 -0.171511
C21   C     C_R   0.425557 0.491191 0.933595 0.143345
C22   C     C_3   0.362879 0.386329 0.931156 -0.557711
C23   C     C_R   0.502877 0.739796 0.499700 0.866085
C24   C     C_3   0.363420 0.385509 0.084134 0.212211
C25   C     C_R   0.661484 0.500068 0.497773 0.903226
C26   C     C_3   0.045699 0.395385 0.587928 0.288548
C27   C     C_3   0.053966 0.484375 0.349215 0.032863
C28   C     C_3   0.955135 0.488402 0.348130 -0.376749
C29   C     C_1   0.750316 0.501518 0.493077 -0.203551
C30   C     C_3   0.082807 0.503318 0.497397 0.112178
H1    H     H_    0.062331 0.413422 0.694613 0.029503
H2    H     H_    0.920597 0.407113 0.687277 0.008731
H3    H     H_    0.540643 0.114607 0.283086 0.167311
H4    H     H_    0.540463 0.886991 0.282772 0.169114
H5    H     H_    0.393775 0.886434 0.715970 0.204774
H6    H     H_    0.486510 0.886518 0.829661 0.206712
H7    H     H_    0.393767 0.111226 0.716333 0.201913
H8    H     H_    0.486563 0.110695 0.830059 0.200931
H9    H     H_    0.630111 0.533541 0.860610 0.165344
H10   H     H_    0.301342 0.416505 0.889924 0.225765
H11   H     H_    0.390340 0.300041 0.884967 0.175182
H12   H     H_    0.389847 0.298965 0.129641 0.103260
H13   H     H_    0.074857 0.388960 0.316897 0.207877
H14   H     H_    0.931356 0.399876 0.303681 0.201669
H15   H     H_    0.932215 0.565390 0.283264 0.167534
H16   H     H_    0.069363 0.643196 0.658392 0.167525
H17   H     H_    0.076491 0.708241 0.493440 0.212574
H18   H     H_    0.925454 0.634051 0.661183 0.149658
N1    N     N_R   0.499430 0.499140 0.142800 -0.158974
N2    N     N_R   0.499430 0.499180 0.857150 -0.118321
O1    O     O_R   0.500010 0.316790 0.614690 -0.612300
O2    O     O_R   0.500000 0.316760 0.385350 -0.633703
O3    O     O_R   0.377150 0.500020 0.614720 -0.618729
O4    O     O_R   0.377140 0.499990 0.385380 -0.567953
O5    O     O_R   0.500000 0.683240 0.614650 -0.610505
O6    O     O_R   0.499990 0.683210 0.385310 -0.629665
O7    O     O_R   0.622860 0.500010 0.614620 -0.626640
O8    O     O_R   0.622850 0.499980 0.385280 -0.619094
Zn1   Zn    Zn3+2 0.500010 0.500020 0.653130 0.940774
Zn2   Zn    Zn3+2 0.499990 0.499980 0.346870 0.948716
O9    O     O_3   0.918600 0.278544 0.532013 -0.703222
H19   H     H_    0.861043 0.262596 0.573068 0.322152
C31   C     C_3   0.915770 0.750763 0.484295 -0.373247
C32   C     C_3   0.930842 0.869212 0.566635 -0.829497
H20   H     H_    0.898446 0.861173 0.667481 0.247536
H21   H     H_    0.999865 0.885496 0.579012 0.267724
H22   H     H_    0.904408 0.951604 0.514037 0.269803
H23   H     H_    0.946604 0.762786 0.382851 0.210781
H24   H     H_    0.846134 0.743447 0.470933 0.211288
C33   C     C_3   0.662787 0.524569 0.116292 -0.322900
C34   C     C_3   0.682741 0.655614 0.168826 -0.810783
H25   H     H_    0.687806 0.722958 0.083449 0.226242
H26   H     H_    0.632498 0.689572 0.240271 0.284842
H27   H     H_    0.744424 0.654217 0.219829 0.231684
H28   H     H_    0.675362 0.445812 0.184663 0.220583
H29   H     H_    0.711604 0.506626 0.034709 0.151774
O10   O     O_3   0.079465 0.278558 0.547031 -0.710116
H30   H     H_    0.133012 0.265933 0.595214 0.321242
O11   O     O_3   0.285521 0.423976 0.142956 -0.741957
H31   H     H_    0.249707 0.347434 0.150258 0.332410
C35   C     C_3   0.094780 0.578611 0.245986 -0.390856
C36   C     C_3   0.080844 0.539590 0.100374 -0.873683
H32   H     H_    0.106627 0.444199 0.081121 0.267154
H33   H     H_    0.012152 0.540479 0.078314 0.244079
H34   H     H_    0.114404 0.606313 0.030724 0.260557
H35   H     H_    0.068433 0.674099 0.261945 0.206010
H36   H     H_    0.164543 0.584591 0.258283 0.261854

loop_
_geom_bond_atom_site_label_1
_geom_bond_atom_site_label_2
_ccdc_geom_bond_type
O5    Zn1   S    
C18   C21   A    
C24   H12   S    
C19   C20   A    
C3    C6    S    
C35   C36   S    
O3    Zn1   S    
C7    C8    T    
O4    Zn2   S    
O10   H30   S    
C5    H17   S    
C4    C31   S    
N1    Zn2   S    
C18   C24   S    
N2    Zn1   S    
C3    C28   S    
C16   H5    S    
O7    Zn1   S    
C22   H11   S    
O8    Zn2   S    
C15   C16   S    
C2    H2    S    
C20   N2    A    
O2    Zn2   S    
C31   H24   S    
C16   C17   S    
C33   C34   S    
C9    C10   A    
C35   H35   S    
C2    O9    S    
C26   H1    S    
C7    C30   S    
C21   C22   S    
C27   C30   S    
C25   O7    A    
C21   N2    A    
C25   C29   S    
C28   H15   S    
C26   O10   S    
C32   H22   S    
C11   H3    S    
O11   H31   S    
C34   H26   S    
C20   H9    S    
C28   H14   S    
O6    Zn2   S    
C32   H21   S    
C14   C23   S    
C19   N1    A    
C24   O11   S    
C27   C35   S    
C8    C12   S    
C22   H10   S    
C2    C26   S    
C17   H7    S    
C1    O1    A    
C23   O6    A    
C35   H36   S    
C9    C17   S    
C26   C30   S    
C36   H33   S    
C33   H29   S    
C22   C24   S    
O1    Zn1   S    
C25   O8    A    
C3    C4    S    
C33   H28   S    
C5    C30   S    
C4    H18   S    
C31   H23   S    
C1    C10   S    
C12   O3    A    
C4    C5    S    
C34   H27   S    
C23   O5    A    
C36   H34   S    
C5    H16   S    
C32   H20   S    
C2    C3    S    
C9    C15   A    
C34   H25   S    
C16   H6    S    
C11   C13   A    
C17   H8    S    
O9    H19   S    
C1    O2    A    
C10   C11   A    
C31   C32   S    
C27   H13   S    
C13   H4    S    
C6    C29   T    
C36   H32   S    
C27   C28   S    
C14   C15   A    
C19   C33   S    
C13   C14   A    
C12   O4    A    
C18   N1    A    
