data_mof_unit_28436.cif
_audit_creation_date              2012-12-11T15:08:50-0500
_audit_creation_method            fapswitch 2.2
_symmetry_space_group_name_H-M    P1
_symmetry_Int_Tables_number       1
_space_group_crystal_system       triclinic
_cell_length_a                    19.385821
_cell_length_b                    11.345516
_cell_length_c                    18.706553
_cell_angle_alpha                 90.000011
_cell_angle_beta                  90.22135
_cell_angle_gamma                 90.0
_cell_volume                      4114.32863907

loop_
_atom_site_label
_atom_site_type_symbol
_atom_type_description
_atom_site_fract_x
_atom_site_fract_y
_atom_site_fract_z
_atom_type_partial_charge
Br1   Br    Br    0.096015 0.677226 0.582375 -0.572935
Br2   Br    Br    0.903985 0.677226 0.417625 -0.572934
Br3   Br    Br    0.596015 0.177226 0.582375 -0.572935
Br4   Br    Br    0.403985 0.177226 0.417625 -0.572935
C1    C     C_R   0.272396 0.043484 0.854099 0.527764
C2    C     C_3   0.687987 0.528361 0.956204 -0.235041
C3    C     C_R   0.227435 0.545343 0.353430 0.534194
C4    C     C_R   0.468464 0.822223 0.645398 0.543524
C5    C     C_R   0.531536 0.822223 0.354602 0.543524
C6    C     C_R   0.968464 0.322223 0.645398 0.543524
C7    C     C_R   0.031536 0.322223 0.354602 0.543524
C8    C     C_R   0.260172 0.639908 0.643872 0.555908
C9    C     C_R   0.739828 0.639908 0.356127 0.555908
C10   C     C_R   0.760172 0.139908 0.643872 0.555908
C11   C     C_R   0.239828 0.139908 0.356127 0.555908
C12   C     C_3   0.479571 0.915498 0.035577 -0.109216
C13   C     C_3   0.812013 0.028359 0.043795 -0.235041
C14   C     C_3   0.520429 0.915498 0.964423 -0.109216
C15   C     C_3   0.979572 0.415499 0.035577 -0.109216
C16   C     C_3   0.020430 0.415499 0.964423 -0.109217
C17   C     C_3   0.431391 0.818075 0.006228 -0.159220
C18   C     C_3   0.568609 0.818075 0.993772 -0.159220
C19   C     C_3   0.931391 0.318076 0.006228 -0.159220
C20   C     C_3   0.068610 0.318075 0.993772 -0.159220
C21   C     C_3   0.472216 0.819717 0.935918 0.056867
C22   C     C_3   0.527784 0.819717 0.064081 0.056867
C23   C     C_3   0.972217 0.319717 0.935918 0.056867
C24   C     C_3   0.187987 0.028359 0.956204 -0.235040
C25   C     C_3   0.027784 0.319717 0.064081 0.056868
C26   C     C_3   0.321492 0.553492 0.963474 -0.234581
C27   C     C_3   0.678508 0.553494 0.036525 -0.234583
C28   C     C_3   0.821492 0.053492 0.963474 -0.234583
C29   C     C_3   0.178508 0.053490 0.036526 -0.234583
C30   C     C_3   0.179804 0.523500 0.025761 -0.209612
C31   C     C_3   0.820196 0.523499 0.974239 -0.209613
C32   C     C_3   0.679804 0.023499 0.025761 -0.209613
C33   C     C_R   0.727604 0.043484 0.145901 0.527764
C34   C     C_3   0.320197 0.023500 0.974239 -0.209613
C35   C     C_3   0.240731 0.707157 0.056606 -0.256359
C36   C     C_3   0.759269 0.707157 0.943394 -0.256359
C37   C     C_3   0.740731 0.207156 0.056606 -0.256359
C38   C     C_3   0.259269 0.207156 0.943394 -0.256359
C39   C     C_3   0.241123 0.574608 0.070231 0.064518
C40   C     C_3   0.758877 0.574608 0.929769 0.064518
C41   C     C_3   0.741123 0.074608 0.070231 0.064518
C42   C     C_3   0.258877 0.074608 0.929769 0.064518
C43   C     C_3   0.255079 0.610070 0.932219 0.053952
C44   C     C_R   0.772396 0.543485 0.854099 0.527764
C45   C     C_3   0.744921 0.610070 0.067781 0.053951
C46   C     C_3   0.755079 0.110069 0.932219 0.053951
C47   C     C_3   0.244921 0.110069 0.067781 0.053951
C48   C     C_3   0.195002 0.524877 0.944968 -0.252711
C49   C     C_3   0.804997 0.524876 0.055032 -0.252712
C50   C     C_3   0.695002 0.024877 0.944968 -0.252712
C51   C     C_3   0.304998 0.024877 0.055032 -0.252712
C52   C     C_3   0.238672 0.725158 0.974687 -0.223636
C53   C     C_3   0.761329 0.725158 0.025313 -0.223636
C54   C     C_3   0.738672 0.225158 0.974686 -0.223636
C55   C     C_R   0.227604 0.543485 0.145901 0.527763
C56   C     C_3   0.261327 0.225158 0.025314 -0.223635
C57   C     C_3   0.505251 0.696386 0.460293 -0.219589
C58   C     C_3   0.494749 0.696386 0.539706 -0.219589
C59   C     C_3   0.005251 0.196386 0.460293 -0.219589
C60   C     C_3   0.994749 0.196386 0.539706 -0.219589
C61   C     C_R   0.444464 0.817096 0.862257 0.533906
C62   C     C_R   0.555536 0.817096 0.137743 0.533906
C63   C     C_R   0.944465 0.317096 0.862256 0.533908
C64   C     C_R   0.055536 0.317096 0.137743 0.533906
C65   C     C_3   0.564054 0.900349 0.474078 -0.219358
C66   C     C_3   0.519940 0.722740 0.964657 -0.112057
C67   C     C_3   0.435946 0.900349 0.525922 -0.219358
C68   C     C_3   0.064054 0.400349 0.474078 -0.219358
C69   C     C_3   0.935946 0.400349 0.525922 -0.219358
C70   C     C_3   0.440511 0.877628 0.444487 -0.264292
C71   C     C_3   0.559489 0.877628 0.555513 -0.264292
C72   C     C_3   0.940511 0.377628 0.444487 -0.264292
C73   C     C_3   0.059489 0.377628 0.555513 -0.264293
C74   C     C_3   0.510919 0.824489 0.430955 0.045173
C75   C     C_3   0.489081 0.824489 0.569045 0.045173
C76   C     C_3   0.010919 0.324489 0.430955 0.045173
C77   C     C_3   0.480059 0.722740 0.035343 -0.112057
C78   C     C_3   0.989081 0.324489 0.569045 0.045173
C79   C     C_3   0.177865 0.649502 0.457305 -0.189827
C80   C     C_3   0.822135 0.649502 0.542694 -0.189827
C81   C     C_3   0.677865 0.149502 0.457305 -0.189827
C82   C     C_3   0.322135 0.149502 0.542694 -0.189827
C83   C     C_3   0.186150 0.675144 0.535259 0.032223
C84   C     C_3   0.813850 0.675144 0.464741 0.032223
C85   C     C_3   0.686150 0.175144 0.535259 0.032223
C86   C     C_3   0.313850 0.175144 0.464741 0.032223
C87   C     C_3   0.249288 0.461011 0.472264 -0.232796
C88   C     C_3   0.019941 0.222740 0.964657 -0.112057
C89   C     C_3   0.750712 0.461011 0.527736 -0.232796
C90   C     C_3   0.749288 0.961011 0.472264 -0.232796
C91   C     C_3   0.250712 0.961011 0.527736 -0.232796
C92   C     C_3   0.303891 0.651474 0.443407 -0.283764
C93   C     C_3   0.696109 0.651474 0.556593 -0.283764
C94   C     C_3   0.803891 0.151474 0.443407 -0.283764
C95   C     C_3   0.196109 0.151474 0.556593 -0.283764
C96   C     C_3   0.239802 0.576937 0.429156 0.032066
C97   C     C_3   0.760198 0.576937 0.570844 0.032067
C98   C     C_3   0.739802 0.076937 0.429156 0.032066
C99   C     C_3   0.980060 0.222740 0.035343 -0.112057
C100  C     C_3   0.260198 0.076937 0.570844 0.032067
C101  C     C_3   0.250132 0.608990 0.567547 0.058633
C102  C     C_3   0.749868 0.608990 0.432453 0.058633
C103  C     C_3   0.750132 0.108990 0.567547 0.058633
C104  C     C_3   0.249868 0.108990 0.432453 0.058633
C105  C     C_3   0.240114 0.478164 0.553448 -0.269209
C106  C     C_3   0.759885 0.478164 0.446551 -0.269209
C107  C     C_3   0.740114 0.978164 0.553448 -0.269209
C108  C     C_3   0.259885 0.978164 0.446551 -0.269209
C109  C     C_R   0.262140 0.641973 0.855032 0.533746
C110  C     C_3   0.312013 0.528360 0.043796 -0.235039
C111  C     C_R   0.737860 0.641973 0.144968 0.533746
C112  C     C_R   0.762140 0.141973 0.855032 0.533746
C113  C     C_R   0.237860 0.141972 0.144968 0.533745
C114  C     C_3   0.316349 0.647632 0.525445 -0.256723
C115  C     C_3   0.683651 0.647632 0.474555 -0.256723
C116  C     C_3   0.816349 0.147632 0.525445 -0.256723
C117  C     C_3   0.183651 0.147632 0.474555 -0.256723
C118  C     C_R   0.272565 0.045343 0.646570 0.534194
C119  C     C_R   0.727435 0.045343 0.353430 0.534194
C120  C     C_R   0.772565 0.545343 0.646570 0.534194
Cr1   Cr    Cr6+3 0.229620 0.836040 0.749110 1.037408
Cr2   Cr    Cr6+3 0.613980 0.676590 0.250790 1.006268
Cr3   Cr    Cr6+3 0.886020 0.176590 0.749210 1.006268
Cr4   Cr    Cr6+3 0.113980 0.176590 0.250790 1.006268
Cr5   Cr    Cr6+3 0.770380 0.836040 0.250890 1.037408
Cr6   Cr    Cr6+3 0.729620 0.336040 0.749110 1.037408
Cr7   Cr    Cr6+3 0.270380 0.336040 0.250890 1.037408
Cr8   Cr    Cr6+3 0.387630 0.990680 0.750730 1.028865
Cr9   Cr    Cr6+3 0.612370 0.990680 0.249270 1.028865
Cr10  Cr    Cr6+3 0.887630 0.490680 0.750730 1.028865
Cr11  Cr    Cr6+3 0.112370 0.490680 0.249270 1.028865
Cr12  Cr    Cr6+3 0.386020 0.676590 0.749210 1.006268
H1    H     H_    0.376492 0.804992 0.017065 0.092407
H2    H     H_    0.712684 0.746223 0.918698 0.104924
H3    H     H_    0.195779 0.938094 0.536120 0.151245
H4    H     H_    0.278809 0.425044 0.583333 0.110500
H5    H     H_    0.721191 0.425044 0.416667 0.110501
H6    H     H_    0.778809 0.925044 0.583333 0.110500
H7    H     H_    0.221191 0.925044 0.416667 0.110501
H8    H     H_    0.317511 0.434052 0.054080 0.131293
H9    H     H_    0.682489 0.434052 0.945920 0.131292
H10   H     H_    0.817510 0.934051 0.054080 0.131293
H11   H     H_    0.182489 0.934051 0.945919 0.131293
H12   H     H_    0.354014 0.571285 0.074768 0.111897
H13   H     H_    0.787317 0.246221 0.081302 0.104924
H14   H     H_    0.645987 0.571286 0.925231 0.111898
H15   H     H_    0.854013 0.071284 0.074768 0.111898
H16   H     H_    0.145987 0.071285 0.925232 0.111897
H17   H     H_    0.366088 0.613398 0.955802 0.136445
H18   H     H_    0.633912 0.613401 0.044197 0.136444
H19   H     H_    0.866087 0.113398 0.955803 0.136446
H20   H     H_    0.133912 0.113395 0.044198 0.136446
H21   H     H_    0.333481 0.469950 0.934968 0.119452
H22   H     H_    0.666518 0.469953 0.065032 0.119453
H23   H     H_    0.833481 0.969951 0.934968 0.119452
H24   H     H_    0.212683 0.246222 0.918697 0.104923
H25   H     H_    0.166521 0.969948 0.065032 0.119451
H26   H     H_    0.665113 0.938097 0.046763 0.098887
H27   H     H_    0.334887 0.938098 0.953236 0.098887
H28   H     H_    0.165113 0.438098 0.046764 0.098887
H29   H     H_    0.834886 0.438097 0.953236 0.098887
H30   H     H_    0.708662 0.936310 0.925590 0.112030
H31   H     H_    0.291338 0.936310 0.074410 0.112030
H32   H     H_    0.208663 0.436310 0.925590 0.112030
H33   H     H_    0.791336 0.436309 0.074410 0.112030
H34   H     H_    0.273728 0.794547 0.958531 0.106748
H35   H     H_    0.726274 0.794548 0.041470 0.106748
H36   H     H_    0.773728 0.294546 0.958530 0.106748
H37   H     H_    0.226271 0.294546 0.041470 0.106747
H38   H     H_    0.185268 0.751680 0.960443 0.131913
H39   H     H_    0.814733 0.751678 0.039557 0.131914
H40   H     H_    0.685268 0.251680 0.960443 0.131914
H41   H     H_    0.623507 0.804992 0.982934 0.092407
H42   H     H_    0.314731 0.251680 0.039557 0.131914
H43   H     H_    0.632746 0.077975 0.034699 0.138392
H44   H     H_    0.367254 0.077976 0.965301 0.138392
H45   H     H_    0.132747 0.577976 0.034699 0.138392
H46   H     H_    0.867253 0.577974 0.965301 0.138392
H47   H     H_    0.148392 0.553843 0.915034 0.128423
H48   H     H_    0.851607 0.553840 0.084967 0.128423
H49   H     H_    0.648392 0.053842 0.915033 0.128424
H50   H     H_    0.351608 0.053843 0.084966 0.128424
H51   H     H_    0.550010 0.643138 0.447586 0.144817
H52   H     H_    0.876493 0.304994 0.017066 0.092407
H53   H     H_    0.449990 0.643138 0.552414 0.144817
H54   H     H_    0.050010 0.143138 0.447586 0.144817
H55   H     H_    0.949990 0.143138 0.552414 0.144817
H56   H     H_    0.462043 0.648711 0.433994 0.128638
H57   H     H_    0.537956 0.648710 0.566006 0.128638
H58   H     H_    0.962044 0.148711 0.433994 0.128638
H59   H     H_    0.037956 0.148710 0.566006 0.128638
H60   H     H_    0.615539 0.893056 0.453409 0.107134
H61   H     H_    0.384461 0.893056 0.546591 0.107134
H62   H     H_    0.115539 0.393056 0.453409 0.107134
H63   H     H_    0.123508 0.304992 0.982934 0.092408
H64   H     H_    0.884461 0.393056 0.546591 0.107134
H65   H     H_    0.600590 0.817857 0.573852 0.107215
H66   H     H_    0.399410 0.817857 0.426148 0.107215
H67   H     H_    0.100590 0.317856 0.573852 0.107215
H68   H     H_    0.899410 0.317857 0.426148 0.107215
H69   H     H_    0.464532 0.995918 0.065300 0.116842
H70   H     H_    0.535468 0.995918 0.934700 0.116842
H71   H     H_    0.964533 0.495919 0.065300 0.116842
H72   H     H_    0.035469 0.495918 0.934700 0.116842
H73   H     H_    0.435136 0.958203 0.412922 0.189926
H74   H     H_    0.195172 0.750479 0.081325 0.129190
H75   H     H_    0.564863 0.958203 0.587078 0.189926
H76   H     H_    0.935137 0.458203 0.412922 0.189926
H77   H     H_    0.064864 0.458203 0.587078 0.189926
H78   H     H_    0.451076 0.993117 0.534707 0.177266
H79   H     H_    0.548924 0.993117 0.465293 0.177266
H80   H     H_    0.951076 0.493117 0.534707 0.177266
H81   H     H_    0.048924 0.493117 0.465293 0.177266
H82   H     H_    0.129715 0.602687 0.448544 0.180371
H83   H     H_    0.870285 0.602687 0.551456 0.180371
H84   H     H_    0.629715 0.102687 0.448544 0.180371
H85   H     H_    0.804829 0.750479 0.918675 0.129190
H86   H     H_    0.370285 0.102687 0.551456 0.180371
H87   H     H_    0.172482 0.733667 0.427077 0.123256
H88   H     H_    0.827518 0.733667 0.572923 0.123256
H89   H     H_    0.672482 0.233667 0.427077 0.123256
H90   H     H_    0.327518 0.233667 0.572923 0.123256
H91   H     H_    0.199175 0.765104 0.538844 0.145848
H92   H     H_    0.800825 0.765104 0.461156 0.145848
H93   H     H_    0.699175 0.265105 0.538844 0.145848
H94   H     H_    0.300825 0.265105 0.461156 0.145848
H95   H     H_    0.719033 0.888433 0.451115 0.103055
H96   H     H_    0.695172 0.250479 0.081325 0.129190
H97   H     H_    0.280967 0.888433 0.548884 0.103055
H98   H     H_    0.219033 0.388433 0.451115 0.103055
H99   H     H_    0.780967 0.388433 0.548884 0.103055
H100  H     H_    0.688378 0.950676 0.570889 0.144759
H101  H     H_    0.311622 0.950676 0.429111 0.144759
H102  H     H_    0.188378 0.450676 0.570889 0.144759
H103  H     H_    0.811622 0.450676 0.429111 0.144759
H104  H     H_    0.348898 0.615177 0.414256 0.129507
H105  H     H_    0.651102 0.615177 0.585744 0.129507
H106  H     H_    0.848898 0.115177 0.414256 0.129507
H107  H     H_    0.304828 0.250479 0.918675 0.129189
H108  H     H_    0.151102 0.115177 0.585744 0.129507
H109  H     H_    0.295014 0.742782 0.424751 0.108950
H110  H     H_    0.704986 0.742782 0.575249 0.108950
H111  H     H_    0.795014 0.242782 0.424751 0.108950
H112  H     H_    0.204986 0.242782 0.575249 0.108950
H113  H     H_    0.535235 0.641823 0.935559 0.124209
H114  H     H_    0.464765 0.641823 0.064440 0.124209
H115  H     H_    0.035235 0.141823 0.935559 0.124209
H116  H     H_    0.964765 0.141823 0.064440 0.124209
H117  H     H_    0.337962 0.729549 0.545405 0.114184
H118  H     H_    0.287317 0.746222 0.081302 0.104924
H119  H     H_    0.662038 0.729549 0.454595 0.114184
H120  H     H_    0.837962 0.229549 0.545405 0.114184
H121  H     H_    0.162038 0.229549 0.454595 0.114184
H122  H     H_    0.354909 0.577842 0.535505 0.138679
H123  H     H_    0.645091 0.577842 0.464494 0.138679
H124  H     H_    0.854909 0.077842 0.535505 0.138679
H125  H     H_    0.145091 0.077842 0.464494 0.138679
H126  H     H_    0.304221 0.438094 0.463880 0.151245
H127  H     H_    0.695779 0.438094 0.536120 0.151245
H128  H     H_    0.804221 0.938094 0.463880 0.151245
O1    O     O_R   0.214130 0.708570 0.829890 -0.520878
O2    O     O_R   0.542830 0.717300 0.331620 -0.526646
O3    O     O_R   0.957170 0.217300 0.668380 -0.526646
O4    O     O_R   0.042830 0.217300 0.331620 -0.526646
O5    O     O_R   0.320870 0.624890 0.673130 -0.516352
O6    O     O_R   0.679130 0.624890 0.326870 -0.516352
O7    O     O_R   0.820870 0.124890 0.673130 -0.516353
O8    O     O_R   0.179130 0.124890 0.326870 -0.516352
O9    O     O_3   0.334430 0.834430 0.749680 -0.298770
O10   O     O_3   0.665570 0.834430 0.250320 -0.298770
O11   O     O_3   0.834430 0.334430 0.749680 -0.298770
O12   O     O_R   0.785870 0.708570 0.170110 -0.520878
O13   O     O_3   0.165570 0.334430 0.250320 -0.298770
O14   O     O_R   0.236050 0.959150 0.825270 -0.515679
O15   O     O_R   0.763950 0.959150 0.174730 -0.515679
O16   O     O_R   0.736050 0.459150 0.825270 -0.515679
O17   O     O_R   0.263950 0.459150 0.174730 -0.515679
O18   O     O_R   0.332100 0.076650 0.832310 -0.531261
O19   O     O_R   0.667900 0.076650 0.167690 -0.531260
O20   O     O_R   0.832100 0.576650 0.832310 -0.531260
O21   O     O_R   0.167900 0.576650 0.167690 -0.531260
O22   O     O_R   0.446500 0.918620 0.826240 -0.499899
O23   O     O_R   0.714130 0.208570 0.829890 -0.520878
O24   O     O_R   0.553500 0.918620 0.173760 -0.499899
O25   O     O_R   0.946500 0.418620 0.826240 -0.499899
O26   O     O_R   0.053500 0.418620 0.173760 -0.499899
O27   O     O_R   0.457310 0.715830 0.831280 -0.521890
O28   O     O_R   0.542690 0.715830 0.168720 -0.521890
O29   O     O_R   0.957310 0.215830 0.831280 -0.521891
O30   O     O_R   0.042690 0.215830 0.168720 -0.521890
O31   O     O_R   0.321000 0.623520 0.824130 -0.519553
O32   O     O_R   0.679000 0.623520 0.175870 -0.519553
O33   O     O_R   0.821000 0.123520 0.824130 -0.519553
O34   O     O_R   0.285870 0.208570 0.170110 -0.520878
O35   O     O_R   0.179000 0.123520 0.175870 -0.519553
O36   O     O_R   0.213990 0.710040 0.667000 -0.465593
O37   O     O_R   0.786010 0.710040 0.333000 -0.465593
O38   O     O_R   0.713990 0.210040 0.667000 -0.465593
O39   O     O_R   0.286010 0.210040 0.333000 -0.465593
O40   O     O_R   0.235920 0.960520 0.674260 -0.499330
O41   O     O_R   0.764080 0.960520 0.325740 -0.499329
O42   O     O_R   0.735920 0.460520 0.674260 -0.499330
O43   O     O_R   0.264080 0.460520 0.325740 -0.499329
O44   O     O_R   0.331960 0.078120 0.669410 -0.527679
O45   O     O_R   0.446360 0.919990 0.675230 -0.488963
O46   O     O_R   0.668040 0.078120 0.330590 -0.527678
O47   O     O_R   0.831960 0.578120 0.669410 -0.527679
O48   O     O_R   0.168040 0.578120 0.330590 -0.527678
O49   O     O_R   0.553640 0.919990 0.324770 -0.488963
O50   O     O_R   0.946360 0.419990 0.675230 -0.488964
O51   O     O_R   0.053640 0.419990 0.324770 -0.488963
O52   O     O_R   0.457170 0.717300 0.668380 -0.526646

loop_
_geom_bond_atom_site_label_1
_geom_bond_atom_site_label_2
_ccdc_geom_bond_type
Br1   C83   S    
C15   H71   S    
C31   C49   S    
Cr9   O46   S    
C90   H128  S    
C15   C16   S    
C17   H1    S    
C44   O20   A    
C29   H20   S    
Cr1   O9    S    
Cr4   O30   S    
C87   H98   S    
Cr3   O3    S    
C118  O40   A    
C19   H52   S    
C37   H13   S    
C60   H59   S    
C90   C107  S    
C107  H6    S    
Cr1   O40   S    
Cr5   O41   S    
C19   C99   S    
C34   C51   S    
C36   H2    S    
Cr11  O21   S    
C51   H31   S    
C87   C96   S    
C77   H114  S    
C89   C106  S    
C95   C117  S    
C79   H87   S    
C32   C50   S    
C2    C40   S    
C4    O52   A    
Cr5   O10   S    
C13   H15   S    
C14   C21   S    
Cr2   O32   S    
C44   O16   A    
C8    O5    A    
C82   C86   S    
C89   C97   S    
C79   H82   S    
C10   O7    A    
Cr6   O42   S    
C116  H124  S    
C6    C78   S    
C52   H38   S    
C11   C104  S    
C29   H25   S    
C25   C64   S    
C26   C43   S    
C35   C52   S    
C71   H75   S    
C107  H100  S    
C10   O38   A    
C89   H127  S    
C66   H113  S    
Cr11  O51   S    
C10   C103  S    
C45   C111  S    
C24   C29   S    
C22   C77   S    
C79   C96   S    
C101  C114  S    
C33   C41   S    
C98   C119  S    
C92   H109  S    
C113  O35   A    
C24   H11   S    
Cr1   O1    S    
Cr2   O6    S    
C80   C84   S    
Cr3   O11   S    
C9    C102  S    
Cr12  O27   S    
C94   C116  S    
C43   C48   S    
C114  H122  S    
C67   H78   S    
C1    C42   S    
C63   O25   A    
C91   H3    S    
C36   H85   S    
C62   O24   A    
C13   H10   S    
C3    O48   A    
C45   C49   S    
C119  O46   A    
C47   C51   S    
C94   H106  S    
C90   C98   S    
C13   C28   S    
C37   C41   S    
Cr5   O12   S    
C71   C75   S    
C40   C44   S    
C12   C17   S    
C120  O42   A    
Cr12  O9    S    
Cr10  O25   S    
C82   C100  S    
C67   C75   S    
C103  C116  S    
C55   O21   A    
C24   C42   S    
C30   H45   S    
C73   C78   S    
Cr7   O39   S    
C80   H83   S    
C13   C41   S    
C37   C54   S    
C30   H28   S    
C100  C118  S    
Cr1   O14   S    
C45   C53   S    
C120  O47   A    
C95   H108  S    
C53   H39   S    
C50   H49   S    
C7    O4    A    
Cr7   O34   S    
Cr8   O45   S    
C39   C55   S    
Cr3   O29   S    
C72   H76   S    
Cr2   O10   S    
C3    O43   A    
Cr3   O7    S    
C118  O44   A    
Cr10  O11   S    
Cr4   O8    S    
C18   H41   S    
C20   C88   S    
C5    O49   A    
C59   C76   S    
C97   C120  S    
C70   H73   S    
C1    O18   A    
C22   C62   S    
C32   C41   S    
C12   H69   S    
Cr1   O36   S    
C93   H105  S    
Cr10  O20   S    
C93   C115  S    
C106  H5    S    
C114  H117  S    
C83   C101  S    
C11   O39   A    
Cr9   O24   S    
C60   C78   S    
C59   H58   S    
Cr2   O28   S    
C34   H27   S    
C112  O33   A    
C70   C74   S    
C81   H89   S    
C11   O8    A    
Cr7   O17   S    
C27   H18   S    
C17   C21   S    
C52   H34   S    
C14   C18   S    
C103  C107  S    
C38   H24   S    
C1    O14   A    
C72   C76   S    
C79   C83   S    
C59   H54   S    
C86   C104  S    
C68   C76   S    
C84   H92   S    
Cr8   O9    S    
C92   C96   S    
C47   C113  S    
C95   C100  S    
C57   C58   S    
C34   C42   S    
C23   C63   S    
C59   C60   S    
C36   C40   S    
C86   H94   S    
C47   C56   S    
C18   C66   S    
C81   C98   S    
C117  H121  S    
C43   C52   S    
C109  O31   A    
C26   H21   S    
C115  H123  S    
C64   O26   A    
C102  C115  S    
Cr9   O49   S    
C104  C117  S    
C71   H65   S    
C73   H77   S    
C105  H102  S    
C32   H43   S    
Cr5   O37   S    
C46   C50   S    
C105  H4    S    
C108  H7    S    
C81   H84   S    
C50   H30   S    
C91   C108  S    
C39   C110  S    
C8    C101  S    
C56   H42   S    
C69   H64   S    
C38   H107  S    
C57   H51   S    
C112  O23   A    
C38   C42   S    
C51   H50   S    
C20   C25   S    
C101  C105  S    
C111  O12   A    
C4    C75   S    
Cr12  O5    S    
C33   O19   A    
C49   H33   S    
Cr10  O47   S    
C28   H23   S    
C2    C27   S    
C55   O17   A    
Cr6   O38   S    
C32   H26   S    
C56   H37   S    
C92   H104  S    
Cr8   O44   S    
C73   H67   S    
C58   H53   S    
Br4   C86   S    
C12   C22   S    
C54   H40   S    
C34   H44   S    
C3    C96   S    
C30   C39   S    
C46   C54   S    
C80   H88   S    
C49   H48   S    
C93   H110  S    
C2    H9    S    
C81   C85   S    
C70   H66   S    
Cr10  O50   S    
C113  O34   A    
Cr12  O52   S    
C104  C108  S    
C35   H74   S    
C61   O22   A    
C110  H8    S    
C54   H36   S    
C94   C98   S    
Cr3   O33   S    
C37   H96   S    
C85   C103  S    
Cr4   O4    S    
Cr11  O48   S    
C33   O15   A    
C6    O50   A    
C83   H91   S    
C69   C72   S    
C15   C25   S    
C69   C78   S    
C60   H55   S    
Cr4   O35   S    
C26   C110  S    
C43   C109  S    
C36   C53   S    
Cr11  O13   S    
Cr6   O23   S    
C115  H119  S    
C67   C70   S    
C16   C23   S    
C29   C47   S    
C5    O2    A    
C30   C48   S    
C14   H70   S    
Br3   C85   S    
C110  H12   S    
Cr9   O19   S    
C65   C71   S    
C5    C74   S    
Cr6   O16   S    
Cr11  O26   S    
Cr7   O13   S    
C27   H22   S    
C7    C76   S    
C68   H62   S    
C2    H14   S    
C108  H101  S    
C18   C22   S    
C21   C66   S    
C58   H57   S    
C15   C19   S    
C65   H79   S    
C48   H47   S    
C27   C45   S    
C35   H118  S    
C89   H99   S    
C31   H46   S    
C68   H81   S    
C99   H116  S    
C92   C114  S    
C25   C99   S    
C66   C77   S    
C88   C99   S    
C117  H125  S    
C26   H17   S    
Cr8   O22   S    
C16   C20   S    
C20   H63   S    
C64   O30   A    
C4    O45   A    
C57   H56   S    
Br2   C84   S    
C19   C23   S    
C61   O27   A    
C62   O28   A    
C8    O36   A    
C9    O37   A    
C80   C97   S    
C65   C74   S    
C90   H95   S    
C67   H61   S    
C6    O3    A    
C58   C75   S    
C21   C61   S    
C38   C56   S    
C106  H103  S    
C35   C39   S    
C65   H60   S    
C116  H120  S    
C68   C73   S    
Cr12  O31   S    
C28   H19   S    
C84   C102  S    
C57   C74   S    
C63   O29   A    
C23   C88   S    
C69   H80   S    
C31   C40   S    
C28   C46   S    
C87   H126  S    
C17   C77   S    
C24   H16   S    
C82   H90   S    
C16   H72   S    
Cr4   O13   S    
C91   C100  S    
C102  C106  S    
C88   H115  S    
Cr9   O10   S    
C111  O32   A    
Cr2   O2    S    
C72   H68   S    
C82   H86   S    
C119  O41   A    
C87   C105  S    
C95   H112  S    
C94   H111  S    
C9    O6    A    
C48   H32   S    
C7    O51   A    
C31   H29   S    
Cr5   O15   S    
C46   C112  S    
Cr8   O18   S    
C109  O1    A    
Cr7   O43   S    
C12   C14   S    
C91   H97   S    
C85   H93   S    
Cr6   O11   S    
C93   C97   S    
C53   H35   S    
