data_mof_unit_30517.cif
_audit_creation_date              2012-12-11T15:27:37-0500
_audit_creation_method            fapswitch 2.2
_symmetry_space_group_name_H-M    P1
_symmetry_Int_Tables_number       1
_space_group_crystal_system       triclinic
_cell_length_a                    23.238108
_cell_length_b                    7.298704
_cell_length_c                    15.104047
_cell_angle_alpha                 89.99945
_cell_angle_beta                  108.236466
_cell_angle_gamma                 90.0007
_cell_volume                      2433.09853926

loop_
_atom_site_label
_atom_site_type_symbol
_atom_type_description
_atom_site_fract_x
_atom_site_fract_y
_atom_site_fract_z
_atom_type_partial_charge
O1    O     O_R   0.711000 0.648610 0.341170 -0.535981
O2    O     O_R   0.289000 0.351390 0.658830 -0.535980
O3    O     O_R   0.789000 0.148610 0.158830 -0.535979
O4    O     O_R   0.211000 0.851390 0.841170 -0.535981
O5    O     O_R   0.829650 0.322030 0.336650 -0.537385
O6    O     O_R   0.170350 0.677970 0.663350 -0.537397
O7    O     O_R   0.670350 0.822030 0.163350 -0.537393
O8    O     O_R   0.329650 0.177970 0.836650 -0.537401
C1    C     C_R   0.854268 0.485797 0.356813 0.730349
C2    C     C_R   0.145732 0.514203 0.643187 0.730351
C3    C     C_R   0.645732 0.985796 0.143187 0.730349
C4    C     C_R   0.354268 0.014204 0.856813 0.730349
O9    O     O_R   0.713950 0.319280 0.352070 -0.537903
O10   O     O_R   0.286050 0.680720 0.647930 -0.537904
O11   O     O_R   0.786050 0.819280 0.147930 -0.537906
O12   O     O_R   0.213950 0.180720 0.852070 -0.537903
O13   O     O_R   0.672470 0.142870 0.174360 -0.534682
O14   O     O_R   0.327530 0.857130 0.825640 -0.534675
O15   O     O_R   0.827530 0.642870 0.325640 -0.534690
O16   O     O_R   0.172470 0.357130 0.674360 -0.534676
C5    C     C_R   0.702031 0.487524 0.376273 0.695618
C6    C     C_R   0.297972 0.512474 0.623730 0.695616
C7    C     C_R   0.797970 0.987527 0.123729 0.695619
C8    C     C_R   0.202029 0.012472 0.876271 0.695616
O17   O     O_3   0.736530 0.478650 0.191680 -0.378432
O18   O     O_3   0.263470 0.521350 0.808320 -0.378433
O19   O     O_3   0.763470 0.978650 0.308320 -0.378434
O20   O     O_3   0.236530 0.021350 0.691680 -0.378433
V1    V     V_3+5 0.752500 0.206170 0.260820 1.462531
V2    V     V_3+5 0.247500 0.793830 0.739180 1.462519
V3    V     V_3+5 0.747500 0.706170 0.239180 1.462505
V4    V     V_3+5 0.252500 0.293830 0.760820 1.462514
C9    C     C_R   0.826397 0.995890 0.049900 -0.081725
C10   C     C_R   0.173601 0.004094 0.950098 -0.081729
C11   C     C_R   0.673606 0.495871 0.450104 -0.081734
C12   C     C_R   0.326401 0.504100 0.549904 -0.081729
C13   C     C_R   0.820983 0.012415 0.886937 -0.056241
C14   C     C_R   0.179012 0.987259 0.113053 -0.056241
C15   C     C_R   0.679023 0.512221 0.613074 -0.056235
C16   C     C_R   0.320993 0.487214 0.386951 -0.056244
C17   C     C_R   0.791698 0.005218 0.955551 -0.083377
C18   C     C_R   0.208298 0.994523 0.044441 -0.083373
C19   C     C_R   0.708306 0.505044 0.544456 -0.083372
C20   C     C_R   0.291706 0.494522 0.455562 -0.083373
C21   C     C_R   0.889428 0.993396 0.076040 -0.212291
C22   C     C_R   0.110571 0.006732 0.923961 -0.212290
C23   C     C_R   0.610575 0.493469 0.423965 -0.212293
C24   C     C_R   0.389432 0.506731 0.576043 -0.212292
C25   C     C_R   0.920548 0.999738 0.009392 0.082309
C26   C     C_R   0.079449 0.000237 0.990604 0.082308
C27   C     C_R   0.579456 0.499677 0.490617 0.082310
C28   C     C_R   0.420555 0.500181 0.509403 0.082308
C29   C     C_R   0.885332 0.009626 0.913617 0.076490
C30   C     C_R   0.114664 0.990185 0.086376 0.076487
C31   C     C_R   0.614674 0.509484 0.586394 0.076485
C32   C     C_R   0.385341 0.490097 0.413632 0.076490
C33   C     C_R   0.985477 0.996468 0.035213 0.067129
C34   C     C_R   0.014519 0.003496 0.964782 0.067127
C35   C     C_R   0.514527 0.496370 0.464797 0.067131
C36   C     C_R   0.485486 0.503414 0.535227 0.067123
C37   C     C_R   0.977645 0.013639 0.870745 -0.179200
C38   C     C_R   0.022351 0.986229 0.129249 -0.179200
C39   C     C_R   0.522361 0.513521 0.629267 -0.179199
C40   C     C_R   0.477655 0.486029 0.370764 -0.179200
C41   C     C_R   0.915027 0.016514 0.846105 -0.163717
C42   C     C_R   0.084969 0.983256 0.153885 -0.163723
C43   C     C_R   0.584979 0.516348 0.653907 -0.163713
C44   C     C_R   0.415037 0.483074 0.346126 -0.163727
H1    H     H_    0.889962 0.024291 0.772523 0.146840
H2    H     H_    0.110032 0.975362 0.227465 0.146836
H3    H     H_    0.610045 0.524074 0.727491 0.146835
H4    H     H_    0.389975 0.475106 0.272548 0.146836
H5    H     H_    0.087483 0.014228 0.850227 0.101930
H6    H     H_    0.912517 0.986146 0.149780 0.101930
H7    H     H_    0.412519 0.514266 0.649776 0.101931
H8    H     H_    0.587484 0.486411 0.350220 0.101932
H9    H     H_    0.995356 0.019675 0.813054 0.127551
H10   H     H_    0.004639 0.980104 0.186937 0.127550
H11   H     H_    0.504650 0.519530 0.686958 0.127550
H12   H     H_    0.495368 0.479760 0.313080 0.127550
C45   C     C_1   0.416754 0.006984 0.918777 -0.158598
C46   C     C_1   0.583246 0.993015 0.081222 -0.158597
C47   C     C_1   0.083246 0.506982 0.581222 -0.158601
C48   C     C_1   0.916754 0.493018 0.418778 -0.158596
C49   C     C_1   0.469140 0.002404 0.969985 0.020652
C50   C     C_1   0.530860 0.997595 0.030014 0.020653
C51   C     C_1   0.030860 0.502403 0.530015 0.020652
C52   C     C_1   0.969140 0.497597 0.469986 0.020653
C53   C     C_1   0.273924 0.992165 0.070493 0.312399
N1    N     N_1   0.326270 0.990304 0.091242 -0.354440
C54   C     C_1   0.726071 0.007412 0.929497 0.312386
N2    N     N_1   0.673725 0.009142 0.908746 -0.354446
C55   C     C_1   0.226079 0.492211 0.429506 0.312402
N3    N     N_1   0.173733 0.490391 0.408756 -0.354442
C56   C     C_1   0.773934 0.507110 0.570510 0.312399
N4    N     N_1   0.826280 0.508734 0.591259 -0.354451
C57   C     C_1   0.784547 0.022455 0.789400 0.334220
N5    N     N_1   0.755466 0.030428 0.711739 -0.344019
C58   C     C_1   0.215446 0.976969 0.210583 0.334236
N6    N     N_1   0.244524 0.968794 0.288240 -0.344014
C59   C     C_1   0.715461 0.522184 0.710610 0.334225
N7    N     N_1   0.744544 0.530098 0.788273 -0.344012
C60   C     C_1   0.284559 0.476927 0.289421 0.334234
N8    N     N_1   0.255482 0.468755 0.211763 -0.344014

loop_
_geom_bond_atom_site_label_1
_geom_bond_atom_site_label_2
_ccdc_geom_bond_type
O17   V3    S    
C47   C51   T    
C51   C52   S    
O1    C5    A    
C55   N3    T    
O19   V1    S    
C9    C21   A    
O3    C7    A    
C56   N4    T    
C10   C18   A    
O15   V3    S    
C13   C57   S    
C57   N5    T    
C25   C33   A    
C33   C38   A    
C39   H11   S    
C49   C50   S    
O7    C3    A    
C35   C40   A    
C26   C30   A    
C36   C39   A    
C40   C44   A    
O9    V1    S    
C23   H8    S    
C14   C18   A    
O4    C8    A    
C25   C29   A    
C2    C47   S    
O1    V3    S    
O13   V1    S    
O2    V4    S    
O3    V1    S    
C20   C55   S    
C28   C36   A    
C1    O15   A    
C15   C31   A    
C37   H9    S    
C7    C9    S    
O2    C6    A    
C19   C56   S    
C10   C22   A    
C11   C19   A    
C16   C20   A    
C43   H3    S    
C44   H4    S    
C13   C29   A    
C34   C37   A    
O11   C7    A    
C11   C23   A    
C35   C36   A    
O12   C8    A    
C40   H12   S    
C24   H7    S    
O10   V2    S    
C15   C59   S    
O5    V1    S    
C3    C46   S    
C39   C43   A    
O7    V3    S    
C38   C42   A    
O8    V4    S    
C59   N7    T    
C2    O16   A    
C54   N2    T    
O18   V4    S    
C23   C27   A    
C16   C32   A    
C32   C44   A    
C8    C10   S    
C21   H6    S    
C26   C34   A    
O5    C1    A    
C31   C43   A    
C58   N6    T    
C14   C30   A    
C21   C25   A    
O8    C4    A    
O9    C5    A    
O14   V2    S    
O6    V2    S    
C12   C20   A    
C27   C35   A    
C29   C41   A    
O16   V4    S    
C3    O13   A    
C17   C54   S    
C38   H10   S    
C48   C52   T    
C14   C58   S    
O6    C2    A    
C15   C19   A    
O11   V3    S    
C30   C42   A    
O12   V4    S    
C6    C12   S    
C22   C26   A    
C18   C53   S    
C9    C17   A    
O10   C6    A    
O20   V2    S    
C5    C11   S    
C46   C50   T    
C16   C60   S    
C33   C34   A    
C42   H2    S    
C41   H1    S    
C4    C45   S    
C12   C24   A    
C27   C31   A    
C13   C17   A    
C45   C49   T    
C1    C48   S    
C37   C41   A    
C24   C28   A    
C4    O14   A    
C60   N8    T    
C53   N1    T    
C22   H5    S    
O4    V2    S    
C28   C32   A    
