data_mof_unit_24422.cif
_audit_creation_date              2012-12-10T19:33:30-0500
_audit_creation_method            fapswitch 2.2
_symmetry_space_group_name_H-M    P1
_symmetry_Int_Tables_number       1
_space_group_crystal_system       triclinic
_cell_length_a                    10.948888
_cell_length_b                    15.816477
_cell_length_c                    17.022581
_cell_angle_alpha                 95.779717
_cell_angle_beta                  89.679662
_cell_angle_gamma                 93.329406
_cell_volume                      2927.91263683

loop_
_atom_site_label
_atom_site_type_symbol
_atom_type_description
_atom_site_fract_x
_atom_site_fract_y
_atom_site_fract_z
_atom_type_partial_charge
C1    C     C_R   0.497130 0.490002 0.348543 0.890626
C2    C     C_R   0.415428 0.545509 0.228539 0.276413
C3    C     C_R   0.413281 0.546244 0.146325 0.348125
C4    C     C_R   0.459454 0.477148 0.097388 0.020740
C5    C     C_R   0.512390 0.411445 0.132443 0.292979
C6    C     C_R   0.534406 0.419485 0.213922 0.271819
C7    C     C_R   0.401230 0.443936 0.853671 0.432968
C8    C     C_R   0.428638 0.439102 0.772726 0.269886
C9    C     C_R   0.419854 0.522500 0.900672 0.132121
C10   C     C_R   0.471420 0.513401 0.737874 -0.330517
C11   C     C_R   0.484198 0.592050 0.785574 0.416309
C12   C     C_R   0.265013 0.500413 0.504184 0.754889
C13   C     C_R   0.455299 0.595845 0.865712 -0.356062
C14   C     C_R   0.439165 0.750078 0.462659 -0.084006
C15   C     C_R   0.442981 0.839555 0.462134 0.273362
C16   C     C_R   0.525287 0.890865 0.514137 0.182628
C17   C     C_R   0.604842 0.848887 0.560346 0.256955
C18   C     C_R   0.596553 0.759684 0.557854 -0.013967
C19   C     C_R   0.553778 0.159016 0.536407 -0.492022
C20   C     C_R   0.561562 0.248653 0.536965 0.592000
C21   C     C_R   0.469134 0.109018 0.487335 0.171119
C22   C     C_R   0.400667 0.241044 0.442133 0.450951
C23   C     C_R   0.494667 0.509740 0.651791 0.860993
C24   C     C_R   0.389028 0.150894 0.441792 0.294934
C25   C     C_R   0.734976 0.500559 0.497394 0.871071
C26   C     C_2   0.938213 0.574737 0.507327 0.447677
C27   C     C_2   0.867232 0.502365 0.490617 -0.472103
C28   C     C_2   0.073155 0.574038 0.509445 0.294628
C29   C     C_2   0.133419 0.502242 0.518227 0.161404
C30   C     C_R   0.482979 0.485166 0.262580 -0.371755
Cu1   Cu    Cu3+1 0.494040 0.415220 0.496180 1.018836
Cu2   Cu    Cu3+1 0.505960 0.584780 0.503820 0.967916
H1    H     H_    0.466536 0.656169 0.901953 0.191307
H2    H     H_    0.612961 0.128953 0.574508 0.207712
H3    H     H_    0.657064 0.728206 0.593970 0.187774
H4    H     H_    0.905695 0.442508 0.470347 0.168703
H5    H     H_    0.374127 0.710405 0.426061 0.191822
N1    N     N_2   0.461206 0.471725 0.013450 -0.130361
N2    N     N_2   0.410450 0.529362 0.983780 -0.150665
N3    N     N_R   0.514910 0.712130 0.509560 -0.222200
N4    N     N_2   0.533270 0.982784 0.522438 -0.204577
N5    N     N_2   0.462886 0.017463 0.479516 -0.120041
N6    N     N_R   0.485090 0.287850 0.490450 -0.270315
O1    O     O_R   0.494430 0.420530 0.382500 -0.509214
O2    O     O_R   0.504490 0.563720 0.388950 -0.577393
O3    O     O_R   0.316910 0.428420 0.496780 -0.580939
O4    O     O_R   0.326970 0.571610 0.503230 -0.568421
O5    O     O_R   0.495510 0.436280 0.611050 -0.517150
O6    O     O_R   0.505570 0.579470 0.617500 -0.545343
O7    O     O_R   0.673030 0.428390 0.496770 -0.557295
O8    O     O_R   0.683090 0.571580 0.503220 -0.545115
O9    O     O_3   0.886189 0.652299 0.525666 -0.573715
C31   C     C_3   0.877335 0.693352 0.456070 -0.272867
H6    H     H_    0.828441 0.652005 0.408023 0.151728
H7    H     H_    0.968677 0.715814 0.435274 0.193440
H8    H     H_    0.823628 0.750252 0.469299 0.161935
O10   O     O_3   0.358034 0.611646 0.114789 -0.538121
C32   C     C_3   0.444157 0.681516 0.114538 -0.267031
H9    H     H_    0.403890 0.731023 0.082698 0.180048
H10   H     H_    0.529585 0.663597 0.082795 0.148890
H11   H     H_    0.466014 0.709848 0.175662 0.177240
O11   O     O_3   0.357013 0.608148 0.274695 -0.597498
C33   C     C_3   0.245686 0.573581 0.304201 0.079646
H12   H     H_    0.218408 0.617749 0.355127 0.196031
H13   H     H_    0.255029 0.510669 0.327067 0.104567
C34   C     C_3   0.143441 0.566768 0.242304 -0.316283
H14   H     H_    0.139855 0.628203 0.216150 0.247047
H15   H     H_    0.162179 0.516020 0.194483 0.215566
C35   C     C_3   0.019610 0.545226 0.279178 -0.987633
H16   H     H_    0.022702 0.486514 0.309659 0.249003
H17   H     H_    0.948348 0.535201 0.232510 0.259090
H18   H     H_    0.994537 0.598410 0.322575 0.257500
O12   O     O_3   0.640320 0.298485 0.588273 -0.508440
C36   C     C_3   0.762247 0.275895 0.575038 -0.267424
H19   H     H_    0.824237 0.329200 0.601017 0.195064
H20   H     H_    0.784889 0.265408 0.510974 0.148682
H21   H     H_    0.781288 0.219074 0.605309 0.144300
O13   O     O_3   0.688858 0.894434 0.610885 -0.594408
C37   C     C_3   0.789283 0.926104 0.567371 0.085810
H22   H     H_    0.788078 0.996657 0.571864 0.163335
H23   H     H_    0.788255 0.902713 0.503114 0.106433
C38   C     C_3   0.908160 0.901617 0.603529 -0.343029
H24   H     H_    0.914844 0.929926 0.665933 0.226535
H25   H     H_    0.907250 0.831254 0.602813 0.236171
C39   C     C_3   0.019950 0.932534 0.558129 -0.937681
H26   H     H_    0.017028 0.902938 0.496091 0.258644
H27   H     H_    0.104493 0.914427 0.586346 0.265081
H28   H     H_    0.023174 0.002906 0.558592 0.247105
O14   O     O_3   0.339515 0.281640 0.386564 -0.566796
C40   C     C_3   0.210805 0.275629 0.396974 0.160000
H29   H     H_    0.178394 0.340827 0.407951 0.164103
H30   H     H_    0.179851 0.242190 0.448585 0.120675
C41   C     C_3   0.148185 0.235670 0.320811 -0.341019
H31   H     H_    0.160633 0.280166 0.274463 0.200694
H32   H     H_    0.190113 0.175838 0.298417 0.271743
C42   C     C_3   0.011784 0.216726 0.334181 -0.949074
H33   H     H_    0.997215 0.173154 0.381025 0.254126
H34   H     H_    0.969593 0.185411 0.278829 0.264703
H35   H     H_    0.966121 0.276615 0.351975 0.258163
O15   O     O_3   0.360806 0.876897 0.416496 -0.595701
C43   C     C_3   0.369469 0.845430 0.335996 0.056259
H36   H     H_    0.314168 0.784195 0.324939 0.171716
H37   H     H_    0.466191 0.835944 0.317598 0.132695
C44   C     C_3   0.317754 0.909720 0.285713 -0.284641
H38   H     H_    0.221723 0.920653 0.303651 0.223362
H39   H     H_    0.372857 0.971069 0.295625 0.265117
C45   C     C_3   0.320342 0.878707 0.198013 -0.957894
H40   H     H_    0.416076 0.870409 0.178160 0.249624
H41   H     H_    0.280558 0.926469 0.163629 0.263380
H42   H     H_    0.265714 0.817335 0.186400 0.272099
O16   O     O_3   0.306544 0.103961 0.391049 -0.579636
C46   C     C_3   0.210782 0.067055 0.434885 -0.336072
H43   H     H_    0.181923 0.109462 0.486998 0.134993
H44   H     H_    0.236173 0.005920 0.454646 0.246216
H45   H     H_    0.130022 0.052680 0.395799 0.177518
O17   O     O_3   0.137596 0.650282 0.499038 -0.606357
C47   C     C_3   0.157179 0.696886 0.573631 -0.232425
H46   H     H_    0.207295 0.660352 0.614451 0.154757
H47   H     H_    0.069941 0.716768 0.601286 0.181483
H48   H     H_    0.214123 0.755642 0.565372 0.186606
O18   O     O_3   0.076316 0.430642 0.546242 -0.620184
C48   C     C_3   0.056988 0.447732 0.628312 -0.397955
H49   H     H_    0.979851 0.489774 0.640459 0.180008
H50   H     H_    0.140522 0.476733 0.659833 0.134537
H51   H     H_    0.032082 0.386901 0.653100 0.193309
O19   O     O_3   0.422838 0.359600 0.729996 -0.530156
C49   C     C_3   0.302665 0.339463 0.701084 0.110232
H52   H     H_    0.289787 0.370418 0.646278 0.166196
H53   H     H_    0.231078 0.360234 0.744311 0.108883
C50   C     C_3   0.284591 0.243139 0.681608 -0.275739
H54   H     H_    0.353645 0.221069 0.637402 0.215350
H55   H     H_    0.297838 0.211319 0.736005 0.237601
C51   C     C_3   0.157007 0.217543 0.648572 -0.990141
H56   H     H_    0.086117 0.237084 0.692574 0.260361
H57   H     H_    0.147315 0.147355 0.634830 0.258839
H58   H     H_    0.142318 0.247841 0.593573 0.266256
O20   O     O_3   0.363599 0.369712 0.886071 -0.537853
C52   C     C_3   0.241317 0.374412 0.912663 -0.326078
H59   H     H_    0.182907 0.408228 0.874048 0.124524
H60   H     H_    0.238082 0.405204 0.974071 0.188841
H61   H     H_    0.200357 0.308655 0.913150 0.180883
O21   O     O_3   0.552416 0.341526 0.086108 -0.578412
C53   C     C_3   0.452718 0.281210 0.069573 0.111884
H62   H     H_    0.475343 0.240859 0.014797 0.186786
H63   H     H_    0.366046 0.311210 0.057114 0.137167
C54   C     C_3   0.433160 0.223775 0.136693 -0.347810
H64   H     H_    0.520299 0.194778 0.148821 0.239031
H65   H     H_    0.404502 0.262067 0.191258 0.249924
C55   C     C_3   0.334353 0.153187 0.115762 -0.942110
H66   H     H_    0.245780 0.180963 0.105032 0.252935
H67   H     H_    0.322508 0.113056 0.165497 0.271734
H68   H     H_    0.360853 0.112312 0.062194 0.262111
O22   O     O_3   0.605044 0.361789 0.245994 -0.568673
C56   C     C_3   0.730768 0.383585 0.233885 0.113951
H69   H     H_    0.773386 0.404508 0.292276 0.129073
H70   H     H_    0.748905 0.436668 0.195829 0.121074
C57   C     C_3   0.792996 0.305105 0.196857 -0.303413
H71   H     H_    0.788860 0.255657 0.238870 0.209799
H72   H     H_    0.743751 0.278461 0.142269 0.256476
C58   C     C_3   0.926070 0.326793 0.175709 -0.953484
H73   H     H_    0.931120 0.373585 0.131150 0.265663
H74   H     H_    0.969211 0.268230 0.150582 0.258727
H75   H     H_    0.977911 0.353893 0.229020 0.264175
O23   O     O_3   0.521666 0.666522 0.754073 -0.543182
C59   C     C_3   0.648530 0.681715 0.766976 -0.268615
H76   H     H_    0.700743 0.629734 0.736315 0.151853
H77   H     H_    0.670872 0.690082 0.831104 0.148178
H78   H     H_    0.678670 0.741698 0.742154 0.193053

loop_
_geom_bond_atom_site_label_1
_geom_bond_atom_site_label_2
_ccdc_geom_bond_type
C53   C54   S    
C34   H15   S    
C33   H13   S    
C57   H71   S    
C12   C29   S    
N4    N5    D    
O16   C46   S    
C15   O15   S    
C44   H39   S    
O10   C32   S    
C7    C8    A    
C31   H6    S    
C10   C11   A    
C26   C27   D    
C59   H76   S    
Cu1   N6    S    
O23   C59   S    
C19   C21   A    
C53   H62   S    
C47   H47   S    
C5    C6    A    
C23   O6    A    
C34   C35   S    
C32   H10   S    
C15   C16   A    
C42   H35   S    
C9    N2    S    
C57   C58   S    
O17   C47   S    
C53   H63   S    
O12   C36   S    
C35   H17   S    
C9    C13   A    
C25   O7    A    
C44   H38   S    
C18   N3    A    
C28   O17   S    
C22   N6    A    
C16   C17   A    
C36   H21   S    
C42   H34   S    
C51   H58   S    
C45   H40   S    
C18   H3    S    
C56   H70   S    
C31   H8    S    
C32   H11   S    
C39   H27   S    
C34   H14   S    
C33   C34   S    
C43   H37   S    
C45   H41   S    
C24   O16   S    
C12   O4    A    
C46   H44   S    
C46   H43   S    
C54   H65   S    
C31   H7    S    
C41   H32   S    
C5    O21   S    
Cu1   O1    S    
C43   H36   S    
C46   H45   S    
C37   H22   S    
C56   C57   S    
C12   O3    A    
C58   H75   S    
C36   H19   S    
C55   H68   S    
C37   H23   S    
O13   C37   S    
C32   H9    S    
C39   H26   S    
Cu1   O3    S    
C21   N5    S    
C29   O18   S    
C58   H74   S    
C57   H72   S    
C35   H18   S    
C50   H55   S    
C49   H53   S    
Cu2   O8    S    
C13   H1    S    
O11   C33   S    
C26   O9    S    
C54   C55   S    
C1    O1    A    
C40   H30   S    
Cu1   Cu2   S    
C42   H33   S    
C17   C18   A    
C56   H69   S    
Cu2   O2    S    
O18   C48   S    
C52   H60   S    
C3    O10   S    
C8    C10   A    
C6    C30   A    
C4    N1    S    
C59   H78   S    
C38   H25   S    
Cu1   O5    S    
C51   H56   S    
C27   H4    S    
C45   H42   S    
C22   C24   A    
C47   H48   S    
C50   C51   S    
C25   C27   S    
C36   H20   S    
Cu1   O7    S    
C48   H50   S    
C3    C4    A    
O14   C40   S    
C20   N6    A    
O9    C31   S    
C40   C41   S    
C7    O20   S    
C54   H64   S    
O20   C52   S    
C39   H28   S    
C8    O19   S    
C7    C9    A    
C28   C29   D    
C23   O5    A    
O21   C53   S    
C4    C5    A    
C52   H61   S    
C37   C38   S    
C11   O23   S    
C10   C23   S    
C41   C42   S    
C38   C39   S    
C41   H31   S    
C26   C28   S    
C25   O8    A    
C2    C30   A    
C17   O13   S    
C58   H73   S    
C19   C20   A    
C55   H67   S    
C2    C3    A    
C48   H49   S    
C49   C50   S    
C55   H66   S    
C14   H5    S    
C11   C13   A    
C1    O2    A    
C40   H29   S    
N1    N2    D    
C48   H51   S    
O19   C49   S    
C1    C30   S    
Cu2   O4    S    
C22   O14   S    
C20   O12   S    
C50   H54   S    
C19   H2    S    
Cu2   N3    S    
C35   H16   S    
Cu2   O6    S    
C6    O22   S    
C52   H59   S    
C14   N3    A    
C33   H12   S    
C2    O11   S    
C59   H77   S    
C38   H24   S    
C21   C24   A    
C51   H57   S    
C14   C15   A    
O15   C43   S    
C43   C44   S    
O22   C56   S    
C47   H46   S    
C16   N4    S    
C44   C45   S    
C49   H52   S    
