data_mof_unit_11171.cif
_audit_creation_date              2013-03-05T16:09:36-0500
_audit_creation_method            fapswitch 2.2
_symmetry_space_group_name_H-M    P1
_symmetry_Int_Tables_number       1
_space_group_crystal_system       triclinic
_cell_length_a                    11.085453
_cell_length_b                    10.666801
_cell_length_c                    9.948165
_cell_angle_alpha                 91.640151
_cell_angle_beta                  103.74646
_cell_angle_gamma                 94.119889
_cell_volume                      1138.41894515

loop_
_atom_site_label
_atom_site_type_symbol
_atom_site_description
_atom_site_fract_x
_atom_site_fract_y
_atom_site_fract_z
_atom_type_partial_charge
O1    O     O_R   0.499990 0.316750 0.614620 -0.633219
O2    O     O_R   0.500010 0.683250 0.385380 -0.625754
O3    O     O_R   0.499990 0.316780 0.385290 -0.612191
O4    O     O_R   0.500010 0.683220 0.614710 -0.586625
C1    C     C_R   0.498872 0.260621 0.498209 0.931606
C2    C     C_R   0.504302 0.739419 0.502703 0.928281
O5    O     O_R   0.317810 0.500000 0.571850 -0.562180
O6    O     O_R   0.682190 0.500000 0.428150 -0.587017
O7    O     O_R   0.317810 0.500030 0.342520 -0.645999
O8    O     O_R   0.682190 0.499970 0.657480 -0.632557
C3    C     C_R   0.261067 0.500734 0.443312 0.969039
C4    C     C_R   0.738905 0.508965 0.556688 0.988288
Zn1   Zn    Zn3+2 0.500000 0.499980 0.653120 1.003672
Zn2   Zn    Zn3+2 0.500000 0.500020 0.346880 1.005872
C5    C     C_R   0.548558 0.602265 0.089435 -0.107250
C6    C     C_R   0.478014 0.392882 0.917939 -0.120293
C7    C     C_R   0.542140 0.605556 0.944936 0.054978
C8    C     C_R   0.444906 0.397698 0.047027 0.129067
H1    H     H_    0.588273 0.683420 0.157526 0.185301
H2    H     H_    0.470196 0.305681 0.857742 0.141630
C9    C     C_2   0.129432 0.513330 0.414390 -0.386786
C10   C     C_2   0.872309 0.523258 0.585134 -0.330680
C11   C     C_2   0.063708 0.499770 0.512495 -0.086809
C12   C     C_2   0.933531 0.529782 0.481769 -0.061402
H3    H     H_    0.919897 0.515125 0.692814 0.159270
H4    H     H_    0.088644 0.543951 0.311797 0.191676
C13   C     C_R   0.607475 0.074347 0.482744 -0.100838
C14   C     C_R   0.396467 0.925566 0.518111 -0.086942
C15   C     C_R   0.611958 0.944400 0.488291 -0.123413
C16   C     C_R   0.393358 0.055721 0.517244 -0.119714
C17   C     C_R   0.505717 0.872259 0.506253 -0.173177
C18   C     C_R   0.498113 0.127689 0.495164 -0.183964
N1    N     N_R   0.499970 0.499970 0.857200 -0.097967
N2    N     N_R   0.500030 0.500030 0.142800 -0.104445
C19   C     C_2   0.872750 0.559943 0.336426 0.993081
O9    O     O_2   0.831675 0.662317 0.312831 -0.619144
O10   O     O_R   0.862372 0.470397 0.227964 -0.813357
H5    H     H_    0.818848 0.501486 0.134902 0.335145
C20   C     C_2   0.114850 0.449340 0.650915 0.955262
O11   O     O_2   0.081372 0.342112 0.673528 -0.636655
O12   O     O_R   0.186559 0.529680 0.758472 -0.780002
H6    H     H_    0.206511 0.488243 0.850550 0.334753
C21   C     C_R   0.593788 0.722124 0.897470 0.123917
C22   C     C_R   0.715824 0.730637 0.879462 -0.086652
C23   C     C_R   0.770761 0.846067 0.851490 -0.084355
C24   C     C_R   0.704243 0.953313 0.841133 -0.119180
C25   C     C_R   0.582993 0.945622 0.859982 -0.115311
C26   C     C_R   0.528291 0.830714 0.889617 -0.081175
H7    H     H_    0.769391 0.648951 0.890753 0.133833
H8    H     H_    0.865161 0.852530 0.838409 0.160363
H9    H     H_    0.746767 0.042397 0.818892 0.167755
H10   H     H_    0.531779 0.028850 0.852674 0.149212
H11   H     H_    0.435530 0.826441 0.907653 0.173225
C27   C     C_R   0.329859 0.303246 0.045297 0.012760
C28   C     C_R   0.279607 0.271663 0.158589 -0.067725
C29   C     C_R   0.175228 0.185800 0.147014 -0.128752
C30   C     C_R   0.114867 0.127592 0.020740 -0.134748
C31   C     C_R   0.157027 0.157023 0.904882 0.002932
C32   C     C_R   0.260364 0.243316 0.915954 -0.162850
H12   H     H_    0.315019 0.310419 0.257219 0.224623
H13   H     H_    0.139059 0.164623 0.235983 0.193370
H14   H     H_    0.033999 0.061868 0.012261 0.150840
H15   H     H_    0.107251 0.115031 0.805095 0.222956
H16   H     H_    0.279855 0.264664 0.817845 0.182667
C33   C     C_2   0.720477 0.155930 0.477006 0.944120
O13   O     O_2   0.810595 0.165080 0.576391 -0.622302
O14   O     O_R   0.724146 0.219626 0.357123 -0.737538
H17   H     H_    0.807175 0.269168 0.364886 0.368853
C34   C     C_2   0.282420 0.844368 0.520339 0.942547
O15   O     O_2   0.196988 0.830284 0.416337 -0.632688
O16   O     O_R   0.271567 0.788507 0.642542 -0.757550
H18   H     H_    0.186524 0.742759 0.633300 0.370961
C35   C     C_2   0.727373 0.885514 0.475718 0.957576
O17   O     O_2   0.763423 0.797782 0.546682 -0.652917
O18   O     O_R   0.796334 0.932751 0.384712 -0.753786
H19   H     H_    0.878104 0.893071 0.394134 0.389046
C36   C     C_2   0.281332 0.115260 0.540074 0.905960
O19   O     O_2   0.220992 0.068362 0.616596 -0.622441
O20   O     O_R   0.243835 0.223807 0.473373 -0.866782
H20   H     H_    0.158542 0.244612 0.482644 0.360695

loop_
_geom_bond_atom_site_label_1
_geom_bond_atom_site_label_2
_geom_bond_distance
_ccdc_geom_bond_type
C22   H7    1.082908 S    
C28   C29   1.403318 A    
C13   C15   1.392762 A    
C35   O17   1.221191 D    
C14   C34   1.485290 S    
C9    H4    1.083398 S    
C30   H14   1.082872 S    
C20   O12   1.398780 S    
C36   O19   1.221839 D    
O5    C3    1.284469 A    
C32   H16   1.075641 S    
O1    C1    1.285369 A    
C19   O10   1.398588 S    
C15   C35   1.494707 S    
C4    C10   1.434071 S    
C29   C30   1.381111 A    
O12   H6    1.012076 S    
O4    Zn1   2.002287 S    
C34   O16   1.395757 S    
C24   C25   1.397614 A    
C16   C36   1.495414 S    
C19   O9    1.220739 D    
C33   O14   1.396815 S    
C10   H3    1.084739 S    
C11   C12   1.463119 S    
C21   C26   1.404997 A    
C5    N2    1.358321 A    
C6    H2    1.078512 S    
C1    C18   1.416788 S    
C2    C17   1.415269 S    
C28   H12   1.028656 S    
C35   O18   1.399153 S    
O2    C2    1.285672 A    
C7    N1    1.386709 A    
C27   C32   1.438355 A    
C36   O20   1.391319 S    
C26   H11   1.083090 S    
C12   C19   1.497622 S    
O14   H17   1.013105 S    
O4    C2    1.289396 A    
C20   O11   1.220654 D    
O7    Zn2   2.009802 S    
C31   C32   1.397981 A    
C23   C24   1.398174 A    
C24   H9    1.082302 S    
C3    C9    1.435639 S    
C5    H1    1.082577 S    
O18   H19   1.013217 S    
C7    C21   1.468551 S    
Zn1   N1    2.030303 S    
O10   H5    1.013979 S    
C13   C33   1.486590 S    
C6    N1    1.341128 A    
O7    C3    1.304270 A    
C25   C26   1.398508 A    
O6    C4    1.281334 A    
C8    N2    1.428492 A    
O3    Zn2   2.002286 S    
O8    C4    1.306265 A    
C9    C11   1.354668 D    
C21   C22   1.403188 A    
C10   C12   1.360807 D    
O1    Zn1   1.980852 S    
C22   C23   1.398837 A    
C31   H15   1.081324 S    
C5    C7    1.423853 A    
C27   C28   1.409681 A    
O6    Zn2   1.989151 S    
C13   C18   1.405358 A    
C14   C17   1.402494 A    
O3    C1    1.290333 A    
O8    Zn1   2.009802 S    
Zn2   N2    2.030304 S    
C25   H10   1.082706 S    
C14   C16   1.391455 A    
O16   H18   1.012653 S    
C15   C17   1.410257 A    
C16   C18   1.410277 A    
C30   C31   1.378786 A    
C23   H8    1.082426 S    
C11   C20   1.490696 S    
C34   O15   1.222670 D    
O2    Zn2   1.980852 S    
C8    C27   1.563911 S    
O20   H20   1.011023 S    
O5    Zn1   1.989152 S    
C6    C8    1.417536 A    
C33   O13   1.223153 D    
C29   H13   1.078065 S    
