data_mof_unit_51100.cif
_audit_creation_date              2012-12-10T17:02:29-0500
_audit_creation_method            fapswitch 2.2
_symmetry_space_group_name_H-M    P1
_symmetry_Int_Tables_number       1
_space_group_crystal_system       triclinic
_cell_length_a                    10.856893
_cell_length_b                    11.028185
_cell_length_c                    10.002978
_cell_angle_alpha                 111.328273
_cell_angle_beta                  99.772123
_cell_angle_gamma                 93.658872
_cell_volume                      1089.13002363

loop_
_atom_site_label
_atom_site_type_symbol
_atom_type_description
_atom_site_fract_x
_atom_site_fract_y
_atom_site_fract_z
_atom_type_partial_charge
C1    C     C_R   0.491753 0.254270 0.439974 0.815699
C2    C     C_R   0.501459 0.744929 0.559818 0.866776
C3    C     C_2   0.473326 0.113818 0.405923 -0.304154
C4    C     C_2   0.511304 0.885463 0.594890 -0.301100
C5    C     C_2   0.522710 0.063016 0.503644 0.203638
C6    C     C_2   0.462271 0.934527 0.495617 0.177407
C7    C     C_2   0.498694 0.525216 0.085130 -0.032920
C8    C     C_2   0.476588 0.502639 0.921770 -0.019497
C9    C     C_R   0.262518 0.505035 0.498630 0.769178
C10   C     C_R   0.737702 0.505163 0.502821 0.835738
C11   C     C_R   0.179328 0.715093 0.727807 -0.116697
C12   C     C_R   0.836713 0.289385 0.311987 -0.138959
C13   C     C_R   0.140079 0.813019 0.838849 -0.116208
C14   C     C_R   0.873460 0.200204 0.190998 -0.129116
C15   C     C_R   0.013196 0.826079 0.827754 -0.171140
C16   C     C_R   0.979230 0.236888 0.146012 -0.239629
C17   C     C_R   0.924317 0.738775 0.707121 0.083023
C18   C     C_R   0.054393 0.357990 0.229922 0.007911
C19   C     C_R   0.960305 0.622918 0.608184 0.068394
C20   C     C_R   0.034713 0.431303 0.373175 0.075474
C21   C     C_R   0.090802 0.617062 0.611881 0.053004
C22   C     C_R   0.914056 0.410397 0.398857 0.026316
C23   C     C_R   0.872726 0.512647 0.506546 -0.160351
C24   C     C_R   0.128408 0.519996 0.493246 -0.149612
Cu1   Cu    Cu3+1 0.521920 0.521810 0.644910 0.971403
Cu2   Cu    Cu3+1 0.478080 0.478190 0.355090 1.000228
H1    H     H_    0.995589 0.176427 0.039463 0.135332
H2    H     H_    0.985815 0.911946 0.906206 0.130028
H3    H     H_    0.279573 0.721643 0.733345 0.165449
H4    H     H_    0.748165 0.262974 0.337086 0.135189
H5    H     H_    0.209168 0.885638 0.927669 0.164369
H6    H     H_    0.813757 0.108076 0.124664 0.156938
H7    H     H_    0.577304 0.946183 0.695202 0.126776
H8    H     H_    0.402570 0.056108 0.308608 0.151667
N1    N     N_2   0.445130 0.445420 0.137360 -0.238952
N2    N     N_2   0.554870 0.554580 0.862640 -0.250928
O1    O     O_R   0.511700 0.332340 0.577400 -0.609929
O2    O     O_R   0.488300 0.667660 0.422600 -0.562032
O3    O     O_R   0.474680 0.295500 0.332650 -0.546326
O4    O     O_R   0.525320 0.704500 0.667350 -0.574532
O5    O     O_R   0.338170 0.518410 0.622370 -0.601607
O6    O     O_R   0.661830 0.481590 0.377630 -0.612060
O7    O     O_R   0.301150 0.481570 0.377630 -0.543376
O8    O     O_R   0.698850 0.518430 0.622370 -0.566224
C25   C     C_2   0.806740 0.789901 0.671977 0.339041
H9    H     H_    0.760845 0.844747 0.759127 0.095100
O9    O     O_2   0.767209 0.781865 0.546976 -0.592817
C26   C     C_2   0.115896 0.421330 0.145929 0.489162
H10   H     H_    0.136466 0.361637 0.041313 0.112622
O10   O     O_2   0.136771 0.540878 0.187858 -0.519989
C27   C     C_3   0.342220 0.863559 0.382099 -0.729595
H11   H     H_    0.270762 0.932042 0.388673 0.202476
H12   H     H_    0.362023 0.827376 0.270088 0.276957
H13   H     H_    0.297511 0.779643 0.401273 0.245161
C28   C     C_3   0.643719 0.132267 0.616726 -0.809920
H14   H     H_    0.712420 0.061509 0.614410 0.242940
H15   H     H_    0.692947 0.211520 0.593619 0.230181
H16   H     H_    0.622493 0.174226 0.728060 0.210151
C29   C     C_2   0.352742 0.430553 0.832231 0.437379
H17   H     H_    0.346541 0.350906 0.727506 0.086132
O11   O     O_2   0.256143 0.458428 0.876510 -0.544484
C30   C     C_2   0.574583 0.650941 0.187418 0.440380
H18   H     H_    0.646541 0.653466 0.277609 0.153400
O12   O     O_2   0.560695 0.752663 0.167809 -0.550715
C31   C     C_2   0.684646 0.590157 0.933648 0.679232
H19   H     H_    0.727303 0.544290 0.006288 -0.051195
O13   O     O_2   0.749865 0.673296 0.913308 -0.552869
C32   C     C_2   0.409268 0.310393 0.043002 0.617440
H20   H     H_    0.449759 0.266598 0.947037 -0.062049
O14   O     O_2   0.333027 0.241137 0.069996 -0.578708

loop_
_geom_bond_atom_site_label_1
_geom_bond_atom_site_label_2
_ccdc_geom_bond_type
C19   C23   A    
C28   H14   S    
C9    C24   S    
C30   H18   S    
C12   C22   A    
C6    C27   S    
C10   O6    A    
C2    O2    A    
C1    O3    A    
C9    O5    A    
C31   O13   D    
C13   C15   A    
C1    O1    A    
C27   H13   S    
Cu1   O1    S    
Cu1   O4    S    
C20   C24   A    
C16   H1    S    
C26   O10   D    
C9    O7    A    
C29   H17   S    
C7    C30   S    
Cu1   O5    S    
C25   H9    S    
C11   C13   A    
C11   H3    S    
C15   H2    S    
N1    C32   S    
C5    C28   S    
C2    C4    S    
Cu1   O8    S    
C16   C18   A    
C26   H10   S    
C19   C21   A    
C12   C14   A    
Cu2   O7    S    
C18   C20   A    
C28   H15   S    
C8    C29   S    
C5    C6    S    
C10   C23   S    
C17   C25   S    
C14   C16   A    
Cu2   O3    S    
C28   H16   S    
C29   O11   D    
C21   C24   A    
Cu1   N2    S    
C10   O8    A    
C27   H11   S    
C2    O4    A    
Cu2   N1    S    
C7    C8    S    
Cu2   O6    S    
C4    C6    D    
C31   H19   S    
C8    N2    D    
C25   O9    D    
C14   H6    S    
C1    C3    S    
C15   C17   A    
C32   O14   D    
C13   H5    S    
C4    H7    S    
C17   C19   A    
C30   O12   D    
C3    H8    S    
C12   H4    S    
Cu1   Cu2   S    
N2    C31   S    
C7    N1    D    
C11   C21   A    
C22   C23   A    
Cu2   O2    S    
C27   H12   S    
C20   C22   A    
C32   H20   S    
C3    C5    D    
C18   C26   S    
