data_mof_unit_28535.cif
_audit_creation_date              2012-12-11T14:43:58-0500
_audit_creation_method            fapswitch 2.2
_symmetry_space_group_name_H-M    P1
_symmetry_Int_Tables_number       1
_space_group_crystal_system       triclinic
_cell_length_a                    18.847215
_cell_length_b                    10.980956
_cell_length_c                    18.798796
_cell_angle_alpha                 90.461962
_cell_angle_beta                  90.613915
_cell_angle_gamma                 89.983791
_cell_volume                      3890.25720462

loop_
_atom_site_label
_atom_site_type_symbol
_atom_type_description
_atom_site_fract_x
_atom_site_fract_y
_atom_site_fract_z
_atom_type_partial_charge
C1    C     C_R   0.728157 0.372613 0.144024 0.546397
C2    C     C_R   0.269323 0.379036 0.853674 0.544483
C3    C     C_R   0.228157 0.872613 0.144024 0.546397
C4    C     C_R   0.769323 0.879036 0.853674 0.544483
C5    C     C_R   0.496396 0.394350 0.932585 -0.102293
C6    C     C_R   0.476097 0.382070 0.078595 -0.090164
C7    C     C_R   0.996396 0.894350 0.932585 -0.102293
C8    C     C_R   0.976097 0.882070 0.078595 -0.090164
C9    C     C_R   0.987545 0.001506 0.972055 0.084345
C10   C     C_R   0.975827 0.995142 0.045335 0.100913
C11   C     C_R   0.487545 0.501506 0.972055 0.084345
C12   C     C_R   0.475827 0.495142 0.045335 0.100914
C13   C     C_R   0.684381 0.906579 0.032040 -0.124788
C14   C     C_R   0.311497 0.894471 0.964834 -0.127003
C15   C     C_R   0.184382 0.406579 0.032040 -0.124788
C16   C     C_R   0.811497 0.394471 0.964834 -0.127003
C17   C     C_R   0.693204 0.875095 0.960799 -0.129568
C18   C     C_R   0.305515 0.882507 0.038073 -0.146640
C19   C     C_R   0.193204 0.375095 0.960799 -0.129568
C20   C     C_R   0.805515 0.382507 0.038073 -0.146640
C21   C     C_R   0.745966 0.932327 0.920965 0.019823
C22   C     C_R   0.239114 0.896469 0.069333 0.025114
C23   C     C_R   0.245966 0.432327 0.920965 0.019823
C24   C     C_R   0.739114 0.396469 0.069333 0.025114
C25   C     C_R   0.784837 0.029093 0.951107 -0.115301
C26   C     C_R   0.178615 0.917149 0.026762 -0.116668
C27   C     C_R   0.284837 0.529093 0.951107 -0.115301
C28   C     C_R   0.678615 0.417149 0.026762 -0.116668
C29   C     C_R   0.776534 0.059368 0.022171 -0.123015
C30   C     C_R   0.184472 0.928232 0.954341 -0.130765
C31   C     C_R   0.276534 0.559368 0.022171 -0.123015
C32   C     C_R   0.684472 0.428232 0.954341 -0.130765
C33   C     C_R   0.728803 0.994642 0.063926 0.015573
C34   C     C_R   0.250938 0.920938 0.923170 0.022760
C35   C     C_R   0.228803 0.494642 0.063926 0.015574
C36   C     C_R   0.750938 0.420938 0.923170 0.022760
C37   C     C_R   0.472415 0.072349 0.455176 -0.150109
C38   C     C_R   0.462625 0.066236 0.527272 -0.162512
C39   C     C_R   0.972415 0.572349 0.455176 -0.150109
C40   C     C_R   0.962625 0.566236 0.527271 -0.162512
C41   C     C_R   0.487548 0.159566 0.572457 0.005038
C42   C     C_R   0.505795 0.173313 0.426201 0.011350
C43   C     C_R   0.987548 0.659566 0.572457 0.005038
C44   C     C_R   0.005795 0.673313 0.426201 0.011350
C45   C     C_R   0.530748 0.154780 0.147037 0.527631
C46   C     C_R   0.468970 0.156230 0.853257 0.540375
C47   C     C_R   0.030748 0.654780 0.147037 0.527631
C48   C     C_R   0.968970 0.656230 0.853257 0.540375
C49   C     C_R   0.521646 0.261031 0.545105 0.090942
C50   C     C_R   0.526184 0.272962 0.471260 0.102268
C51   C     C_R   0.021646 0.761031 0.545105 0.090942
C52   C     C_R   0.026184 0.772962 0.471260 0.102268
C53   C     C_R   0.802460 0.007969 0.473297 0.026092
C54   C     C_R   0.226179 0.072695 0.511402 0.032577
C55   C     C_R   0.302461 0.507970 0.473297 0.026092
C56   C     C_R   0.726179 0.572695 0.511402 0.032577
C57   C     C_R   0.806032 0.008190 0.546709 0.060173
C58   C     C_R   0.236769 0.048551 0.438349 0.103996
C59   C     C_R   0.306032 0.508190 0.546709 0.060173
C60   C     C_R   0.736769 0.548551 0.438349 0.103996
C61   C     C_R   0.750132 0.950923 0.584373 0.003280
C62   C     C_R   0.258657 0.933082 0.417262 0.007697
C63   C     C_R   0.250132 0.450923 0.584373 0.003280
C64   C     C_R   0.758657 0.433082 0.417262 0.007697
C65   C     C_R   0.683339 0.941874 0.551818 -0.129944
C66   C     C_R   0.292634 0.856814 0.465508 -0.164642
C67   C     C_R   0.183339 0.441874 0.551818 -0.129944
C68   C     C_R   0.792634 0.356814 0.465508 -0.164641
C69   C     C_R   0.675651 0.969655 0.479598 -0.118663
C70   C     C_R   0.298625 0.891572 0.535888 -0.161559
C71   C     C_R   0.175651 0.469655 0.479598 -0.118663
C72   C     C_R   0.798625 0.391572 0.535888 -0.161559
C73   C     C_R   0.735994 0.993846 0.438697 -0.017151
C74   C     C_R   0.263804 0.996046 0.561191 -0.019773
C75   C     C_R   0.235994 0.493846 0.438697 -0.017151
C76   C     C_R   0.763804 0.496046 0.561191 -0.019773
C77   C     C_R   0.726587 0.020460 0.140251 0.556584
C78   C     C_R   0.258895 0.968882 0.852282 0.557027
C79   C     C_R   0.226587 0.520460 0.140251 0.556584
C80   C     C_R   0.758895 0.468882 0.852282 0.557027
C81   C     C_R   0.731944 0.381477 0.350832 0.563141
C82   C     C_R   0.268538 0.386174 0.650397 0.543813
C83   C     C_R   0.231944 0.881477 0.350832 0.563141
C84   C     C_R   0.768538 0.886174 0.650397 0.543813
C85   C     C_R   0.533247 0.158793 0.354288 0.535490
C86   C     C_R   0.466193 0.155675 0.645884 0.554381
C87   C     C_R   0.033247 0.658793 0.354288 0.535490
C88   C     C_R   0.966193 0.655675 0.645884 0.554382
C89   C     C_R   0.728755 0.020030 0.362229 0.558445
C90   C     C_R   0.271493 0.022722 0.637931 0.564656
C91   C     C_R   0.228755 0.520030 0.362229 0.558445
C92   C     C_R   0.771493 0.522722 0.637931 0.564656
C93   C     C_R   0.497672 0.167270 0.925722 0.003494
C94   C     C_R   0.502359 0.161177 0.074489 0.007986
C95   C     C_R   0.997672 0.667270 0.925722 0.003494
C96   C     C_R   0.002359 0.661177 0.074489 0.007986
C97   C     C_R   0.494646 0.278663 0.965162 -0.006369
C98   C     C_R   0.490492 0.273901 0.040148 -0.012131
C99   C     C_R   0.994646 0.778663 0.965162 -0.006369
C100  C     C_R   0.990492 0.773901 0.040148 -0.012131
C101  C     C_R   0.508145 0.053993 0.034058 -0.146536
C102  C     C_R   0.507572 0.057418 0.961374 -0.149601
C103  C     C_R   0.008145 0.553993 0.034058 -0.146536
C104  C     C_R   0.007572 0.557418 0.961374 -0.149601
Cr1   Cr    Cr6+3 0.772000 0.169640 0.250110 1.074022
Cr2   Cr    Cr6+3 0.228000 0.169640 0.749890 1.086755
Cr3   Cr    Cr6+3 0.272000 0.669640 0.250110 1.074022
Cr4   Cr    Cr6+3 0.728000 0.669640 0.749890 1.086755
Cr5   Cr    Cr6+3 0.614960 0.323350 0.249260 1.067027
Cr6   Cr    Cr6+3 0.385040 0.323350 0.750740 1.080324
Cr7   Cr    Cr6+3 0.114960 0.823350 0.249260 1.067027
Cr8   Cr    Cr6+3 0.885040 0.823350 0.750740 1.080324
Cr9   Cr    Cr6+3 0.616670 0.010620 0.250840 1.081726
Cr10  Cr    Cr6+3 0.383330 0.010620 0.749160 1.055316
Cr11  Cr    Cr6+3 0.116670 0.510620 0.250840 1.081726
Cr12  Cr    Cr6+3 0.883330 0.510620 0.749160 1.055316
H1    H     H_    0.516766 0.965981 0.058334 0.170885
H2    H     H_    0.511575 0.971407 0.933050 0.174072
H3    H     H_    0.016766 0.465981 0.058334 0.170885
H4    H     H_    0.011575 0.471407 0.933050 0.174072
H5    H     H_    0.638004 0.911383 0.581514 0.148530
H6    H     H_    0.311962 0.768156 0.449488 0.176769
H7    H     H_    0.138004 0.411383 0.581514 0.148530
H8    H     H_    0.811962 0.268156 0.449488 0.176769
H9    H     H_    0.623596 0.964349 0.454857 0.175032
H10   H     H_    0.326399 0.831297 0.571602 0.182813
H11   H     H_    0.123596 0.464349 0.454857 0.175032
H12   H     H_    0.826399 0.331297 0.571602 0.182813
H13   H     H_    0.508955 0.404122 0.877033 0.165773
H14   H     H_    0.465051 0.380109 0.134883 0.165978
H15   H     H_    0.008955 0.904122 0.877033 0.165773
H16   H     H_    0.965051 0.880109 0.134883 0.165978
H17   H     H_    0.645490 0.857698 0.062738 0.160997
H18   H     H_    0.363784 0.890041 0.941607 0.169068
H19   H     H_    0.145489 0.357698 0.062738 0.160997
H20   H     H_    0.863784 0.390041 0.941607 0.169068
H21   H     H_    0.662102 0.800908 0.938457 0.165870
H22   H     H_    0.352277 0.863992 0.070126 0.160049
H23   H     H_    0.162102 0.300908 0.938457 0.165870
H24   H     H_    0.852277 0.363992 0.070126 0.160049
H25   H     H_    0.824832 0.076524 0.921047 0.170321
H26   H     H_    0.126195 0.924040 0.049282 0.161673
H27   H     H_    0.324832 0.576524 0.921047 0.170321
H28   H     H_    0.626195 0.424040 0.049282 0.161673
H29   H     H_    0.809456 0.130201 0.045278 0.163267
H30   H     H_    0.137637 0.949199 0.923057 0.149427
H31   H     H_    0.309456 0.630201 0.045278 0.163267
H32   H     H_    0.637637 0.449199 0.923057 0.149427
H33   H     H_    0.455488 0.996085 0.422177 0.170581
H34   H     H_    0.435317 0.987428 0.547680 0.163668
H35   H     H_    0.955488 0.496085 0.422177 0.170581
H36   H     H_    0.935317 0.487428 0.547680 0.163667
O1    O     O_R   0.787540 0.042690 0.170470 -0.480693
O2    O     O_R   0.212460 0.042690 0.829530 -0.502430
O3    O     O_R   0.287540 0.542690 0.170470 -0.480693
O4    O     O_R   0.712460 0.542690 0.829530 -0.502430
O5    O     O_R   0.556540 0.252920 0.323970 -0.486275
O6    O     O_R   0.443460 0.252920 0.676030 -0.464591
O7    O     O_R   0.056540 0.752920 0.323970 -0.486275
O8    O     O_R   0.943460 0.752920 0.676030 -0.464591
O9    O     O_R   0.545870 0.051100 0.330840 -0.517729
O10   O     O_R   0.454130 0.051100 0.669160 -0.530507
O11   O     O_R   0.045870 0.551100 0.330840 -0.517729
O12   O     O_R   0.954130 0.551100 0.669160 -0.530507
O13   O     O_R   0.681340 0.959300 0.325510 -0.449484
O14   O     O_R   0.318660 0.959300 0.674490 -0.504903
O15   O     O_R   0.181340 0.459300 0.325510 -0.449484
O16   O     O_R   0.818660 0.459300 0.674490 -0.504903
O17   O     O_3   0.667880 0.167870 0.250070 -0.317882
O18   O     O_3   0.332120 0.167870 0.749930 -0.291841
O19   O     O_3   0.167880 0.667870 0.250070 -0.317882
O20   O     O_3   0.832120 0.667870 0.749930 -0.291841
O21   O     O_R   0.765660 0.292160 0.175050 -0.513979
O22   O     O_R   0.234340 0.292160 0.824950 -0.501623
O23   O     O_R   0.265660 0.792160 0.175050 -0.513978
O24   O     O_R   0.734340 0.792160 0.824950 -0.501623
O25   O     O_R   0.670190 0.408980 0.168550 -0.502120
O26   O     O_R   0.329810 0.408980 0.831450 -0.505366
O27   O     O_R   0.170190 0.908980 0.168550 -0.502120
O28   O     O_R   0.829810 0.908980 0.831450 -0.505366
O29   O     O_R   0.556580 0.251450 0.175160 -0.514857
O30   O     O_R   0.443420 0.251450 0.824840 -0.503585
O31   O     O_R   0.056580 0.751450 0.175160 -0.514857
O32   O     O_R   0.943420 0.751450 0.824840 -0.503585
O33   O     O_R   0.545920 0.049510 0.170320 -0.515419
O34   O     O_R   0.454080 0.049510 0.829680 -0.507961
O35   O     O_R   0.045920 0.549510 0.170320 -0.515419
O36   O     O_R   0.954080 0.549510 0.829680 -0.507961
O37   O     O_R   0.681390 0.957840 0.176710 -0.482874
O38   O     O_R   0.318610 0.957840 0.823290 -0.493932
O39   O     O_R   0.181390 0.457840 0.176710 -0.482874
O40   O     O_R   0.818610 0.457840 0.823290 -0.493933
O41   O     O_R   0.787500 0.044280 0.330990 -0.469049
O42   O     O_R   0.212500 0.044280 0.669010 -0.415432
O43   O     O_R   0.287500 0.544280 0.330990 -0.469049
O44   O     O_R   0.712500 0.544280 0.669010 -0.415432
O45   O     O_R   0.765610 0.293630 0.323860 -0.519576
O46   O     O_R   0.234390 0.293630 0.676140 -0.490844
O47   O     O_R   0.265610 0.793630 0.323860 -0.519576
O48   O     O_R   0.734390 0.793630 0.676140 -0.490844
O49   O     O_R   0.670140 0.410570 0.329080 -0.458787
O50   O     O_R   0.329860 0.410570 0.670920 -0.478080
O51   O     O_R   0.170140 0.910570 0.329080 -0.458787
O52   O     O_R   0.829860 0.910570 0.670920 -0.478080
C105  C     C_2   0.869614 0.000979 0.433765 0.646858
O53   O     O_2   0.906988 0.091166 0.427578 -0.472017
O54   O     O_R   0.884454 0.893940 0.395900 -0.661021
H37   H     H_    0.922658 0.905079 0.359076 0.354361
C106  C     C_2   0.166107 0.158539 0.529352 0.607992
O55   O     O_2   0.135363 0.212799 0.481705 -0.478971
O56   O     O_R   0.137542 0.168159 0.597123 -0.629828
H38   H     H_    0.092118 0.217588 0.598781 0.341639
C107  C     C_2   0.369614 0.500980 0.433765 0.646858
O57   O     O_2   0.406988 0.591167 0.427578 -0.472017
O58   O     O_R   0.384454 0.393940 0.395900 -0.661021
H39   H     H_    0.422658 0.405079 0.359075 0.354361
C108  C     C_2   0.666107 0.658539 0.529352 0.607992
O59   O     O_2   0.635363 0.712799 0.481705 -0.478971
O60   O     O_R   0.637542 0.668159 0.597123 -0.629828
H40   H     H_    0.592118 0.717588 0.598781 0.341639
I1    I     I_    0.898088 0.097271 0.594645 -0.250304
I2    I     I_    0.226731 0.181219 0.355965 -0.165156
I3    I     I_    0.398088 0.597271 0.594645 -0.250305
I4    I     I_    0.726731 0.681219 0.355965 -0.165155
I5    I     I_    0.993804 0.169453 0.917546 -0.443796
I6    I     I_    0.963901 0.152411 0.110341 -0.373584
I7    I     I_    0.493804 0.669453 0.917546 -0.443795
I8    I     I_    0.463901 0.652411 0.110341 -0.373585
I9    I     I_    0.573566 0.385170 0.617023 -0.217392
I10   I     I_    0.555705 0.448042 0.434391 -0.149556
I11   I     I_    0.073566 0.885170 0.617023 -0.217392
I12   I     I_    0.055705 0.948042 0.434391 -0.149556

loop_
_geom_bond_atom_site_label_1
_geom_bond_atom_site_label_2
_ccdc_geom_bond_type
C58   C62   A    
Cr1   O1    S    
C62   C83   S    
C101  C102  A    
C56   C76   A    
C48   C95   S    
C55   C59   A    
C85   O9    A    
C14   C18   A    
C87   O11   A    
C78   O38   A    
C6    H14   S    
Cr5   O5    S    
C68   H8    S    
Cr3   O43   S    
C97   C98   A    
C58   I2    S    
C45   O29   A    
C57   I1    S    
Cr8   O32   S    
Cr3   O19   S    
C107  O57   D    
C84   O48   A    
C15   C19   A    
C41   C86   S    
Cr12  O36   S    
C1    O21   A    
C57   C61   A    
Cr1   O17   S    
C96   C100  A    
C72   H12   S    
Cr10  O38   S    
C43   C88   S    
C32   C36   A    
C91   O15   A    
C17   H21   S    
C5    C11   A    
C64   C68   A    
C11   I7    S    
C81   O45   A    
Cr9   O33   S    
C95   C99   A    
C12   I8    S    
C15   H19   S    
C94   C98   A    
C59   I3    S    
C39   H35   S    
Cr11  O35   S    
C40   H36   S    
Cr10  O18   S    
C41   C49   A    
C37   C42   A    
C18   H22   S    
C3    O27   A    
C53   C73   A    
Cr7   O7    S    
C103  C104  A    
C77   O1    A    
C54   C74   A    
C1    O25   A    
C40   C43   A    
C20   C24   A    
C94   C101  A    
Cr2   O2    S    
C90   O42   A    
C8    H16   S    
C27   H27   S    
C47   C96   S    
C66   H6    S    
C49   I9    S    
C80   O4    A    
C28   H28   S    
C65   H5    S    
Cr4   O44   S    
C44   C87   S    
C9    C10   A    
C34   C78   S    
C7    H15   S    
Cr6   O6    S    
C72   C76   A    
Cr8   O28   S    
C55   C75   A    
C70   H10   S    
Cr1   O45   S    
Cr12  O40   S    
C69   H9    S    
C29   C33   A    
Cr1   O21   S    
C90   O14   A    
Cr7   O27   S    
Cr2   O18   S    
C71   H11   S    
C85   O5    A    
C4    O28   A    
C45   C94   S    
C60   I4    S    
C6    C12   A    
C15   C35   A    
C56   C108  S    
Cr5   O17   S    
C60   C64   A    
Cr10  O14   S    
C105  O54   S    
C25   C29   A    
C106  O55   D    
C63   C67   A    
C71   C75   A    
C30   C34   A    
C63   C82   S    
C51   I11   S    
O54   H37   S    
C28   C32   A    
C48   O36   A    
C54   C106  S    
C38   C41   A    
Cr11  O19   S    
C21   C25   A    
C36   C80   S    
Cr7   O51   S    
O60   H40   S    
C82   O50   A    
C62   C66   A    
C78   O2    A    
C81   O49   A    
C14   H18   S    
C108  O59   D    
C88   O12   A    
C27   C31   A    
C31   H31   S    
C17   C21   A    
C51   C52   A    
C67   H7    S    
C68   C72   A    
Cr4   O48   S    
C19   C23   A    
O58   H39   S    
C73   C89   S    
C70   C74   A    
C37   C38   A    
C61   C65   A    
Cr12  O20   S    
C91   O43   A    
C92   O16   A    
C93   C97   A    
C53   C105  S    
O56   H38   S    
Cr4   O4    S    
C16   C20   A    
C89   O41   A    
Cr7   O31   S    
Cr2   O42   S    
Cr2   O22   S    
C25   H25   S    
C42   C85   S    
C46   O34   A    
C69   C73   A    
C86   O6    A    
C47   O31   A    
C89   O13   A    
C7    C99   A    
C42   C50   A    
C86   O10   A    
Cr6   O18   S    
C83   O51   A    
C76   C92   S    
C26   C30   A    
C23   C27   A    
Cr4   O20   S    
C4    O24   A    
C49   C50   A    
C31   C35   A    
C35   C79   S    
Cr8   O52   S    
C83   O47   A    
C16   H20   S    
C6    C98   A    
C20   H24   S    
C39   C40   A    
C95   C104  A    
C48   O32   A    
C54   C58   A    
Cr5   O29   S    
C7    C9    A    
C105  O53   D    
C53   C57   A    
Cr8   O8    S    
C52   I12   S    
Cr11  O15   S    
C18   C22   A    
Cr3   O47   S    
C13   H17   S    
Cr12  O12   S    
C103  H3    S    
C24   C28   A    
Cr9   O13   S    
C37   H33   S    
C92   O44   A    
C61   C84   S    
C102  H2    S    
C44   C52   A    
C14   C34   A    
Cr9   O17   S    
C11   C12   A    
C82   O46   A    
C39   C44   A    
C32   H32   S    
C75   C91   S    
C108  O60   S    
C79   O3    A    
Cr9   O37   S    
C66   C70   A    
C59   C63   A    
Cr10  O34   S    
C99   C100  A    
Cr2   O46   S    
C33   C77   S    
Cr6   O50   S    
C30   H30   S    
C77   O37   A    
C101  H1    S    
C46   O30   A    
Cr5   O49   S    
C8    C100  A    
C107  O58   S    
Cr11  O39   S    
C3    O23   A    
C1    C24   S    
C2    O22   A    
C29   H29   S    
C4    C21   S    
Cr1   O41   S    
C45   O33   A    
Cr8   O20   S    
C46   C93   S    
Cr3   O23   S    
C43   C51   A    
C65   C69   A    
C74   C90   S    
Cr4   O24   S    
C5    H13   S    
C106  O56   S    
C87   O7    A    
C55   C107  S    
C50   I10   S    
C67   C71   A    
C88   O8    A    
Cr11  O11   S    
Cr3   O3    S    
C64   C81   S    
Cr10  O10   S    
C80   O40   A    
Cr9   O9    S    
C13   C17   A    
C56   C60   A    
C5    C97   A    
Cr6   O30   S    
C93   C102  A    
C8    C10   A    
C13   C33   A    
C22   C26   A    
C96   C103  A    
C2    C23   S    
C10   I6    S    
Cr5   O25   S    
Cr6   O26   S    
Cr12  O16   S    
C3    C22   S    
C79   O39   A    
C2    O26   A    
C9    I5    S    
C84   O52   A    
C26   H26   S    
C47   O35   A    
C38   H34   S    
C19   H23   S    
C16   C36   A    
C104  H4    S    
Cr7   O19   S    
