data_mof_unit_6942.cif
_audit_creation_date              2012-12-10T18:19:53-0500
_audit_creation_method            fapswitch 2.2
_symmetry_space_group_name_H-M    P1
_symmetry_Int_Tables_number       1
_space_group_crystal_system       triclinic
_cell_length_a                    14.962697
_cell_length_b                    14.010248
_cell_length_c                    14.16677
_cell_angle_alpha                 90.006836
_cell_angle_beta                  88.960489
_cell_angle_gamma                 89.997248
_cell_volume                      2969.30673089

loop_
_atom_site_label
_atom_site_type_symbol
_atom_type_description
_atom_site_fract_x
_atom_site_fract_y
_atom_site_fract_z
_atom_type_partial_charge
C1    C     C_R   0.326963 0.500054 0.501295 0.897861
C2    C     C_R   0.673037 0.500050 0.498706 0.897855
C3    C     C_R   0.953216 0.511376 0.499416 0.032383
C4    C     C_R   0.046782 0.511383 0.500587 0.032375
C5    C     C_R   0.909253 0.507761 0.411919 0.070979
C6    C     C_R   0.090745 0.507798 0.588085 0.070986
C7    C     C_R   0.948040 0.520560 0.672454 -0.006910
C8    C     C_R   0.051956 0.520489 0.327550 -0.006947
C9    C     C_R   0.040777 0.514136 0.672739 -0.267875
C10   C     C_R   0.959221 0.514062 0.327264 -0.267869
C11   C     C_R   0.559054 0.798121 0.442758 -0.056064
C12   C     C_R   0.440938 0.201884 0.557238 -0.054203
C13   C     C_R   0.440947 0.798141 0.557242 -0.056093
C14   C     C_R   0.559062 0.201864 0.442762 -0.054231
C15   C     C_R   0.439511 0.898809 0.558612 0.013194
C16   C     C_R   0.560493 0.101198 0.441390 0.012946
C17   C     C_R   0.560490 0.898789 0.441389 0.013183
C18   C     C_R   0.439507 0.101218 0.558610 0.012934
C19   C     C_R   0.500000 0.949389 0.500000 0.085067
C20   C     C_R   0.500000 0.050618 0.500000 0.085443
C21   C     C_R   0.379351 0.949865 0.616890 -0.206593
C22   C     C_R   0.620653 0.050145 0.383111 -0.205041
C23   C     C_R   0.620649 0.949825 0.383110 -0.206596
C24   C     C_R   0.379348 0.050185 0.616889 -0.205043
C25   C     C_R   0.498825 0.500012 0.329006 0.902146
C26   C     C_R   0.501178 0.500023 0.670994 0.902148
C27   C     C_1   0.496142 0.500156 0.227660 -0.183754
C28   C     C_1   0.503867 0.500186 0.772339 -0.183767
C29   C     C_1   0.495560 0.500565 0.142458 -0.008984
C30   C     C_1   0.504453 0.500592 0.857542 -0.008996
C31   C     C_1   0.498248 0.500988 0.042589 -0.026762
C32   C     C_1   0.501767 0.500997 0.957410 -0.026756
C33   C     C_R   0.815878 0.499963 0.411002 -0.064616
C34   C     C_R   0.184120 0.499989 0.589001 -0.064639
C35   C     C_R   0.768360 0.501022 0.496922 -0.096649
C36   C     C_R   0.231639 0.501036 0.503079 -0.096655
C37   C     C_R   0.810893 0.508519 0.582752 -0.284660
C38   C     C_R   0.189106 0.508532 0.417249 -0.284602
C39   C     C_R   0.903616 0.514015 0.585631 0.077387
C40   C     C_R   0.096382 0.514000 0.414372 0.077386
H1    H     H_    0.770618 0.507982 0.647113 0.150780
H2    H     H_    0.229379 0.508005 0.352885 0.150778
H3    H     H_    0.073706 0.517711 0.740098 0.171459
H4    H     H_    0.926296 0.517599 0.259902 0.171487
H5    H     H_    0.604965 0.757845 0.398216 0.128534
H6    H     H_    0.395014 0.242161 0.601776 0.134409
H7    H     H_    0.395036 0.757880 0.601784 0.128534
H8    H     H_    0.604986 0.242126 0.398225 0.134395
H9    H     H_    0.332314 0.912234 0.662459 0.137816
H10   H     H_    0.667692 0.087780 0.337543 0.137561
H11   H     H_    0.667687 0.912178 0.337541 0.137811
H12   H     H_    0.332309 0.087837 0.662457 0.137558
N1    N     N_R   0.500000 0.750030 0.500000 -0.096456
N2    N     N_R   0.500000 0.249970 0.500000 -0.097460
O1    O     O_R   0.367850 0.580280 0.500020 -0.617742
O2    O     O_R   0.632150 0.419720 0.499980 -0.613621
O3    O     O_R   0.632150 0.580280 0.499980 -0.617757
O4    O     O_R   0.367850 0.419720 0.500020 -0.613624
O5    O     O_R   0.500000 0.580290 0.373720 -0.603593
O6    O     O_R   0.500000 0.419710 0.626280 -0.598187
O7    O     O_R   0.500000 0.580290 0.626280 -0.603610
O8    O     O_R   0.500000 0.419710 0.373720 -0.598200
Zn1   Zn    Zn3+2 0.500000 0.607200 0.500000 0.939920
Zn2   Zn    Zn3+2 0.500000 0.392800 0.500000 0.950151
C41   C     C_R   0.768908 0.487633 0.320772 0.097511
C42   C     C_R   0.765924 0.397085 0.278566 -0.152370
C43   C     C_R   0.735151 0.387148 0.186597 -0.153997
C44   C     C_R   0.707643 0.467472 0.136495 -0.110809
C45   C     C_R   0.707978 0.557466 0.179364 -0.157961
C46   C     C_R   0.738499 0.567686 0.271413 -0.158441
H13   H     H_    0.790227 0.334988 0.315726 0.128497
H14   H     H_    0.734236 0.317517 0.153541 0.129247
H15   H     H_    0.685569 0.459868 0.064588 0.140519
H16   H     H_    0.685390 0.619416 0.140908 0.129623
H17   H     H_    0.741347 0.638020 0.302977 0.128327
C47   C     C_R   0.231085 0.487629 0.679226 0.097477
C48   C     C_R   0.234066 0.397081 0.721386 -0.152256
C49   C     C_R   0.264838 0.387100 0.813346 -0.154023
C50   C     C_R   0.292360 0.467384 0.863495 -0.110897
C51   C     C_R   0.292021 0.557383 0.820676 -0.157921
C52   C     C_R   0.261499 0.567645 0.728635 -0.158505
H18   H     H_    0.209748 0.335010 0.684186 0.128486
H19   H     H_    0.265743 0.317466 0.846366 0.129240
H20   H     H_    0.314430 0.459745 0.935397 0.140524
H21   H     H_    0.314615 0.619311 0.859175 0.129641
H22   H     H_    0.258651 0.637980 0.697111 0.128346
C53   C     C_R   0.901000 0.539942 0.763642 0.124901
C54   C     C_R   0.848273 0.622443 0.774298 -0.161053
C55   C     C_R   0.809369 0.644943 0.861877 -0.138828
C56   C     C_R   0.823657 0.586077 0.939666 -0.106896
C57   C     C_R   0.875952 0.503911 0.929939 -0.132185
C58   C     C_R   0.914710 0.480863 0.842304 -0.165284
H23   H     H_    0.838518 0.670059 0.715137 0.136694
H24   H     H_    0.769135 0.708746 0.869753 0.131165
H25   H     H_    0.794891 0.604822 0.007582 0.127454
H26   H     H_    0.887158 0.458633 0.990506 0.132274
H27   H     H_    0.956052 0.417644 0.835914 0.126221
C59   C     C_R   0.098990 0.539804 0.236355 0.124879
C60   C     C_R   0.151588 0.622377 0.225609 -0.160975
C61   C     C_R   0.190440 0.644832 0.138004 -0.138844
C62   C     C_R   0.176241 0.585836 0.060285 -0.106879
C63   C     C_R   0.124091 0.503587 0.070109 -0.132279
C64   C     C_R   0.085377 0.480589 0.157766 -0.165329
H28   H     H_    0.161271 0.670088 0.284720 0.136664
H29   H     H_    0.230560 0.708702 0.130052 0.131148
H30   H     H_    0.204963 0.604543 0.992347 0.127510
H31   H     H_    0.112955 0.458203 0.009595 0.132217
H32   H     H_    0.044137 0.417308 0.164230 0.126257

loop_
_geom_bond_atom_site_label_1
_geom_bond_atom_site_label_2
_ccdc_geom_bond_type
C2    C35   S    
C24   H12   S    
C38   C40   A    
C53   C54   A    
C62   C63   A    
C27   C29   T    
C19   C20   A    
C6    C9    A    
C21   H9    S    
C2    O3    A    
C33   C41   S    
C56   H25   S    
C48   C49   A    
C15   C19   A    
C61   H29   S    
C17   C23   A    
C18   C24   A    
C35   C37   A    
C26   O7    A    
C38   H2    S    
C50   H20   S    
C41   C46   A    
C43   H14   S    
C55   H24   S    
O7    Zn1   S    
C8    C59   S    
O8    Zn2   S    
C17   C19   A    
C57   H26   S    
C49   H19   S    
C7    C53   S    
C31   C32   T    
C44   C45   A    
C5    C33   A    
O2    Zn2   S    
C64   H32   S    
C18   C20   A    
C52   H22   S    
C11   N1    A    
C22   H10   S    
C42   C43   A    
C3    C39   A    
C53   C58   A    
C63   C64   A    
C58   H27   S    
O3    Zn1   S    
C13   N1    A    
O4    Zn2   S    
C37   C39   A    
C9    H3    S    
C10   H4    S    
C43   C44   A    
C4    C40   A    
C63   H31   S    
C47   C48   A    
C12   H6    S    
C57   C58   A    
C13   H7    S    
C49   C50   A    
C14   H8    S    
C44   H15   S    
C6    C34   A    
O1    Zn1   S    
C51   H21   S    
C23   H11   S    
C42   H13   S    
C16   C20   A    
C45   H16   S    
C4    C6    A    
C14   N2    A    
C41   C42   A    
C13   C15   A    
C14   C16   A    
C11   H5    S    
C3    C4    A    
C62   H30   S    
C7    C9    A    
C54   H23   S    
C11   C17   A    
C16   C22   A    
C26   C28   S    
C51   C52   A    
C3    C5    A    
C47   C52   A    
C25   C27   S    
C8    C40   A    
O5    Zn1   S    
C60   C61   A    
O6    Zn2   S    
C28   C30   T    
C1    O1    A    
C5    C10   A    
C29   C31   S    
C2    O2    A    
C1    O4    A    
C30   C32   S    
N1    Zn1   S    
C56   C57   A    
N2    Zn2   S    
C48   H18   S    
C36   C38   A    
C61   C62   A    
C33   C35   A    
C60   H28   S    
C34   C36   A    
C25   O8    A    
C37   H1    S    
C45   C46   A    
C50   C51   A    
C15   C21   A    
C54   C55   A    
C8    C10   A    
C59   C60   A    
C21   C24   A    
C12   C18   A    
C46   H17   S    
C7    C39   A    
C22   C23   A    
C25   O5    A    
C55   C56   A    
C26   O6    A    
C12   N2    A    
C59   C64   A    
C1    C36   S    
C34   C47   S    
