data_mof_unit_31351.cif
_audit_creation_date              2013-03-05T15:54:33-0500
_audit_creation_method            fapswitch 2.2
_symmetry_space_group_name_H-M    P1
_symmetry_Int_Tables_number       1
_space_group_crystal_system       triclinic
_cell_length_a                    19.082028
_cell_length_b                    19.344415
_cell_length_c                    12.511979
_cell_angle_alpha                 90.87778
_cell_angle_beta                  131.154601
_cell_angle_gamma                 88.725321
_cell_volume                      3476.61723638

loop_
_atom_site_label
_atom_site_type_symbol
_atom_site_description
_atom_site_fract_x
_atom_site_fract_y
_atom_site_fract_z
_atom_type_partial_charge
O1    O     O_R   0.608610 0.924520 0.551740 -0.551514
O2    O     O_R   0.608610 0.075480 0.551740 -0.544877
O3    O     O_R   0.108610 0.424520 0.551740 -0.546126
O4    O     O_R   0.108610 0.575480 0.551740 -0.556177
O5    O     O_R   0.564110 0.924510 0.685150 -0.571130
O6    O     O_R   0.564110 0.075490 0.685150 -0.564356
O7    O     O_R   0.064110 0.424510 0.685150 -0.557414
O8    O     O_R   0.064110 0.575490 0.685150 -0.552005
C1    C     C_R   0.614337 0.899870 0.655118 0.852462
C2    C     C_R   0.610417 0.102338 0.651328 0.828095
C3    C     C_R   0.113873 0.399099 0.654725 0.832288
C4    C     C_R   0.115124 0.599034 0.658027 0.850926
Cu1   Cu    Cu3+1 0.526340 0.000000 0.421010 0.982887
Cu2   Cu    Cu3+1 0.026340 0.500000 0.421010 0.977690
Cu3   Cu    Cu3+1 0.473640 0.000000 0.578990 1.040930
Cu4   Cu    Cu3+1 0.973640 0.500000 0.578990 1.042996
O9    O     O_R   0.435880 0.075470 0.314850 -0.563613
O10   O     O_R   0.435880 0.924530 0.314850 -0.568747
O11   O     O_R   0.935880 0.575470 0.314850 -0.565662
O12   O     O_R   0.935880 0.424530 0.314850 -0.579308
O13   O     O_R   0.391380 0.075460 0.448260 -0.491659
O14   O     O_R   0.391380 0.924540 0.448260 -0.489731
O15   O     O_R   0.891380 0.575460 0.448260 -0.508569
O16   O     O_R   0.891380 0.424540 0.448260 -0.485063
C5    C     C_R   0.389770 0.102846 0.350068 0.847832
C6    C     C_R   0.390785 0.897221 0.349842 0.871696
C7    C     C_R   0.887051 0.601531 0.346342 0.842992
C8    C     C_R   0.887106 0.399556 0.345153 0.859631
C9    C     C_R   0.748251 0.233864 0.236444 0.086029
C10   C     C_R   0.684369 0.732495 0.157521 0.101972
C11   C     C_R   0.233091 0.742790 0.229903 0.078374
C12   C     C_R   0.228426 0.260620 0.219507 0.067487
C13   C     C_R   0.337558 0.832793 0.274840 -0.291119
C14   C     C_R   0.334981 0.167520 0.274305 -0.286084
C15   C     C_R   0.829246 0.338205 0.263151 -0.286200
C16   C     C_R   0.821654 0.660326 0.255769 -0.286018
C17   C     C_R   0.742080 0.177201 0.728195 0.388320
C18   C     C_R   0.756129 0.829975 0.747994 0.409722
C19   C     C_R   0.280648 0.631777 0.801368 0.377290
C20   C     C_R   0.254679 0.327539 0.744940 0.391642
C21   C     C_R   0.364750 0.650187 0.934282 0.429652
C22   C     C_R   0.316878 0.272680 0.826728 0.400040
C23   C     C_R   0.820980 0.214688 0.837778 0.446426
C24   C     C_R   0.811638 0.770939 0.817659 0.399994
C25   C     C_R   0.364535 0.689792 0.027629 -0.285886
C26   C     C_R   0.325082 0.245750 0.936973 -0.279047
C27   C     C_R   0.826742 0.244233 0.946049 -0.257631
C28   C     C_R   0.813849 0.738453 0.918869 -0.271032
C29   C     C_R   0.756283 0.234144 0.950832 -0.005622
C30   C     C_R   0.750979 0.758876 0.937810 -0.019232
C31   C     C_R   0.280703 0.706252 0.996022 -0.024318
C32   C     C_R   0.266671 0.269370 0.962393 -0.022004
C33   C     C_R   0.679226 0.193478 0.845918 -0.158082
C34   C     C_R   0.676209 0.802447 0.832277 -0.159896
C35   C     C_R   0.195816 0.679879 0.871092 -0.146864
C36   C     C_R   0.188814 0.311142 0.855626 -0.158317
C37   C     C_R   0.279932 0.744430 0.092431 -0.074621
C38   C     C_R   0.276360 0.248263 0.081117 -0.067809
C39   C     C_R   0.763874 0.259508 0.064653 -0.073342
C40   C     C_R   0.752645 0.732578 0.046083 -0.076829
C41   C     C_R   0.715705 0.226159 0.097723 -0.063814
C42   C     C_R   0.675546 0.748028 0.038192 -0.081354
C43   C     C_R   0.213363 0.727423 0.102122 -0.071453
C44   C     C_R   0.212409 0.275415 0.094744 -0.083409
C45   C     C_R   0.631003 0.194317 0.984305 0.051124
C46   C     C_R   0.591479 0.774954 0.908331 0.101863
C47   C     C_R   0.129076 0.698508 0.981590 0.060386
C48   C     C_R   0.129337 0.308839 0.977228 0.065628
C49   C     C_R   0.607485 0.189949 0.851080 0.514398
C50   C     C_R   0.591887 0.794916 0.801494 0.544171
C51   C     C_R   0.116109 0.689154 0.857515 0.536803
C52   C     C_R   0.113754 0.314501 0.851957 0.541879
C53   C     C_R   0.338881 0.800752 0.172829 0.383129
C54   C     C_R   0.347027 0.202005 0.188393 0.374523
C55   C     C_R   0.807316 0.321891 0.133675 0.399910
C56   C     C_R   0.829279 0.693946 0.164329 0.386065
C57   C     C_R   0.291452 0.799238 0.313083 0.413830
C58   C     C_R   0.275952 0.198666 0.292242 0.400209
C59   C     C_R   0.802795 0.292379 0.318034 0.399338
C60   C     C_R   0.752999 0.683999 0.259208 0.400153
C61   C     C_R   0.674485 0.160979 0.738106 -0.256342
C62   C     C_R   0.681911 0.842809 0.744243 -0.245797
C63   C     C_R   0.195197 0.642646 0.770548 -0.270075
C64   C     C_R   0.184330 0.343603 0.749282 -0.249861
H1    H     H_    0.430748 0.703443 0.129215 0.200391
H2    H     H_    0.374704 0.204111 0.994654 0.223584
H3    H     H_    0.888735 0.272413 0.029721 0.194775
H4    H     H_    0.859888 0.694319 0.971735 0.218114
C65   C     C_R   0.679607 0.957075 0.291868 0.097891
C66   C     C_R   0.193019 0.501499 0.309380 0.080051
H5    H     H_    0.700527 0.968891 0.481977 0.174120
H6    H     H_    0.204506 0.493364 0.491286 0.185491
H7    H     H_    0.704125 0.917382 0.114025 0.174534
H8    H     H_    0.237401 0.500776 0.156342 0.183284
N1    N     N_R   0.566260 0.000000 0.302220 -0.199122
N2    N     N_R   0.066260 0.500000 0.302220 -0.212767
C67   C     C_R   0.342459 0.014399 0.623763 0.751895
C68   C     C_R   0.841629 0.504499 0.625814 0.744706
C69   C     C_R   0.317606 0.044909 0.696705 -0.387174
C70   C     C_R   0.814071 0.534980 0.695013 -0.376005
C71   C     C_R   0.383570 0.050688 0.842686 -0.272750
C72   C     C_R   0.879760 0.547933 0.838886 -0.257328
C73   C     C_R   0.468208 0.013084 0.921860 -0.031595
C74   C     C_R   0.971197 0.520982 0.923352 -0.032497
C75   C     C_R   0.498455 0.995576 0.846459 0.181403
C76   C     C_R   0.003392 0.506309 0.848657 0.181442
C77   C     C_R   0.527069 0.998474 0.072661 -0.075657
C78   C     C_R   0.032230 0.514092 0.077691 -0.064964
C79   C     C_R   0.614845 0.965734 0.142370 0.047359
C80   C     C_R   0.128991 0.506756 0.158537 0.028209
C81   C     C_R   0.638204 0.943857 0.062400 -0.275833
C82   C     C_R   0.162335 0.504201 0.089417 -0.289929
C83   C     C_R   0.593624 0.972804 0.930193 0.212299
C84   C     C_R   0.106365 0.502193 0.941195 0.222529
C85   C     C_R   0.501087 0.009231 0.156358 0.353444
C86   C     C_R   0.002103 0.509658 0.156470 0.335405
C87   C     C_R   0.653218 0.976322 0.368599 0.033115
C88   C     C_R   0.158389 0.497708 0.377249 0.077952
N3    N     N_R   0.434410 0.000000 0.697680 -0.233405
N4    N     N_R   0.934410 0.500000 0.697680 -0.228903
H9    H     H_    0.366509 0.085933 0.889791 0.191701
H10   H     H_    0.857302 0.581415 0.880318 0.180213
H11   H     H_    0.249339 0.067813 0.641022 0.144531
H12   H     H_    0.742957 0.551831 0.637837 0.140082
O17   O     O_3   0.321484 0.812465 0.447125 -0.511305
C89   C     C_3   0.247319 0.822999 0.445003 -0.262545
H13   H     H_    0.183407 0.844969 0.343259 0.134051
H14   H     H_    0.272157 0.858408 0.533416 0.181942
H15   H     H_    0.231327 0.774881 0.471210 0.133356
O18   O     O_3   0.275360 0.174278 0.394623 -0.565155
C90   C     C_3   0.185226 0.151722 0.328511 -0.296356
H16   H     H_    0.183275 0.139482 0.412286 0.170405
H17   H     H_    0.167729 0.105082 0.262417 0.184202
H18   H     H_    0.131073 0.192129 0.263605 0.134529
O19   O     O_3   0.840310 0.301949 0.456828 -0.538842
C91   C     C_3   0.771714 0.303378 0.468609 -0.193094
H19   H     H_    0.701475 0.319896 0.369729 0.112966
H20   H     H_    0.794965 0.339385 0.555663 0.199536
H21   H     H_    0.767976 0.252494 0.503301 0.203502
O20   O     O_3   0.761120 0.666844 0.373570 -0.586605
C92   C     C_3   0.687736 0.623356 0.327303 -0.284025
H22   H     H_    0.695320 0.611333 0.420391 0.177035
H23   H     H_    0.689929 0.574869 0.280672 0.202914
H24   H     H_    0.618630 0.648568 0.250350 0.181309
C93   C     C_3   0.777607 0.929523 0.372494 -0.929699
H25   H     H_    0.814418 0.962895 0.352282 0.228330
H26   H     H_    0.818613 0.928886 0.488773 0.238332
H27   H     H_    0.776420 0.875722 0.339453 0.247525
C94   C     C_3   0.297967 0.498933 0.400547 -0.962830
H28   H     H_    0.335370 0.498021 0.515386 0.229788
H29   H     H_    0.319694 0.451837 0.376564 0.241769
H30   H     H_    0.321702 0.545427 0.382015 0.236549
C95   C     C_3   0.400084 0.021367 0.084905 -0.781401
H31   H     H_    0.379908 0.996832 0.138243 0.261615
H32   H     H_    0.384083 0.077348 0.076609 0.244461
H33   H     H_    0.351695 0.996272 0.980026 0.169158
C96   C     C_3   0.900191 0.512510 0.080853 -0.722862
H34   H     H_    0.861187 0.479383 0.985281 0.220517
H35   H     H_    0.882059 0.493185 0.139807 0.287282
H36   H     H_    0.874815 0.566779 0.059212 0.206324
O21   O     O_3   0.279432 0.008027 0.476693 -0.533680
C97   C     C_3   0.190000 0.988401 0.422582 -0.436259
H37   H     H_    0.147375 0.033502 0.406128 0.148568
H38   H     H_    0.192334 0.951590 0.492159 0.137353
H39   H     H_    0.152617 0.964086 0.317122 0.186130
O22   O     O_3   0.778948 0.488742 0.481788 -0.555218
C98   C     C_3   0.693297 0.464277 0.435592 -0.466153
H40   H     H_    0.646145 0.507324 0.413519 0.149401
H41   H     H_    0.702518 0.428420 0.512793 0.159064
H42   H     H_    0.657171 0.436477 0.333717 0.192787
C99   C     C_3   0.665023 0.011182 0.937246 -0.762852
H43   H     H_    0.648971 0.066353 0.927125 0.234259
H44   H     H_    0.736677 0.008120 0.043057 0.174488
H45   H     H_    0.675188 0.992919 0.864859 0.222950
C100  C     C_3   0.178523 0.496350 0.922713 -0.717079
H46   H     H_    0.228751 0.539396 0.982023 0.175771
H47   H     H_    0.218841 0.447147 0.971846 0.179188
H48   H     H_    0.167456 0.499048 0.827433 0.223874
C101  C     C_3   0.561285 0.173906 0.997439 -0.725790
H49   H     H_    0.495974 0.156600 0.894816 0.284879
H50   H     H_    0.587322 0.129163 0.069020 0.214560
H51   H     H_    0.545990 0.218045 0.037414 0.249676
C102  C     C_3   0.498656 0.774826 0.872453 -0.829725
H52   H     H_    0.438527 0.781391 0.757497 0.266671
H53   H     H_    0.489604 0.724748 0.902752 0.271062
H54   H     H_    0.493071 0.818438 0.924972 0.223842
C103  C     C_3   0.049591 0.686722 0.976851 -0.704235
H55   H     H_    0.989238 0.665557 0.873171 0.285456
H56   H     H_    0.067153 0.646895 0.053192 0.216904
H57   H     H_    0.031121 0.735683 0.001099 0.252775
C104  C     C_3   0.050917 0.329588 0.973867 -0.728426
H58   H     H_    0.983177 0.336367 0.864456 0.279377
H59   H     H_    0.041859 0.291028 0.027578 0.250048
H60   H     H_    0.066152 0.379559 0.028111 0.210210
C105  C     C_3   0.744972 0.173050 0.307310 -0.850750
H61   H     H_    0.685134 0.178572 0.302997 0.241962
H62   H     H_    0.740080 0.123624 0.256537 0.233151
H63   H     H_    0.810723 0.168409 0.419304 0.227261
C106  C     C_3   0.630517 0.772821 0.188591 -0.783874
H64   H     H_    0.561985 0.749660 0.135532 0.247633
H65   H     H_    0.669452 0.775542 0.304162 0.250959
H66   H     H_    0.620176 0.826767 0.153891 0.238050
C107  C     C_3   0.217879 0.687976 0.296536 -0.860209
H67   H     H_    0.154301 0.699447 0.280528 0.229386
H68   H     H_    0.212465 0.636632 0.251933 0.248068
H69   H     H_    0.279689 0.683566 0.410961 0.235694
C108  C     C_3   0.210915 0.314404 0.288918 -0.794407
H70   H     H_    0.147269 0.304453 0.271822 0.231124
H71   H     H_    0.271163 0.316543 0.404554 0.233819
H72   H     H_    0.205014 0.366292 0.247923 0.241684
O23   O     O_3   0.397852 0.824373 0.153245 -0.547110
C109  C     C_3   0.345237 0.857203 0.019810 -0.289713
H73   H     H_    0.295805 0.896535 0.004274 0.134028
H74   H     H_    0.306051 0.820341 0.929975 0.155639
H75   H     H_    0.394386 0.882251 0.014279 0.192222
O24   O     O_3   0.428640 0.191356 0.213609 -0.580706
C110  C     C_3   0.494832 0.238978 0.317407 -0.259261
H76   H     H_    0.512770 0.229761 0.420579 0.158598
H77   H     H_    0.470127 0.293292 0.281912 0.135585
H78   H     H_    0.559520 0.231671 0.334774 0.198290
O25   O     O_3   0.812585 0.371637 0.061067 -0.561769
C111  C     C_3   0.724587 0.405580 0.966944 -0.360036
H79   H     H_    0.712852 0.439292 0.026894 0.149788
H80   H     H_    0.666090 0.368864 0.898761 0.162147
H81   H     H_    0.722259 0.438675 0.893245 0.179465
O26   O     O_3   0.913192 0.690117 0.194482 -0.568556
C112  C     C_3   0.971703 0.742005 0.294120 -0.311912
H82   H     H_    0.989379 0.732797 0.397080 0.149670
H83   H     H_    0.939816 0.794422 0.252778 0.151155
H84   H     H_    0.037744 0.740449 0.314442 0.169246
O27   O     O_3   0.724335 0.164128 0.602974 -0.576118
C113  C     C_3   0.783627 0.111248 0.621702 -0.278698
H85   H     H_    0.795553 0.068696 0.691292 0.129238
H86   H     H_    0.850092 0.132636 0.660239 0.181966
H87   H     H_    0.750335 0.088818 0.516399 0.178149
O28   O     O_3   0.770145 0.871009 0.674205 -0.562521
C114  C     C_3   0.846812 0.913695 0.772891 -0.359407
H88   H     H_    0.912008 0.882784 0.849479 0.187490
H89   H     H_    0.833333 0.947720 0.830490 0.131777
H90   H     H_    0.858042 0.947600 0.714940 0.156976
O29   O     O_3   0.284977 0.591970 0.713377 -0.576955
C115  C     C_3   0.285793 0.636894 0.626896 -0.300729
H91   H     H_    0.344496 0.673575 0.690318 0.170851
H92   H     H_    0.218262 0.665481 0.552412 0.160888
H93   H     H_    0.295721 0.605434 0.563214 0.185912
O30   O     O_3   0.261085 0.362631 0.656372 -0.570036
C116  C     C_3   0.334270 0.410039 0.739510 -0.300757
H94   H     H_    0.400446 0.385663 0.834106 0.161688
H95   H     H_    0.313266 0.453620 0.772460 0.180100
H96   H     H_    0.349014 0.431055 0.674640 0.179227
O31   O     O_3   0.448161 0.626985 0.974754 -0.585372
C117  C     C_3   0.470311 0.562181 0.041517 -0.352372
H97   H     H_    0.413389 0.524525 0.973061 0.170030
H98   H     H_    0.486865 0.567694 0.144690 0.140519
H99   H     H_    0.532710 0.540356 0.062902 0.178565
O32   O     O_3   0.372605 0.245753 0.802119 -0.608937
C118  C     C_3   0.315363 0.215084 0.666253 -0.198845
H100  H     H_    0.291231 0.254210 0.584240 0.224921
H101  H     H_    0.254192 0.188604 0.639345 0.105178
H102  H     H_    0.356578 0.175592 0.662833 0.248889
O33   O     O_3   0.894320 0.220399 0.841217 -0.574363
C119  C     C_3   0.963062 0.170690 0.938281 -0.442781
H103  H     H_    0.935853 0.117202 0.909707 0.149439
H104  H     H_    0.991731 0.181995 0.047551 0.158015
H105  H     H_    0.020890 0.172307 0.937683 0.201405
O34   O     O_3   0.865549 0.745477 0.788951 -0.612207
C120  C     C_3   0.806961 0.716513 0.651405 -0.214130
H106  H     H_    0.774664 0.757535 0.569442 0.215899
H107  H     H_    0.752153 0.683533 0.631298 0.115114
H108  H     H_    0.849744 0.682920 0.640604 0.246577
O35   O     O_3   0.515162 0.187403 0.727798 -0.553064
C121  C     C_3   0.489050 0.253302 0.663619 -0.306575
H109  H     H_    0.496320 0.293791 0.734499 0.171422
H110  H     H_    0.415157 0.252566 0.565802 0.210047
H111  H     H_    0.529327 0.267223 0.631783 0.132576
O36   O     O_3   0.510670 0.793512 0.660648 -0.532624
C122  C     C_3   0.503444 0.726317 0.607599 -0.293764
H112  H     H_    0.567021 0.710158 0.625915 0.130427
H113  H     H_    0.445856 0.725471 0.491428 0.196229
H114  H     H_    0.488026 0.687804 0.654573 0.159918
O37   O     O_3   0.026679 0.689513 0.726633 -0.558008
C123  C     C_3   0.007412 0.755401 0.665422 -0.340246
H115  H     H_    0.056011 0.767693 0.648120 0.127636
H116  H     H_    0.009806 0.796096 0.731634 0.176996
H117  H     H_    0.935884 0.755654 0.560182 0.206995
O38   O     O_3   0.024456 0.306228 0.723812 -0.528762
C124  C     C_3   0.011388 0.235158 0.685769 -0.215294
H118  H     H_    0.068826 0.199214 0.768317 0.090421
H119  H     H_    0.001588 0.228883 0.588346 0.167308
H120  H     H_    0.947804 0.217672 0.662910 0.211542

loop_
_geom_bond_atom_site_label_1
_geom_bond_atom_site_label_2
_geom_bond_distance
_ccdc_geom_bond_type
C107  H67   1.109389 S    
C67   N3    1.364507 A    
C96   H34   1.104923 S    
C26   C32   1.411291 A    
C106  H65   1.109558 S    
C20   C64   1.406582 A    
C98   H41   1.111988 S    
O10   C6    1.316958 A    
O3    C3    1.326330 A    
C74   C78   1.464273 A    
C99   H43   1.089687 S    
C90   H18   1.103304 S    
C33   C49   1.415470 A    
C119  H105  1.109547 S    
C74   C76   1.439186 A    
C93   H25   1.110434 S    
O19   C91   1.409983 S    
C83   C99   1.516553 S    
C46   C50   1.402028 A    
C123  H117  1.109608 S    
N1    C87   1.347936 A    
C110  H78   1.109519 S    
C65   C93   1.512599 S    
C105  H63   1.109334 S    
C99   H44   1.114455 S    
C15   C55   1.413162 A    
C123  H115  1.113123 S    
C89   H13   1.112938 S    
Cu1   O10   1.977437 S    
C76   C84   1.486376 A    
C84   C100  1.540633 S    
C66   C88   1.380481 A    
C75   C83   1.436650 A    
C55   O25   1.383021 S    
C118  H100  1.106462 S    
C94   H29   1.109285 S    
C18   O28   1.382356 S    
O38   C124  1.420504 S    
C120  H108  1.107242 S    
C45   C49   1.414187 A    
C116  H96   1.104067 S    
C25   C31   1.401895 A    
O35   C121  1.412311 S    
C114  H89   1.113849 S    
C65   C79   1.418457 A    
O28   C114  1.411269 S    
C31   C35   1.416764 A    
C40   C42   1.433056 A    
O29   C115  1.406374 S    
C22   C26   1.390239 A    
C37   C53   1.412767 A    
C13   C57   1.418921 A    
O2    Cu1   1.980152 S    
H6    C88   1.079386 S    
C103  H57   1.109211 S    
C16   C56   1.413921 A    
C79   C81   1.394480 A    
C67   C69   1.395314 A    
O6    Cu3   1.977810 S    
C32   C36   1.418518 A    
C92   H22   1.102971 S    
Cu3   O14   1.979815 S    
C27   C29   1.402612 A    
C81   C83   1.388736 A    
C112  H82   1.112434 S    
C8    C15   1.486679 S    
N1    C85   1.386376 A    
C121  H109  1.113914 S    
C36   C52   1.402587 A    
C9    C59   1.423122 A    
C108  H72   1.103630 S    
C115  H92   1.112803 S    
C28   H4    1.075780 S    
C11   C57   1.417567 A    
C31   C37   1.412905 A    
O15   C7    1.329103 A    
C95   H32   1.106243 S    
O11   C7    1.316741 A    
C14   C58   1.407326 A    
C119  H103  1.111847 S    
C11   C107  1.504328 S    
C48   C52   1.395523 A    
C1    C62   1.485394 S    
C101  H51   1.110105 S    
C10   C60   1.415196 A    
C28   C30   1.414830 A    
C10   C106  1.515398 S    
C106  H64   1.107198 S    
Cu4   O16   1.979815 S    
C54   O24   1.381424 S    
C122  H112  1.114187 S    
C85   C95   1.512417 S    
C26   H2    1.072697 S    
C77   C79   1.419234 A    
C17   C61   1.416785 A    
C111  H79   1.112505 S    
C39   C55   1.399855 A    
C59   O19   1.386478 S    
C66   C94   1.518158 S    
Cu3   N3    2.056437 S    
Cu2   N2    2.068703 S    
C93   H26   1.109441 S    
C47   C103  1.500859 S    
C18   C24   1.395489 A    
C36   C64   1.430175 A    
C98   H42   1.108216 S    
C97   H38   1.110615 S    
C116  H95   1.110463 S    
C121  H110  1.102390 S    
C38   C44   1.427132 A    
C99   H45   1.095945 S    
C9    C41   1.413478 A    
C20   O30   1.381591 S    
C39   C41   1.402631 A    
C115  H93   1.104448 S    
C50   O36   1.383431 S    
C42   C46   1.429282 A    
C56   O26   1.382833 S    
C108  H70   1.106815 S    
C51   O37   1.384048 S    
C11   C43   1.408701 A    
C107  H69   1.106734 S    
O31   C117  1.411292 S    
O1    C1    1.320188 A    
O20   C92   1.405091 S    
C12   C44   1.412091 A    
C100  H47   1.112912 S    
C19   O29   1.379391 S    
C16   C60   1.405277 A    
C102  H54   1.107283 S    
C98   H40   1.107206 S    
C23   O33   1.378428 S    
C100  H48   1.067054 S    
C119  H104  1.108169 S    
C45   C101  1.505278 S    
C111  H81   1.106814 S    
O37   C123  1.408788 S    
C60   O20   1.379128 S    
C12   C58   1.409163 A    
C40   C56   1.422485 A    
C113  H87   1.104933 S    
C71   H9    1.071712 S    
C104  H58   1.109510 S    
C4    C63   1.489343 S    
C70   H12   1.081306 S    
C92   H23   1.111541 S    
C27   H3    1.083395 S    
C17   C23   1.404865 A    
C25   H1    1.082831 S    
C102  H52   1.108331 S    
C104  H59   1.100858 S    
C43   C47   1.412701 A    
O5    C1    1.317270 A    
O25   C111  1.417573 S    
Cu2   O12   1.977437 S    
C49   O35   1.382110 S    
C97   H39   1.108258 S    
C107  H68   1.104687 S    
C106  H66   1.099278 S    
C6    C13   1.493834 S    
O7    C3    1.318150 A    
O23   C109  1.413012 S    
C34   C50   1.396980 A    
C109  H75   1.107181 S    
C22   O32   1.377796 S    
C80   C82   1.369934 A    
O8    C4    1.315082 A    
O5    Cu3   1.950968 S    
O32   C118  1.410286 S    
C21   O31   1.380428 S    
C124  H119  1.109960 S    
C115  H91   1.111812 S    
C114  H90   1.107775 S    
C124  H120  1.107654 S    
C52   O38   1.381390 S    
C73   C75   1.426906 A    
C30   C34   1.410882 A    
C21   C25   1.389187 A    
O24   C110  1.409526 S    
C95   H33   1.102666 S    
C72   C74   1.407990 A    
C77   C85   1.434519 A    
C68   O22   1.390466 S    
O3    Cu2   1.965551 S    
C32   C38   1.435708 A    
C14   C54   1.416789 A    
C117  H99   1.108763 S    
C24   O34   1.374167 S    
C82   C84   1.405069 A    
C13   C53   1.425255 A    
O7    Cu4   1.950968 S    
C69   C71   1.380952 A    
C109  H74   1.106322 S    
H5    C87   1.078394 S    
Cu4   O15   1.965220 S    
C68   C70   1.394157 A    
C122  H113  1.103786 S    
Cu1   Cu3   2.744931 S    
O22   C98   1.418430 S    
C7    C16   1.500026 S    
Cu2   Cu4   2.744931 S    
C94   H30   1.109296 S    
O4    C4    1.325891 A    
C66   C80   1.424954 A    
C35   C63   1.433356 A    
C90   H16   1.102506 S    
O2    C2    1.322181 A    
C44   C48   1.417247 A    
C34   C62   1.422181 A    
C93   H27   1.109106 S    
C57   O17   1.391060 S    
C38   C54   1.421827 A    
C91   H20   1.105825 S    
C117  H98   1.112729 S    
C70   C72   1.380131 A    
C71   C73   1.408160 A    
C69   H11   1.080698 S    
N2    C88   1.341450 A    
C17   O27   1.388076 S    
O13   C5    1.326850 A    
O30   C116  1.410358 S    
C111  H80   1.114259 S    
C89   H14   1.103938 S    
Cu4   N4    2.056437 S    
C76   N4    1.429444 A    
C113  H86   1.106599 S    
C89   H15   1.104874 S    
Cu2   O11   1.950600 S    
C53   O23   1.387210 S    
C75   N3    1.404299 A    
O16   C8    1.322379 A    
C37   C43   1.399678 A    
C65   C87   1.389563 A    
C91   H19   1.113420 S    
C90   H17   1.111980 S    
C29   C39   1.414244 A    
O6    C2    1.322483 A    
C96   H35   1.074093 S    
C116  H94   1.114110 S    
C68   N4    1.360444 A    
C97   H37   1.103934 S    
C92   H24   1.103845 S    
C3    C64   1.496968 S    
C96   H36   1.106065 S    
O12   C8    1.316601 A    
C5    C14   1.493517 S    
C2    C61   1.495710 S    
C123  H116  1.113521 S    
C48   C104  1.514297 S    
Cu1   O9    1.950600 S    
C120  H106  1.110188 S    
O9    C5    1.315748 A    
C118  H102  1.104778 S    
C46   C102  1.514108 S    
C10   C42   1.424241 A    
O18   C90   1.408050 S    
C58   O18   1.378915 S    
C104  H60   1.101038 S    
C30   C40   1.434834 A    
C103  H55   1.102332 S    
H7    C81   1.083471 S    
C100  H46   1.114958 S    
C9    C105  1.510734 S    
C94   H28   1.106674 S    
C91   H21   1.104243 S    
C120  H107  1.114706 S    
C78   C86   1.435266 A    
O17   C89   1.408161 S    
Cu3   O13   1.965220 S    
O21   C97   1.419519 S    
C121  H111  1.112367 S    
C29   C33   1.408333 A    
C114  H88   1.113058 S    
C110  H76   1.112698 S    
C20   C22   1.400249 A    
C113  H85   1.113704 S    
C78   C80   1.409632 A    
C47   C51   1.411309 A    
O4    Cu2   1.980152 S    
C110  H77   1.113600 S    
C33   C61   1.427926 A    
C35   C51   1.422368 A    
Cu1   N1    2.068703 S    
C12   C108  1.512327 S    
O34   C120  1.411210 S    
C19   C63   1.418223 A    
C105  H61   1.109829 S    
C124  H118  1.117879 S    
C41   C45   1.415714 A    
C86   C96   1.501729 S    
C112  H84   1.109256 S    
O1    Cu1   1.965551 S    
O36   C122  1.417832 S    
C19   C21   1.400886 A    
C102  H53   1.103116 S    
O8    Cu4   1.977810 S    
O26   C112  1.409897 S    
O14   C6    1.325783 A    
C122  H114  1.112577 S    
C118  H101  1.114586 S    
O27   C113  1.410062 S    
C108  H71   1.108026 S    
C101  H49   1.101431 S    
O33   C119  1.415328 S    
N2    C86   1.386025 A    
C73   C77   1.454101 A    
C15   C59   1.416639 A    
C112  H83   1.113676 S    
C105  H62   1.110749 S    
C95   H31   1.083914 S    
C72   H10   1.068476 S    
C23   C27   1.398906 A    
C103  H56   1.099078 S    
H8    C82   1.084508 S    
C18   C62   1.402415 A    
C24   C28   1.397566 A    
C67   O21   1.390874 S    
C109  H73   1.112507 S    
C117  H97   1.111593 S    
C101  H50   1.103212 S    
