data_mof_unit_68442.cif
_audit_creation_date              2013-03-05T15:41:20-0500
_audit_creation_method            fapswitch 2.2
_symmetry_space_group_name_H-M    P1
_symmetry_Int_Tables_number       1
_space_group_crystal_system       triclinic
_cell_length_a                    10.662057
_cell_length_b                    8.844134
_cell_length_c                    7.525714
_cell_angle_alpha                 102.040667
_cell_angle_beta                  94.072127
_cell_angle_gamma                 92.95634
_cell_volume                      690.680164407

loop_
_atom_site_label
_atom_site_type_symbol
_atom_site_description
_atom_site_fract_x
_atom_site_fract_y
_atom_site_fract_z
_atom_type_partial_charge
O1    O     O_R   0.509190 0.286130 0.619780 -0.516232
O2    O     O_R   0.490810 0.713870 0.380220 -0.553542
O3    O     O_R   0.485310 0.256770 0.308360 -0.555481
O4    O     O_R   0.514690 0.743230 0.691640 -0.611279
C1    C     C_R   0.492469 0.200785 0.455478 0.830926
C2    C     C_R   0.504790 0.798737 0.544763 0.846643
O5    O     O_R   0.328790 0.514640 0.655680 -0.558127
O6    O     O_R   0.671210 0.485360 0.344320 -0.531631
O7    O     O_R   0.304910 0.485280 0.344260 -0.636304
O8    O     O_R   0.695090 0.514720 0.655740 -0.603164
C3    C     C_R   0.259809 0.497355 0.501968 0.856271
C4    C     C_R   0.739929 0.502194 0.498268 0.858098
Cu1   Cu    Cu3+1 0.514140 0.517380 0.684380 1.108731
Cu2   Cu    Cu3+1 0.485860 0.482620 0.315620 1.114300
N1    N     N_2   0.464560 0.456420 0.038510 0.158596
N2    N     N_2   0.535440 0.543580 0.961490 0.141977
C5    C     C_3   0.041400 0.421516 0.627856 -0.256631
C6    C     C_3   0.957622 0.578198 0.374370 -0.235800
C7    C     C_3   0.950186 0.357277 0.458982 0.426332
C8    C     C_3   0.048869 0.642088 0.543651 0.423156
H1    H     H_    0.069872 0.358592 0.734306 0.173046
H2    H     H_    0.923648 0.641679 0.270925 0.188417
C9    C     C_3   0.876171 0.501484 0.496286 -0.126956
C10   C     C_3   0.123112 0.497713 0.505591 -0.124442
C11   C     C_3   0.966627 0.569364 0.666736 -0.249595
C12   C     C_3   0.032132 0.429760 0.335089 -0.270701
H3    H     H_    0.939539 0.629869 0.801811 0.182996
H4    H     H_    0.057752 0.368156 0.199897 0.166245
C13   C     C_2   0.470141 0.034882 0.436650 0.046306
C14   C     C_2   0.519898 0.964560 0.566454 0.080109
N3    N     N_R   0.897276 0.198536 0.412662 0.134283
O9    O     O_R   0.970306 0.086743 0.363271 -0.321630
O10   O     O_R   0.779619 0.167326 0.433825 -0.385211
N4    N     N_R   0.102441 0.800252 0.596665 0.147872
O11   O     O_R   0.028051 0.913007 0.626861 -0.306594
O12   O     O_R   0.222479 0.827002 0.642203 -0.377229
O13   O     O_3   0.398976 0.341302 0.916926 -0.443194
C15   C     C_3   0.286606 0.302330 0.986654 0.104349
H5    H     H_    0.224750 0.400890 0.000699 0.131729
H6    H     H_    0.303476 0.264764 0.116315 0.210955
C16   C     C_3   0.221112 0.163176 0.855494 -0.621487
H7    H     H_    0.276543 0.062040 0.861358 0.320107
H8    H     H_    0.125010 0.140545 0.896170 0.231482
H9    H     H_    0.216162 0.180901 0.713441 0.246594
O14   O     O_3   0.630660 0.624398 0.075075 -0.492609
C17   C     C_3   0.658787 0.762389 0.018050 0.119623
H10   H     H_    0.573119 0.827476 0.012436 0.232539
H11   H     H_    0.701124 0.740278 0.886192 0.187979
C18   C     C_3   0.755108 0.864787 0.153293 -0.634108
H12   H     H_    0.849994 0.821322 0.136122 0.229454
H13   H     H_    0.757877 0.982854 0.124328 0.279890
H14   H     H_    0.729967 0.869315 0.294953 0.267147
N5    N     N_R   0.385332 0.952311 0.285287 0.108094
O15   O     O_R   0.395324 0.977682 0.122850 -0.350661
O16   O     O_R   0.286082 0.871994 0.314018 -0.298299
N6    N     N_R   0.602890 0.046505 0.718893 0.121011
O17   O     O_R   0.722597 0.024319 0.720622 -0.331039
O18   O     O_R   0.556202 0.099855 0.872720 -0.283309

loop_
_geom_bond_atom_site_label_1
_geom_bond_atom_site_label_2
_geom_bond_distance
_ccdc_geom_bond_type
N2    O14   1.348809 S    
C7    C9    1.521209 S    
O7    Cu2   1.957251 S    
N3    O10   1.298554 A    
C13   C14   1.355147 D    
C11   H3    1.110766 S    
C16   H8    1.110233 S    
C16   H7    1.103897 S    
C12   H4    1.109122 S    
N3    O9    1.299692 A    
C6    C12   1.555952 S    
O6    C4    1.302885 A    
C18   H14   1.110811 S    
C8    N4    1.447249 S    
C18   H13   1.109707 S    
N5    O16   1.300066 A    
C7    N3    1.448091 S    
C6    H2    1.102611 S    
Cu1   Cu2   2.720792 S    
C15   H6    1.100634 S    
O7    C3    1.297981 A    
C17   C18   1.510566 S    
O2    C2    1.301325 A    
O3    Cu2   1.986462 S    
C13   N5    1.444669 S    
O1    C1    1.302244 A    
O8    C4    1.294764 A    
C2    C14   1.440629 S    
O13   C15   1.397050 S    
C10   C12   1.545956 S    
O5    C3    1.302407 A    
C6    C8    1.534822 S    
C9    C11   1.542498 S    
C15   H5    1.112080 S    
O2    Cu2   1.998098 S    
C16   H9    1.110400 S    
C17   H11   1.103847 S    
C5    C10   1.540065 S    
O1    Cu1   1.998097 S    
C8    C11   1.531787 S    
C6    C9    1.538969 S    
C1    C13   1.449856 S    
O14   C17   1.400906 S    
C3    C10   1.459812 S    
O5    Cu1   1.971016 S    
N6    O17   1.300846 A    
N4    O12   1.297717 A    
C15   C16   1.511025 S    
O4    C2    1.299659 A    
N4    O11   1.299159 A    
Cu1   N2    2.044522 S    
O4    Cu1   1.986463 S    
C18   H12   1.107208 S    
C7    C12   1.533278 S    
C8    C10   1.524110 S    
C17   H10   1.107397 S    
N1    O13   1.345284 S    
C4    C9    1.454078 S    
Cu2   N1    2.044522 S    
O6    Cu2   1.971018 S    
C5    C7    1.532971 S    
N5    O15   1.298681 A    
C14   N6    1.437745 S    
C5    H1    1.101147 S    
N1    N2    1.299942 D    
N6    O18   1.299533 A    
C5    C11   1.553066 S    
O3    C1    1.302849 A    
O8    Cu1   1.957251 S    
