data_mof_unit_21362.cif
_audit_creation_date              2012-12-11T16:19:06-0500
_audit_creation_method            fapswitch 2.2
_symmetry_space_group_name_H-M    P1
_symmetry_Int_Tables_number       1
_space_group_crystal_system       triclinic
_cell_length_a                    6.910008
_cell_length_b                    31.539074
_cell_length_c                    34.89536
_cell_angle_alpha                 90.000101
_cell_angle_beta                  90.000099
_cell_angle_gamma                 90.000024
_cell_volume                      7604.92913287

loop_
_atom_site_label
_atom_site_type_symbol
_atom_type_description
_atom_site_fract_x
_atom_site_fract_y
_atom_site_fract_z
_atom_type_partial_charge
O1    O     O_R   0.417270 0.211480 0.210950 -0.527794
O2    O     O_R   0.582730 0.788520 0.789050 -0.527794
O3    O     O_R   0.582730 0.788520 0.710950 -0.527793
O4    O     O_R   0.417270 0.211480 0.289050 -0.527793
O5    O     O_R   0.917270 0.288520 0.289050 -0.527793
O6    O     O_R   0.082730 0.711480 0.710950 -0.527793
O7    O     O_R   0.082730 0.711480 0.789050 -0.527794
O8    O     O_R   0.917270 0.288520 0.210950 -0.527794
O9    O     O_R   0.746940 0.206370 0.288750 -0.534874
O10   O     O_R   0.253060 0.793630 0.711250 -0.534874
O11   O     O_R   0.253060 0.793630 0.788750 -0.534874
O12   O     O_R   0.746940 0.206370 0.211250 -0.534874
O13   O     O_R   0.246940 0.293630 0.211250 -0.534874
O14   O     O_R   0.753060 0.706370 0.788750 -0.534874
O15   O     O_R   0.753060 0.706370 0.711250 -0.534874
O16   O     O_R   0.246940 0.293630 0.288750 -0.534874
C1    C     C_R   0.577716 0.196542 0.302569 0.756166
C2    C     C_R   0.422284 0.803458 0.697431 0.756165
C3    C     C_R   0.422284 0.803458 0.802569 0.756164
C4    C     C_R   0.577716 0.196542 0.197431 0.756165
C5    C     C_R   0.077716 0.303458 0.197431 0.756165
C6    C     C_R   0.922284 0.696542 0.802569 0.756166
C7    C     C_R   0.922284 0.696542 0.697431 0.756166
C8    C     C_R   0.077716 0.303458 0.302569 0.756166
O17   O     O_3   0.583760 0.276950 0.250000 -0.361694
O18   O     O_3   0.416240 0.723050 0.750000 -0.361693
O19   O     O_3   0.083760 0.223050 0.250000 -0.361694
O20   O     O_3   0.916240 0.776950 0.750000 -0.361694
V1    V     V_3+5 0.858600 0.245000 0.250000 1.525195
V2    V     V_3+5 0.141400 0.755000 0.750000 1.525195
V3    V     V_3+5 0.358600 0.255000 0.250000 1.525195
V4    V     V_3+5 0.641400 0.745000 0.750000 1.525195
C9    C     C_R   0.947532 0.587368 0.537204 0.592225
C10   C     C_R   0.052468 0.412632 0.462796 0.592225
C11   C     C_R   0.052445 0.412631 0.037203 0.592223
C12   C     C_R   0.947555 0.587369 0.962797 0.592223
C13   C     C_R   0.447463 0.912634 0.962795 0.592229
C14   C     C_R   0.552537 0.087366 0.037205 0.592229
C15   C     C_R   0.552444 0.087369 0.462797 0.592223
C16   C     C_R   0.447556 0.912631 0.537203 0.592223
N1    N     N_R   0.951205 0.573704 0.574571 -0.556870
N2    N     N_R   0.048795 0.426295 0.425429 -0.556870
N3    N     N_R   0.048793 0.426295 0.074570 -0.556868
N4    N     N_R   0.951207 0.573705 0.925429 -0.556868
N5    N     N_R   0.451208 0.926296 0.925428 -0.556872
N6    N     N_R   0.548792 0.073703 0.074571 -0.556872
N7    N     N_R   0.548793 0.073705 0.425430 -0.556868
N8    N     N_R   0.451207 0.926295 0.574570 -0.556868
C17   C     C_R   0.971171 0.531428 0.583056 0.576772
C18   C     C_R   0.028829 0.468572 0.416944 0.576772
C19   C     C_R   0.028850 0.468572 0.083056 0.576772
C20   C     C_R   0.971150 0.531428 0.916944 0.576772
C21   C     C_R   0.471246 0.968571 0.916943 0.576775
C22   C     C_R   0.528754 0.031428 0.083057 0.576775
C23   C     C_R   0.528851 0.031427 0.416944 0.576771
C24   C     C_R   0.471149 0.968572 0.583055 0.576770
C25   C     C_R   0.990432 0.501199 0.553510 -0.032063
C26   C     C_R   0.009568 0.498801 0.446490 -0.032063
C27   C     C_R   0.009591 0.498801 0.053510 -0.032063
C28   C     C_R   0.990409 0.501198 0.946490 -0.032063
C29   C     C_R   0.490508 0.998800 0.946489 -0.032066
C30   C     C_R   0.509491 0.001200 0.053511 -0.032067
C31   C     C_R   0.509592 0.001198 0.446490 -0.032062
C32   C     C_R   0.490408 0.998801 0.553510 -0.032062
C33   C     C_R   0.989286 0.514888 0.515086 -0.015647
C34   C     C_R   0.010714 0.485112 0.484914 -0.015646
C35   C     C_R   0.010714 0.485112 0.015086 -0.015646
C36   C     C_R   0.989286 0.514888 0.984914 -0.015646
C37   C     C_R   0.489287 0.985112 0.984914 -0.015642
C38   C     C_R   0.510713 0.014888 0.015086 -0.015642
C39   C     C_R   0.510714 0.014888 0.484914 -0.015647
C40   C     C_R   0.489286 0.985112 0.515086 -0.015647
C41   C     C_R   0.967034 0.558293 0.506764 -0.038987
C42   C     C_R   0.032966 0.441707 0.493236 -0.038987
C43   C     C_R   0.032942 0.441706 0.006763 -0.038987
C44   C     C_R   0.967058 0.558294 0.993236 -0.038987
C45   C     C_R   0.466961 0.941709 0.993236 -0.038990
C46   C     C_R   0.533039 0.058291 0.006764 -0.038990
C47   C     C_R   0.532941 0.058294 0.493237 -0.038987
C48   C     C_R   0.467059 0.941706 0.506763 -0.038987
C49   C     C_R   0.012989 0.457767 0.561457 -0.133911
C50   C     C_R   0.987011 0.542233 0.438543 -0.133910
C51   C     C_R   0.987057 0.542233 0.061457 -0.133910
C52   C     C_R   0.012942 0.457766 0.938543 -0.133911
C53   C     C_R   0.513140 0.042229 0.938543 -0.133912
C54   C     C_R   0.486860 0.957770 0.061457 -0.133914
C55   C     C_R   0.487060 0.957766 0.438543 -0.133911
C56   C     C_R   0.512940 0.042234 0.561457 -0.133911
C57   C     C_R   0.034041 0.428404 0.531707 -0.129387
C58   C     C_R   0.965959 0.571596 0.468293 -0.129387
C59   C     C_R   0.966006 0.571597 0.031707 -0.129386
C60   C     C_R   0.033994 0.428403 0.968293 -0.129386
C61   C     C_R   0.534190 0.071592 0.968294 -0.129389
C62   C     C_R   0.465810 0.928407 0.031706 -0.129388
C63   C     C_R   0.466008 0.928403 0.468293 -0.129385
C64   C     C_R   0.533991 0.071597 0.531707 -0.129385
O21   O     O_2   0.924775 0.628984 0.529470 -0.499209
O22   O     O_2   0.075225 0.371016 0.470529 -0.499209
O23   O     O_2   0.075181 0.371015 0.029470 -0.499209
O24   O     O_2   0.924819 0.628985 0.970530 -0.499209
O25   O     O_2   0.424642 0.871020 0.970528 -0.499207
O26   O     O_2   0.575358 0.128980 0.029472 -0.499207
O27   O     O_2   0.575178 0.128985 0.470530 -0.499210
O28   O     O_2   0.424822 0.871014 0.529470 -0.499210
O29   O     O_2   0.975532 0.518687 0.619949 -0.516743
O30   O     O_2   0.024468 0.481313 0.380051 -0.516743
O31   O     O_2   0.024510 0.481314 0.119948 -0.516744
O32   O     O_2   0.975490 0.518686 0.880052 -0.516744
O33   O     O_2   0.475675 0.981311 0.880051 -0.516741
O34   O     O_2   0.524325 0.018689 0.119949 -0.516741
O35   O     O_2   0.524513 0.018686 0.380052 -0.516744
O36   O     O_2   0.475487 0.981314 0.619948 -0.516744
H1    H     H_    0.014713 0.446296 0.590708 0.176480
H2    H     H_    0.985286 0.553704 0.409292 0.176480
H3    H     H_    0.985351 0.553705 0.090707 0.176480
H4    H     H_    0.014649 0.446295 0.909293 0.176481
H5    H     H_    0.514925 0.053700 0.909292 0.176480
H6    H     H_    0.485075 0.946300 0.090708 0.176480
H7    H     H_    0.485355 0.946295 0.409293 0.176481
H8    H     H_    0.514645 0.053705 0.590707 0.176481
H9    H     H_    0.050870 0.395226 0.538981 0.179338
H10   H     H_    0.949130 0.604773 0.461019 0.179338
H11   H     H_    0.949196 0.604775 0.038981 0.179338
H12   H     H_    0.050804 0.395225 0.961018 0.179338
H13   H     H_    0.551078 0.104768 0.961019 0.179337
H14   H     H_    0.448922 0.895231 0.038981 0.179337
H15   H     H_    0.449200 0.895225 0.461018 0.179338
H16   H     H_    0.550800 0.104775 0.538982 0.179338
C65   C     C_R   0.212878 0.394319 0.369172 -0.069076
C66   C     C_R   0.787122 0.605681 0.630828 -0.069076
C67   C     C_R   0.787121 0.605682 0.869173 -0.069075
C68   C     C_R   0.212879 0.394318 0.130827 -0.069076
C69   C     C_R   0.712868 0.105678 0.130830 -0.069084
C70   C     C_R   0.287132 0.894322 0.869169 -0.069084
C71   C     C_R   0.287122 0.894318 0.630827 -0.069075
C72   C     C_R   0.712878 0.105682 0.369173 -0.069075
H17   H     H_    0.331045 0.416596 0.372318 0.139349
H18   H     H_    0.668955 0.583404 0.627682 0.139349
H19   H     H_    0.668953 0.583406 0.872319 0.139351
H20   H     H_    0.331047 0.416594 0.127681 0.139351
H21   H     H_    0.831026 0.083399 0.127686 0.139342
H22   H     H_    0.168974 0.916601 0.872313 0.139342
H23   H     H_    0.168953 0.916594 0.627681 0.139352
H24   H     H_    0.831046 0.083405 0.372319 0.139352
C73   C     C_R   0.218216 0.364293 0.339556 -0.204860
C74   C     C_R   0.781784 0.635707 0.660443 -0.204860
C75   C     C_R   0.781783 0.635707 0.839557 -0.204859
C76   C     C_R   0.218217 0.364292 0.160443 -0.204859
C77   C     C_R   0.718208 0.135704 0.160446 -0.204859
C78   C     C_R   0.281792 0.864296 0.839554 -0.204859
C79   C     C_R   0.281783 0.864293 0.660443 -0.204861
C80   C     C_R   0.718217 0.135707 0.339557 -0.204861
H25   H     H_    0.340856 0.364406 0.320229 0.152214
H26   H     H_    0.659144 0.635594 0.679771 0.152214
H27   H     H_    0.659141 0.635595 0.820230 0.152215
H28   H     H_    0.340859 0.364405 0.179770 0.152215
H29   H     H_    0.840842 0.135590 0.179774 0.152208
H30   H     H_    0.159158 0.864410 0.820226 0.152208
H31   H     H_    0.159142 0.864405 0.679770 0.152214
H32   H     H_    0.840858 0.135595 0.320230 0.152214
C81   C     C_R   0.066912 0.334775 0.334639 -0.096400
C82   C     C_R   0.933088 0.665225 0.665361 -0.096400
C83   C     C_R   0.933089 0.665225 0.834638 -0.096399
C84   C     C_R   0.066911 0.334775 0.165361 -0.096399
C85   C     C_R   0.566911 0.165224 0.165361 -0.096401
C86   C     C_R   0.433089 0.834776 0.834638 -0.096402
C87   C     C_R   0.433088 0.834775 0.665361 -0.096399
C88   C     C_R   0.566912 0.165225 0.334639 -0.096399
C89   C     C_R   0.909601 0.335909 0.360897 0.128208
C90   C     C_R   0.090399 0.664090 0.639103 0.128209
C91   C     C_R   0.090402 0.664090 0.860897 0.128207
C92   C     C_R   0.909598 0.335910 0.139103 0.128208
C93   C     C_R   0.409607 0.164092 0.139101 0.128215
C94   C     C_R   0.590393 0.835908 0.860899 0.128214
C95   C     C_R   0.590401 0.835910 0.639103 0.128207
C96   C     C_R   0.409599 0.164090 0.360897 0.128207
C97   C     C_R   0.905928 0.366206 0.390254 -0.105879
C98   C     C_R   0.094072 0.633794 0.609746 -0.105879
C99   C     C_R   0.094075 0.633793 0.890254 -0.105878
C100  C     C_R   0.905925 0.366207 0.109746 -0.105878
C101  C     C_R   0.405935 0.133796 0.109744 -0.105880
C102  C     C_R   0.594065 0.866204 0.890256 -0.105880
C103  C     C_R   0.594074 0.866206 0.609746 -0.105879
C104  C     C_R   0.405925 0.133794 0.390254 -0.105879
H33   H     H_    0.785231 0.366877 0.410048 0.153222
H34   H     H_    0.214769 0.633123 0.589952 0.153222
H35   H     H_    0.214775 0.633123 0.910047 0.153224
H36   H     H_    0.785225 0.366877 0.089953 0.153224
H37   H     H_    0.285245 0.133127 0.089949 0.153217
H38   H     H_    0.714755 0.866873 0.910051 0.153217
H39   H     H_    0.714774 0.866877 0.589953 0.153224
H40   H     H_    0.285226 0.133123 0.410047 0.153224
C105  C     C_R   0.056340 0.395514 0.394711 0.332599
C106  C     C_R   0.943660 0.604486 0.605289 0.332599
C107  C     C_R   0.943662 0.604486 0.894711 0.332595
C108  C     C_R   0.056339 0.395514 0.105289 0.332596
C109  C     C_R   0.556338 0.104485 0.105290 0.332612
C110  C     C_R   0.443662 0.895514 0.894710 0.332612
C111  C     C_R   0.443661 0.895513 0.605289 0.332595
C112  C     C_R   0.556339 0.104486 0.394711 0.332595
I1    I     I_    0.675047 0.292264 0.361455 -0.306625
I2    I     I_    0.324953 0.707736 0.638545 -0.306625
I3    I     I_    0.324957 0.707735 0.861454 -0.306629
I4    I     I_    0.675043 0.292265 0.138546 -0.306629
I5    I     I_    0.175062 0.207740 0.138542 -0.306614
I6    I     I_    0.824938 0.792260 0.861458 -0.306614
I7    I     I_    0.824956 0.792264 0.638546 -0.306628
I8    I     I_    0.175044 0.207736 0.361454 -0.306627

loop_
_geom_bond_atom_site_label_1
_geom_bond_atom_site_label_2
_ccdc_geom_bond_type
O17   V3    S    
C16   O28   S    
C80   H32   S    
O18   V4    S    
O12   V1    S    
O19   V1    S    
C37   C45   A    
C8    C81   S    
C102  C110  A    
C95   I7    S    
C101  C109  A    
C94   C102  A    
C56   C64   A    
C17   C25   A    
O15   V4    S    
C99   C107  A    
O16   V3    S    
C4    C85   S    
C98   C106  A    
C64   H16   S    
C97   C105  A    
C20   C28   A    
C90   C98   A    
O8    V1    S    
C42   C57   A    
C15   N7    A    
C38   C46   A    
C27   C51   A    
C41   C58   A    
C26   C50   A    
C71   C111  A    
C72   H24   S    
C79   C87   A    
C66   C74   A    
C99   H35   S    
C46   C61   A    
C29   C37   A    
C34   C42   A    
C45   C62   A    
O1    V3    S    
C97   H33   S    
C30   C38   A    
O3    C2    A    
O2    V4    S    
N1    C17   A    
C82   C90   A    
C92   I4    S    
C54   C62   A    
C27   C35   A    
C21   C29   A    
C26   C34   A    
C78   H30   S    
C68   H20   S    
O11   V2    S    
C76   H28   S    
C10   N2    A    
C104  C112  A    
C23   C31   A    
C104  H40   S    
C67   C75   A    
C3    C86   S    
C18   O30   S    
C56   H8    S    
C11   N3    A    
C65   C73   A    
C100  C108  A    
O9    V1    S    
C7    C82   S    
C81   C89   A    
N4    C20   A    
O15   C7    A    
N7    C23   A    
C93   C101  A    
C49   C57   A    
O16   C8    A    
O7    V2    S    
C59   H11   S    
C57   H9    S    
O12   C4    A    
C58   H10   S    
C100  H36   S    
O3    V4    S    
C101  H37   S    
C11   O23   S    
C89   C97   A    
C80   C88   A    
C93   I5    S    
C19   C27   A    
O5    V1    S    
C62   H14   S    
O17   V1    S    
O10   C2    A    
C86   C94   A    
C78   C86   A    
C72   C112  A    
N8    C111  S    
O19   V3    S    
C35   C36   A    
C76   C84   A    
C51   H3    S    
O20   V4    S    
C77   C85   A    
C50   H2    S    
C54   H6    S    
C33   C41   A    
C25   C33   A    
C96   C104  A    
N6    C109  S    
C17   O29   S    
C14   C46   A    
C89   I1    S    
N5    C110  S    
C13   C45   A    
C103  C111  A    
C39   C47   A    
C40   C48   A    
C21   O33   S    
C55   C63   A    
N3    C108  S    
C22   O34   S    
C79   H31   S    
N2    C105  S    
C55   H7    S    
N1    C106  S    
C70   H22   S    
C74   C82   A    
O10   V2    S    
C52   C60   A    
C53   C61   A    
C74   H26   S    
O11   C3    A    
N6    C22   A    
C16   C48   A    
O8    C5    A    
C18   C26   A    
C69   C77   A    
C12   O24   S    
O9    C1    A    
C48   C63   A    
C53   H5    S    
C20   O32   S    
C29   C53   A    
C43   C60   A    
N2    C18   A    
C88   C96   A    
O4    C1    A    
O1    C4    A    
C19   O31   S    
O6    V2    S    
C31   C39   A    
O18   V2    S    
C96   I8    S    
O14   C6    A    
C25   C49   A    
N7    C112  S    
C12   N4    A    
C23   O35   S    
C35   C43   A    
C13   N5    A    
C66   H18   S    
C83   C91   A    
C30   C54   A    
C95   C103  A    
C9    C41   A    
C16   N8    A    
C84   C92   A    
N4    C107  S    
C69   C109  A    
C70   C110  A    
C31   C55   A    
O2    C3    A    
C68   C76   A    
O13   V3    S    
C67   C107  A    
C11   C43   A    
O14   V4    S    
C66   C106  A    
C1    C88   S    
C103  H39   S    
C65   C105  A    
C2    C87   S    
C15   O27   S    
N8    C24   A    
C75   H27   S    
C36   C44   A    
O7    C6    A    
C51   C59   A    
C69   H21   S    
C50   C58   A    
C9    N1    A    
C39   C40   A    
C91   C99   A    
C60   H12   S    
C73   H25   S    
C47   C64   A    
C14   O26   S    
C75   C83   A    
O13   C5    A    
C14   N6    A    
C13   O25   S    
C6    C83   S    
C28   C52   A    
C92   C100  A    
C24   C32   A    
O5    C8    A    
C73   C81   A    
N3    C19   A    
C71   C79   A    
O6    C7    A    
O20   V2    S    
C71   H23   S    
C10   O22   S    
C24   O36   S    
C87   C95   A    
C9    O21   S    
C32   C40   A    
C91   I3    S    
C37   C38   A    
C61   H13   S    
C90   I2    S    
O4    V3    S    
C67   H19   S    
C44   C59   A    
N5    C21   A    
C98   H34   S    
C63   H15   S    
C12   C44   A    
C65   H17   S    
C28   C36   A    
C52   H4    S    
C33   C34   A    
C49   H1    S    
C5    C84   S    
C22   C30   A    
C10   C42   A    
C102  H38   S    
C77   H29   S    
C72   C80   A    
C85   C93   A    
C32   C56   A    
C68   C108  A    
C15   C47   A    
C94   I6    S    
C70   C78   A    
