data_mof_unit_44027.cif
_audit_creation_date              2012-12-11T17:25:01-0500
_audit_creation_method            fapswitch 2.2
_symmetry_space_group_name_H-M    P1
_symmetry_Int_Tables_number       1
_space_group_crystal_system       triclinic
_cell_length_a                    6.955476
_cell_length_b                    20.537538
_cell_length_c                    24.502021
_cell_angle_alpha                 90.059565
_cell_angle_beta                  90.45914
_cell_angle_gamma                 89.487837
_cell_volume                      3499.81948623

loop_
_atom_site_label
_atom_site_type_symbol
_atom_type_description
_atom_site_fract_x
_atom_site_fract_y
_atom_site_fract_z
_atom_type_partial_charge
O1    O     O_R   0.507280 0.423750 0.460310 -0.536039
O2    O     O_R   0.171030 0.555650 0.437630 -0.536761
O3    O     O_R   0.004080 0.576250 0.539690 -0.536258
C1    C     C_R   0.339073 0.575674 0.421788 0.724293
O4    O     O_R   0.177330 0.422980 0.453960 -0.537912
O5    O     O_R   0.010420 0.442640 0.556140 -0.535026
C2    C     C_R   0.346186 0.399123 0.443250 0.694471
O6    O     O_R   0.500930 0.557360 0.443860 -0.535030
O7    O     O_3   0.340310 0.506600 0.533500 -0.366677
V1    V     V_3+5 0.064140 0.498780 0.493780 1.424959
O8    O     O_R   0.680890 0.444350 0.562370 -0.537488
C3    C     C_R   0.850577 0.424401 0.578143 0.725582
O9    O     O_R   0.674590 0.577020 0.546040 -0.537686
C4    C     C_R   0.842724 0.600872 0.556760 0.694480
V2    V     V_3+5 0.564550 0.501220 0.506220 1.425316
O10   O     O_3   0.838250 0.493400 0.466500 -0.366781
C5    C     C_R   0.976061 0.838449 0.910903 -0.042735
C6    C     C_R   0.847430 0.661460 0.589052 -0.042856
C7    C     C_R   0.042209 0.722940 0.905230 -0.161236
C8    C     C_R   0.032445 0.780103 0.935629 -0.167253
C9    C     C_R   0.929911 0.839371 0.854895 -0.214755
C10   C     C_R   0.942050 0.781716 0.822520 0.086752
C11   C     C_R   0.999056 0.723241 0.849172 0.139133
C12   C     C_R   0.902469 0.780015 0.764836 0.057827
C13   C     C_R   0.920818 0.719883 0.735129 0.057827
C14   C     C_R   0.977420 0.663484 0.764134 -0.186684
C15   C     C_R   0.015127 0.665311 0.819815 -0.200896
C16   C     C_R   0.845738 0.836405 0.735838 -0.186707
C17   C     C_R   0.807940 0.834571 0.680162 -0.200895
C18   C     C_R   0.824106 0.776648 0.650800 0.139135
C19   C     C_R   0.881280 0.718185 0.677442 0.086756
C20   C     C_R   0.780878 0.776941 0.594747 -0.161234
C21   C     C_R   0.790786 0.719786 0.564340 -0.167178
C22   C     C_R   0.893637 0.660546 0.645056 -0.214710
H1    H     H_    0.058734 0.620634 0.840152 0.123623
H2    H     H_    0.933804 0.613978 0.662024 0.094199
H3    H     H_    0.752796 0.720938 0.521374 0.107664
H4    H     H_    0.764194 0.879237 0.659833 0.123624
H5    H     H_    0.086471 0.678338 0.925535 0.113878
H6    H     H_    0.070389 0.778944 0.978599 0.107591
H7    H     H_    0.890015 0.885957 0.837911 0.094152
H8    H     H_    0.994698 0.616653 0.744969 0.123849
H9    H     H_    0.828337 0.883226 0.755011 0.123846
H10   H     H_    0.736457 0.821531 0.574450 0.113889
H11   H     H_    0.619027 0.206075 0.793239 0.111634
C23   C     C_R   0.729929 0.269621 0.731331 -0.155661
H12   H     H_    0.587970 0.284346 0.717344 0.110991
C24   C     C_R   0.894271 0.294951 0.706415 0.136682
C25   C     C_R   0.076548 0.274937 0.725363 -0.156051
H13   H     H_    0.205170 0.293834 0.706692 0.111635
C26   C     C_R   0.094268 0.230288 0.768599 -0.155658
H14   H     H_    0.236227 0.215563 0.782587 0.110992
C27   C     C_R   0.929926 0.204958 0.793515 0.136680
C28   C     C_R   0.747648 0.224972 0.774568 -0.156053
C29   C     C_1   0.876330 0.341012 0.661420 -0.060670
C30   C     C_1   0.947869 0.158898 0.838511 -0.060681
C31   C     C_1   0.961076 0.120684 0.876283 -0.192098
C32   C     C_1   0.863134 0.379227 0.623649 -0.192145
H15   H     H_    0.698966 0.702408 0.296381 0.112371
C33   C     C_R   0.596709 0.767462 0.233367 -0.155983
H16   H     H_    0.740571 0.780301 0.220926 0.110861
C34   C     C_R   0.436083 0.795034 0.206672 0.136053
C35   C     C_R   0.251314 0.777286 0.223777 -0.155852
H17   H     H_    0.125253 0.797844 0.203800 0.112379
C36   C     C_R   0.227510 0.732795 0.266817 -0.155985
H18   H     H_    0.083648 0.719951 0.279255 0.110858
C37   C     C_R   0.388136 0.705220 0.293510 0.136061
C38   C     C_R   0.572905 0.722971 0.276407 -0.155859
C39   C     C_1   0.459832 0.841030 0.161756 -0.059758
C40   C     C_1   0.364389 0.659199 0.338408 -0.059752
C41   C     C_1   0.349017 0.620978 0.376147 -0.192723
C42   C     C_1   0.475213 0.879215 0.123992 -0.192616
C43   C     C_R   0.472858 0.161545 0.089126 -0.042699
C44   C     C_R   0.352127 0.338530 0.410956 -0.043007
C45   C     C_R   0.536301 0.276856 0.094993 -0.161305
C46   C     C_R   0.526902 0.219754 0.064537 -0.167044
C47   C     C_R   0.428800 0.160696 0.145065 -0.214695
C48   C     C_R   0.440835 0.218270 0.177514 0.086624
C49   C     C_R   0.495289 0.276615 0.150989 0.139147
C50   C     C_R   0.403637 0.220006 0.235157 0.057807
C51   C     C_R   0.421548 0.280056 0.264936 0.057802
C52   C     C_R   0.475468 0.336333 0.236049 -0.186687
C53   C     C_R   0.511012 0.334465 0.180415 -0.200835
C54   C     C_R   0.349813 0.163722 0.264049 -0.186660
C55   C     C_R   0.314328 0.165586 0.319687 -0.200846
C56   C     C_R   0.329971 0.223442 0.349109 0.139135
C57   C     C_R   0.384309 0.281795 0.322577 0.086683
C58   C     C_R   0.288994 0.223197 0.405106 -0.161281
C59   C     C_R   0.298267 0.280307 0.435555 -0.167065
C60   C     C_R   0.396169 0.339382 0.355015 -0.214769
H19   H     H_    0.552660 0.379041 0.160174 0.123632
H20   H     H_    0.434095 0.385881 0.338119 0.094394
H21   H     H_    0.261885 0.279209 0.478464 0.107689
H22   H     H_    0.272777 0.121002 0.339934 0.123646
H23   H     H_    0.578674 0.321352 0.074788 0.113888
H24   H     H_    0.563292 0.220850 0.021629 0.107740
H25   H     H_    0.390674 0.114210 0.161950 0.094535
H26   H     H_    0.492324 0.383089 0.255280 0.123862
H27   H     H_    0.333052 0.116959 0.244824 0.123886
H28   H     H_    0.246729 0.178693 0.425318 0.113879
O11   O     O_R   0.323320 0.942780 0.056240 -0.535094
O12   O     O_R   0.647300 0.077050 0.046060 -0.537814
O13   O     O_R   0.813840 0.057330 0.943840 -0.535037
C61   C     C_R   0.478542 0.100961 0.056816 0.694894
O14   O     O_R   0.653250 0.944380 0.062400 -0.536755
O15   O     O_R   0.819830 0.923720 0.960300 -0.536318
C62   C     C_R   0.485179 0.924450 0.078304 0.724222
O16   O     O_R   0.317330 0.076390 0.039790 -0.536339
O17   O     O_3   0.483830 0.993470 0.966560 -0.366791
V3    V     V_3+5 0.760140 0.001210 0.006210 1.425002
O18   O     O_R   0.149290 0.922840 0.953850 -0.538093
C63   C     C_R   0.981050 0.899043 0.943182 0.694103
O19   O     O_R   0.143340 0.055500 0.937510 -0.537598
C64   C     C_R   0.973658 0.075513 0.921790 0.725537
V4    V     V_3+5 0.259690 0.998600 0.993650 1.425590
O20   O     O_3   0.986130 0.006520 0.033440 -0.366671

loop_
_geom_bond_atom_site_label_1
_geom_bond_atom_site_label_2
_ccdc_geom_bond_type
O11   C62   A    
C24   C29   S    
C49   C53   A    
O14   V3    S    
C35   C36   A    
C13   C19   A    
C4    C6    S    
O2    C1    A    
C7    C8    A    
C1    O6    A    
C25   C26   A    
C51   C52   A    
C45   H23   S    
O15   C63   A    
C47   C48   A    
O14   C62   A    
C14   H8    S    
C14   C15   A    
C17   C18   A    
O13   V3    S    
C44   C59   A    
C16   C17   A    
O5    C3    A    
C18   C19   A    
C8    H6    S    
C48   C50   A    
V4    O20   S    
C5    C8    A    
C30   C31   T    
C33   C34   A    
O8    V2    S    
C43   C61   S    
O18   C63   A    
C36   C37   A    
C17   H4    S    
C47   H25   S    
C40   C41   T    
O1    V2    S    
C11   C15   A    
O7    V1    S    
C22   H2    S    
C50   C54   A    
C3    C32   S    
O9    C4    A    
C52   H26   S    
C2    C44   S    
C23   C24   A    
C26   H14   S    
O13   C64   A    
C12   C13   A    
O4    C2    A    
C56   C57   A    
C15   H1    S    
C13   C14   A    
C55   C56   A    
C21   H3    S    
C37   C38   A    
C34   C39   S    
C33   H16   S    
C26   C27   A    
C39   C42   T    
C7    C11   A    
C45   C46   A    
C34   C35   A    
H15   C38   S    
C55   H22   S    
C60   H20   S    
C42   C62   S    
C23   C28   A    
C20   H10   S    
C19   C22   A    
C58   H28   S    
C54   C55   A    
O12   C61   A    
C6    C22   A    
C51   C57   A    
O3    C4    A    
C7    H5    S    
C9    H7    S    
C24   C25   A    
H11   C28   S    
C52   C53   A    
O6    V2    S    
O9    V2    S    
O11   V4    S    
C43   C46   A    
C10   C12   A    
O12   V3    S    
O2    V1    S    
C5    C63   S    
V3    O20   S    
C61   O16   A    
O16   V4    S    
O19   C64   A    
O15   V3    S    
C27   C30   S    
C23   H12   S    
O1    C2    A    
C54   H27   S    
C12   C16   A    
C50   C51   A    
O5    V1    S    
O8    C3    A    
C27   C28   A    
C31   C64   S    
C53   H19   S    
C16   H9    S    
C37   C40   S    
C20   C21   A    
C44   C60   A    
O7    V2    S    
O4    V1    S    
O3    V1    S    
V1    O10   S    
O17   V3    S    
C46   H24   S    
C18   C20   A    
C48   C49   A    
C29   C32   T    
C56   C58   A    
C36   H18   S    
C59   H21   S    
C6    C21   A    
C5    C9    A    
O17   V4    S    
C35   H17   S    
C58   C59   A    
C33   C38   A    
C25   H13   S    
C57   C60   A    
C43   C47   A    
C10   C11   A    
O18   V4    S    
C9    C10   A    
C45   C49   A    
C1    C41   S    
V2    O10   S    
O19   V4    S    
