data_mof_unit_10349.cif
_audit_creation_date              2012-12-11T14:33:46-0500
_audit_creation_method            fapswitch 2.2
_symmetry_space_group_name_H-M    P1
_symmetry_Int_Tables_number       1
_space_group_crystal_system       triclinic
_cell_length_a                    13.841282
_cell_length_b                    13.974779
_cell_length_c                    27.344989
_cell_angle_alpha                 89.943363
_cell_angle_beta                  90.110063
_cell_angle_gamma                 119.631736
_cell_volume                      4597.57188518

loop_
_atom_site_label
_atom_site_type_symbol
_atom_type_description
_atom_site_fract_x
_atom_site_fract_y
_atom_site_fract_z
_atom_type_partial_charge
C1    C     C_R   0.233922 0.787193 0.568782 0.541015
C2    C     C_1   0.706389 0.862585 0.860287 -0.040739
C3    C     C_2   0.740186 0.606052 0.315955 0.202763
C4    C     C_2   0.424281 0.118580 0.310101 0.189569
C5    C     C_2   0.862401 0.277707 0.317808 0.203334
C6    C     C_1   0.113315 0.880345 0.852679 -0.038196
C7    C     C_1   0.115246 0.231481 0.852360 -0.042754
C8    C     C_1   0.628261 0.814082 0.659077 -0.068738
C9    C     C_1   0.177212 0.819065 0.656361 -0.068616
C10   C     C_1   0.179058 0.358885 0.656426 -0.069020
C11   C     C_1   0.600885 0.795875 0.616781 -0.011705
C12   C     C_1   0.199238 0.806262 0.615206 -0.011251
C13   C     C_1   0.193130 0.393446 0.615261 -0.011795
C14   C     C_R   0.064709 0.150135 0.095884 0.573694
C15   C     C_R   0.212593 0.446528 0.568809 0.541455
C16   C     C_R   0.777562 0.884076 0.088441 0.550292
C17   C     C_R   0.116798 0.893552 0.087999 0.564495
C18   C     C_R   0.069349 0.160460 0.943227 0.532838
C19   C     C_R   0.779663 0.887126 0.950762 0.548586
C20   C     C_R   0.090679 0.929670 0.943355 0.530337
C21   C     C_R   0.618874 0.895050 0.361421 -0.129927
C22   C     C_R   0.100720 0.729641 0.361668 -0.101667
C23   C     C_R   0.265548 0.363560 0.362333 -0.119929
C24   C     C_R   0.646227 0.910633 0.312040 0.015081
C25   C     C_R   0.085395 0.741304 0.312074 0.023902
C26   C     C_R   0.552753 0.765221 0.569042 0.540188
C27   C     C_R   0.242428 0.314523 0.316074 0.021383
C28   C     C_R   0.683054 0.929257 0.210807 0.023455
C29   C     C_R   0.065292 0.757600 0.210717 0.020450
C30   C     C_R   0.201598 0.231363 0.220119 0.020071
C31   C     C_R   0.232711 0.788035 0.431623 0.544874
C32   C     C_R   0.211689 0.444633 0.431410 0.546207
C33   C     C_R   0.555300 0.767041 0.431801 0.545738
C34   C     C_R   0.654014 0.999849 0.234791 -0.141848
C35   C     C_R   0.985562 0.665192 0.236141 -0.134210
C36   C     C_R   0.304606 0.264380 0.242381 -0.122141
C37   C     C_3   0.662774 0.736482 0.790258 -0.228819
C38   C     C_R   0.634519 0.989777 0.285056 -0.138265
C39   C     C_R   0.997044 0.655975 0.286360 -0.095431
C40   C     C_R   0.325002 0.306045 0.289948 -0.096428
C41   C     C_R   0.705100 0.939573 0.160501 -0.147649
C42   C     C_R   0.054517 0.768949 0.160457 -0.131658
C43   C     C_R   0.183408 0.197841 0.171107 -0.125820
C44   C     C_R   0.729918 0.865093 0.137349 -0.001603
C45   C     C_R   0.136843 0.861348 0.135907 -0.002130
C46   C     C_R   0.082627 0.172849 0.148330 -0.007937
C47   C     C_R   0.660215 0.745307 0.364668 -0.101815
C48   C     C_3   0.242722 0.953191 0.783287 -0.229107
C49   C     C_R   0.264201 0.911663 0.362331 -0.101344
C50   C     C_R   0.076894 0.331494 0.367591 -0.101567
C51   C     C_R   0.689188 0.759398 0.315348 0.023508
C52   C     C_R   0.252728 0.924900 0.312594 0.024396
C53   C     C_R   0.053422 0.288855 0.320084 0.021634
C54   C     C_R   0.677582 0.840282 0.288540 0.042286
C55   C     C_R   0.164109 0.836817 0.287095 0.037014
C56   C     C_R   0.136968 0.278724 0.294529 0.039040
C57   C     C_R   0.718559 0.687941 0.290930 0.017942
C58   C     C_R   0.333101 0.018747 0.286681 0.022186
C59   C     C_3   0.056596 0.311912 0.785928 -0.227927
C60   C     C_R   0.950240 0.258446 0.296803 0.018276
C61   C     C_R   0.726724 0.692705 0.240146 -0.153587
C62   C     C_R   0.328244 0.018556 0.235805 -0.154300
C63   C     C_R   0.931234 0.214644 0.249604 -0.143346
C64   C     C_R   0.713912 0.771495 0.213888 -0.001363
C65   C     C_R   0.240508 0.932168 0.210837 0.002207
C66   C     C_R   0.013787 0.205603 0.224257 0.007103
C67   C     C_3   0.560608 0.848951 0.737159 -0.225362
C68   C     C_3   0.143008 0.732662 0.738456 -0.226730
C69   C     C_3   0.273885 0.392474 0.736684 -0.226062
C70   C     C_3   0.642546 0.723291 0.734299 -0.219145
C71   C     C_R   0.692276 0.847568 0.237820 0.060993
C72   C     C_R   0.156395 0.842310 0.236269 0.058807
C73   C     C_R   0.116933 0.237145 0.246564 0.057669
C74   C     C_R   0.726931 0.777479 0.163819 -0.117425
C75   C     C_R   0.232987 0.937859 0.160664 -0.125984
C76   C     C_R   0.996882 0.172243 0.175589 -0.123239
C77   C     C_R   0.618885 0.807761 0.386745 -0.018653
C78   C     C_R   0.193862 0.812101 0.385978 -0.022997
C79   C     C_R   0.183901 0.375189 0.387515 -0.020944
C80   C     C_3   0.765731 0.927532 0.723194 -0.221346
C81   C     C_3   0.259608 0.938314 0.728481 -0.220314
C82   C     C_3   0.053139 0.844368 0.714287 -0.218698
C83   C     C_3   0.126028 0.201636 0.712892 -0.218748
C84   C     C_3   0.786298 0.939502 0.779174 -0.229525
C85   C     C_3   0.036222 0.861440 0.768924 -0.231193
C86   C     C_3   0.107319 0.167168 0.767362 -0.233238
C87   C     C_1   0.734124 0.873057 0.902577 0.004326
C88   C     C_1   0.102693 0.901370 0.894330 0.009724
C89   C     C_1   0.096197 0.200072 0.894076 0.002425
C90   C     C_3   0.649449 0.828555 0.712021 0.056042
C91   C     C_3   0.158217 0.833203 0.708027 0.055485
C92   C     C_3   0.073793 0.346625 0.731365 -0.219357
C93   C     C_3   0.163509 0.325358 0.707981 0.055286
C94   C     C_3   0.578497 0.859830 0.793672 -0.065544
C95   C     C_3   0.127050 0.748640 0.793784 -0.064577
C96   C     C_3   0.257143 0.360070 0.791883 -0.064423
C97   C     C_3   0.683315 0.850939 0.807371 0.043349
C98   C     C_3   0.128141 0.859998 0.801153 0.041974
C99   C     C_3   0.134830 0.266906 0.800861 0.041640
C100  C     C_2   0.585337 0.965015 0.811975 0.206518
C101  C     C_2   0.022665 0.651204 0.813362 0.212105
C102  C     C_2   0.341664 0.328452 0.808763 0.213641
Cr1   Cr    Cr6+3 0.164410 0.584450 0.499910 1.049616
Cr2   Cr    Cr6+3 0.415550 0.579960 0.499910 1.042173
Cr3   Cr    Cr6+3 0.420040 0.835590 0.499910 1.036017
Cr4   Cr    Cr6+3 0.155170 0.075460 0.019960 1.045131
Cr5   Cr    Cr6+3 0.924540 0.079710 0.019960 1.027492
Cr6   Cr    Cr6+3 0.920290 0.844830 0.019960 1.032092
H1    H     H_    0.475987 0.779238 0.729119 0.103073
H2    H     H_    0.706098 0.006357 0.139887 0.108149
H3    H     H_    0.980727 0.709271 0.141086 0.116332
H4    H     H_    0.248904 0.195719 0.150281 0.122685
H5    H     H_    0.587899 0.944355 0.378729 0.139781
H6    H     H_    0.045302 0.653168 0.380157 0.168154
H7    H     H_    0.348209 0.396630 0.377734 0.143104
H8    H     H_    0.645204 0.061906 0.214632 0.097930
H9    H     H_    0.915712 0.599241 0.217072 0.101501
H10   H     H_    0.370474 0.260946 0.222525 0.097764
H11   H     H_    0.608542 0.042665 0.302743 0.101389
H12   H     H_    0.217460 0.722553 0.734144 0.105327
H13   H     H_    0.937294 0.581786 0.305060 0.175239
H14   H     H_    0.406348 0.334088 0.305916 0.142638
H15   H     H_    0.744250 0.718169 0.146070 0.133854
H16   H     H_    0.297706 0.008606 0.141554 0.128468
H17   H     H_    0.918312 0.150564 0.158063 0.119718
H18   H     H_    0.746364 0.636484 0.220997 0.087087
H19   H     H_    0.391001 0.088522 0.215560 0.081460
H20   H     H_    0.853952 0.194117 0.231225 0.097272
H21   H     H_    0.564058 0.924002 0.721240 0.111271
H22   H     H_    0.071025 0.656307 0.723739 0.110944
H23   H     H_    0.303092 0.482091 0.733179 0.103770
H24   H     H_    0.339396 0.378710 0.720011 0.113213
H25   H     H_    0.658101 0.678125 0.385025 0.196570
H26   H     H_    0.335540 0.973668 0.381792 0.199192
H27   H     H_    0.013348 0.334624 0.389145 0.197211
H28   H     H_    0.831203 0.915754 0.705211 0.114043
H29   H     H_    0.061311 0.915382 0.692536 0.116179
H30   H     H_    0.047614 0.151451 0.692078 0.116387
H31   H     H_    0.772105 0.004563 0.708265 0.113361
H32   H     H_    0.978783 0.769096 0.700401 0.114895
H33   H     H_    0.190137 0.184583 0.697193 0.112869
H34   H     H_    0.504852 0.789578 0.811180 0.149318
H35   H     H_    0.807381 0.023731 0.790983 0.102287
H36   H     H_    0.952312 0.796984 0.780958 0.100997
H37   H     H_    0.159452 0.130546 0.777456 0.098206
H38   H     H_    0.859394 0.929773 0.787968 0.104232
H39   H     H_    0.038346 0.941170 0.773273 0.103935
H40   H     H_    0.019309 0.102820 0.772666 0.105990
H41   H     H_    0.559309 0.650841 0.726859 0.120868
H42   H     H_    0.336637 0.932775 0.723963 0.124016
H43   H     H_    0.099259 0.435487 0.728440 0.120955
H44   H     H_    0.705605 0.706875 0.716946 0.120952
H45   H     H_    0.198969 0.753179 0.814253 0.161613
H46   H     H_    0.271282 0.011830 0.707697 0.119216
H47   H     H_    0.993668 0.299470 0.711358 0.122389
H48   H     H_    0.589566 0.669979 0.809579 0.145247
H49   H     H_    0.310540 0.952629 0.805018 0.168013
H50   H     H_    0.073175 0.383917 0.809105 0.153398
H51   H     H_    0.648176 0.044110 0.797860 0.110110
H52   H     H_    0.942566 0.627277 0.796837 0.107637
H53   H     H_    0.347170 0.261952 0.790972 0.103687
H54   H     H_    0.722479 0.530758 0.297087 0.102974
H55   H     H_    0.501910 0.167042 0.290614 0.091547
H56   H     H_    0.271153 0.433724 0.813301 0.153597
H57   H     H_    0.776113 0.222548 0.308457 0.102205
H58   H     H_    0.735663 0.726532 0.799592 0.123067
H59   H     H_    0.249874 0.035020 0.789084 0.110177
H60   H     H_    0.968317 0.247877 0.791929 0.120295
O1    O     O_R   0.137150 0.468200 0.553200 -0.508194
O2    O     O_R   0.140110 0.470540 0.446010 -0.508649
O3    O     O_R   0.529460 0.669570 0.446010 -0.516056
O4    O     O_R   0.330430 0.859890 0.446010 -0.518796
O5    O     O_R   0.176710 0.690910 0.450560 -0.494756
O6    O     O_R   0.309090 0.485800 0.450560 -0.498504
O7    O     O_R   0.514200 0.823290 0.450560 -0.501293
O8    O     O_3   0.333333 0.666667 0.499990 -0.274441
O9    O     O_R   0.176750 0.985260 0.074180 -0.529470
O10   O     O_R   0.014740 0.191490 0.074180 -0.488464
O11   O     O_R   0.808510 0.823250 0.074180 -0.515480
O12   O     O_R   0.531800 0.668950 0.553200 -0.505268
O13   O     O_R   0.146100 0.172630 0.068980 -0.476141
O14   O     O_R   0.827370 0.973470 0.068980 -0.517965
O15   O     O_R   0.026530 0.853900 0.068980 -0.488600
O16   O     O_3   1.000000 0.000000 0.020040 -0.299907
O17   O     O_R   0.148270 0.170520 0.969620 -0.475572
O18   O     O_R   0.829480 0.977750 0.969620 -0.518567
O19   O     O_R   0.022250 0.851730 0.969620 -0.469660
O20   O     O_2   0.519521 0.961932 0.842451 -0.506453
O21   O     O_2   0.027615 0.597705 0.847621 -0.491675
O22   O     O_2   0.405266 0.378138 0.842267 -0.491515
O23   O     O_R   0.331050 0.862850 0.553200 -0.504807
O24   O     O_2   0.784405 0.624351 0.356131 -0.510393
O25   O     O_2   0.411780 0.152036 0.349479 -0.518444
O26   O     O_2   0.885118 0.359058 0.342369 -0.523423
O27   O     O_R   0.179100 0.982980 0.967000 -0.486294
O28   O     O_R   0.017020 0.196120 0.967000 -0.470446
O29   O     O_R   0.803880 0.820900 0.967000 -0.505228
O30   O     O_R   0.173970 0.688730 0.549930 -0.498381
O31   O     O_R   0.311270 0.485240 0.549930 -0.498475
O32   O     O_R   0.514760 0.826030 0.549930 -0.498132

loop_
_geom_bond_atom_site_label_1
_geom_bond_atom_site_label_2
_ccdc_geom_bond_type
C58   C62   A    
C49   H26   S    
Cr3   O4    S    
C96   C102  S    
C29   C42   A    
C59   C99   S    
Cr3   O23   S    
Cr6   O19   S    
C1    O30   A    
C80   C84   S    
C69   C96   S    
C50   C79   A    
C9    C91   S    
C37   C97   S    
C95   C98   S    
C14   C46   S    
C70   C90   S    
C80   H28   S    
C49   C78   A    
C70   H41   S    
Cr5   O18   S    
C7    C99   S    
C60   C63   A    
C69   C93   S    
C84   C97   S    
C6    C98   S    
C100  O20   D    
C17   C45   S    
C82   H29   S    
C19   C87   S    
C50   H27   S    
C69   H24   S    
C19   O18   A    
C31   O5    A    
C62   H19   S    
C59   H50   S    
C16   O14   A    
C31   O4    A    
C24   C54   A    
C81   H42   S    
C83   C93   S    
C96   C99   S    
C28   C41   A    
Cr1   O5    S    
C68   C91   S    
C6    C88   T    
C48   C81   S    
C15   O1    A    
C64   C71   A    
Cr6   O29   S    
Cr1   O8    S    
C82   H32   S    
C85   C98   S    
C3    H54   S    
C102  O22   D    
C67   H1    S    
Cr3   O32   S    
C54   C71   A    
C2    C97   S    
C22   C25   A    
C67   C94   S    
C24   C38   A    
C61   H18   S    
C51   C57   A    
C5    H57   S    
C26   O32   A    
C16   C44   S    
C20   O27   A    
C63   H20   S    
Cr6   O15   S    
C16   O11   A    
C29   C72   A    
C74   H15   S    
C63   C66   A    
C28   C34   A    
C37   C70   S    
C47   H25   S    
C76   H17   S    
C37   H48   S    
C67   H21   S    
C1    C12   S    
C85   H36   S    
C46   C76   A    
Cr5   O28   S    
C9    C12   T    
C53   C60   A    
C4    O25   D    
C19   O29   A    
C50   C53   A    
Cr6   O16   S    
Cr5   O14   S    
C18   O28   A    
C75   H16   S    
C94   H34   S    
C25   C55   A    
C36   C40   A    
C70   H44   S    
C101  H52   S    
C21   H5    S    
C83   H33   S    
C30   C73   A    
C27   C56   A    
Cr2   O6    S    
C11   C26   S    
C66   C73   A    
C32   O6    A    
Cr3   O8    S    
C67   C90   S    
C82   C85   S    
C81   H46   S    
C96   H56   S    
Cr6   O11   S    
C86   H40   S    
C95   H45   S    
C42   C45   A    
C61   C64   A    
C35   C39   A    
C42   H3    S    
Cr4   O13   S    
Cr1   O2    S    
C15   O31   A    
C17   O15   A    
C55   C72   A    
C94   C100  S    
C27   C40   A    
C69   H23   S    
C49   C52   A    
C10   C93   S    
C92   H43   S    
C4    H55   S    
C2    C87   T    
C68   H22   S    
C86   C99   S    
Cr2   O8    S    
C22   C78   A    
C68   C95   S    
C14   O10   A    
C52   C58   A    
Cr2   O3    S    
C38   H11   S    
C1    O23   A    
C59   H60   S    
C23   C27   A    
C41   H2    S    
C13   C15   S    
Cr5   O10   S    
C41   C44   A    
C30   C43   A    
C35   H9    S    
C28   C71   A    
C8    C90   S    
C43   H4    S    
C47   C77   A    
C4    C58   S    
C65   C72   A    
C86   H37   S    
C3    C57   S    
C14   O13   A    
C48   C98   S    
C31   C78   S    
C84   H35   S    
C53   C56   A    
C17   O9    A    
C7    C89   T    
C32   O2    A    
C64   C74   A    
C56   C73   A    
Cr4   O9    S    
C62   C65   A    
C34   C38   A    
C18   C89   S    
C85   H39   S    
Cr4   O17   S    
C44   C74   A    
C10   C13   T    
C65   C75   A    
C47   C51   A    
C52   C55   A    
C57   C61   A    
C37   H58   S    
C26   O12   A    
C80   H31   S    
C40   H14   S    
C48   H49   S    
C29   C35   A    
C18   O17   A    
C101  O21   D    
C94   C97   S    
C30   C36   A    
Cr5   O16   S    
C45   C75   A    
C51   C54   A    
Cr4   O27   S    
C3    O24   D    
C68   H12   S    
C20   O19   A    
C100  H51   S    
C33   C77   S    
Cr2   O12   S    
C48   H59   S    
C8    C11   T    
C20   C88   S    
C92   C93   S    
Cr2   O31   S    
C92   H47   S    
C59   C92   S    
C5    C60   S    
C80   C90   S    
C33   O7    A    
C43   C46   A    
C82   C91   S    
C23   H7    S    
C81   C91   S    
C22   H6    S    
C83   C86   S    
Cr3   O7    S    
C21   C24   A    
C21   C77   A    
Cr1   O1    S    
C102  H53   S    
C39   H13   S    
C5    O26   D    
C84   H38   S    
C23   C79   A    
Cr4   O16   S    
C34   H8    S    
Cr1   O30   S    
C83   H30   S    
C25   C39   A    
C66   C76   A    
C95   C101  S    
C36   H10   S    
C32   C79   S    
C33   O3    A    
