data_mof_unit_31121.cif
_audit_creation_date              2012-12-10T18:04:04-0500
_audit_creation_method            fapswitch 2.2
_symmetry_space_group_name_H-M    P1
_symmetry_Int_Tables_number       1
_space_group_crystal_system       triclinic
_cell_length_a                    10.885521
_cell_length_b                    9.494452
_cell_length_c                    10.818683
_cell_angle_alpha                 90.006424
_cell_angle_beta                  90.22445
_cell_angle_gamma                 89.546327
_cell_volume                      1118.08950415

loop_
_atom_site_label
_atom_site_type_symbol
_atom_type_description
_atom_site_fract_x
_atom_site_fract_y
_atom_site_fract_z
_atom_type_partial_charge
C1    C     C_R   0.262125 0.500724 0.502214 0.900893
C2    C     C_R   0.737958 0.499283 0.498720 0.906502
C3    C     C_R   0.428220 0.075125 0.418588 -0.016606
C4    C     C_R   0.571633 0.073867 0.581525 -0.033353
C5    C     C_R   0.428376 0.926123 0.418463 -0.031016
C6    C     C_R   0.571790 0.924868 0.581403 -0.015400
C7    C     C_R   0.497362 0.499993 0.262116 0.781622
C8    C     C_R   0.497206 0.499979 0.737818 0.782086
C9    C     C_R   0.477762 0.626047 0.063403 0.128472
C10   C     C_R   0.477589 0.626003 0.936239 0.124771
C11   C     C_R   0.483947 0.499629 0.129060 -0.090310
C12   C     C_R   0.483560 0.499585 0.870680 -0.092421
C13   C     C_R   0.471059 0.372126 0.064254 -0.227276
C14   C     C_R   0.470804 0.372107 0.935392 -0.232826
C15   C     C_3   0.557181 0.753179 0.929632 -0.478832
C16   C     C_3   0.557476 0.753189 0.070024 -0.467364
C17   C     C_R   0.065262 0.380832 0.543450 0.341643
C18   C     C_R   0.937705 0.375958 0.533191 0.340847
C19   C     C_R   0.871905 0.498040 0.497242 -0.386469
C20   C     C_R   0.128327 0.502523 0.505832 -0.384816
C21   C     C_R   0.935057 0.620321 0.461080 0.342958
C22   C     C_R   0.062565 0.624949 0.471021 0.339764
Cu1   Cu    Cu3+1 0.500000 0.640660 0.500000 0.960345
Cu2   Cu    Cu3+1 0.500000 0.359340 0.500000 0.958350
H1    H     H_    0.467621 0.272192 0.112361 0.160739
H2    H     H_    0.467196 0.272174 0.887247 0.163107
H3    H     H_    0.648855 0.730197 0.888945 0.193340
H4    H     H_    0.508599 0.845414 0.110513 0.193162
H5    H     H_    0.507902 0.845295 0.889072 0.193257
H6    H     H_    0.649272 0.729986 0.110636 0.187297
H7    H     H_    0.370922 0.870303 0.353340 0.148542
H8    H     H_    0.629443 0.868065 0.646374 0.125865
N1    N     N_R   0.500000 0.852070 0.500000 -0.158259
N2    N     N_R   0.500000 0.147940 0.500000 -0.158645
O1    O     O_R   0.319640 0.618740 0.499990 -0.553873
O2    O     O_R   0.680360 0.618740 0.500010 -0.542470
O3    O     O_R   0.319620 0.381170 0.499990 -0.544292
O4    O     O_R   0.680380 0.381170 0.500010 -0.552362
O5    O     O_R   0.499990 0.618810 0.319660 -0.583719
O6    O     O_R   0.500010 0.618810 0.680340 -0.596220
O7    O     O_R   0.499960 0.381240 0.319650 -0.602669
O8    O     O_R   0.500040 0.381240 0.680350 -0.591159
O9    O     O_3   0.127785 0.263211 0.586909 -0.550995
C23   C     C_3   0.142141 0.276307 0.715993 -0.252605
H9    H     H_    0.196721 0.371018 0.740649 0.133724
H10   H     H_    0.193221 0.182681 0.750664 0.169095
H11   H     H_    0.051581 0.279374 0.763378 0.168114
O10   O     O_3   0.877497 0.254693 0.568887 -0.557081
C24   C     C_3   0.882001 0.157042 0.470461 -0.218088
H12   H     H_    0.836322 0.199851 0.386070 0.145472
H13   H     H_    0.831896 0.060920 0.498235 0.185696
H14   H     H_    0.977864 0.124511 0.448788 0.179305
O11   O     O_3   0.872578 0.738886 0.419662 -0.549274
C25   C     C_3   0.862889 0.731615 0.289860 -0.263277
H15   H     H_    0.811678 0.825930 0.256913 0.168828
H16   H     H_    0.810812 0.636917 0.260136 0.129271
H17   H     H_    0.954945 0.732564 0.245506 0.173393
O12   O     O_3   0.122661 0.746702 0.436400 -0.558177
C26   C     C_3   0.119486 0.842446 0.536296 -0.220039
H18   H     H_    0.169757 0.938817 0.509476 0.186189
H19   H     H_    0.165763 0.797790 0.619636 0.144516
H20   H     H_    0.023931 0.875003 0.559289 0.178568
H21   H     H_    0.370591 0.131922 0.353591 0.123633
H22   H     H_    0.629114 0.129667 0.646629 0.150529

loop_
_geom_bond_atom_site_label_1
_geom_bond_atom_site_label_2
_ccdc_geom_bond_type
C16   H4    S    
Cu1   N1    S    
Cu2   O4    S    
O9    C23   S    
C17   O9    S    
C25   H16   S    
C22   O12   S    
C3    H21   S    
C23   H11   S    
C11   C13   A    
C9    C10   A    
C2    O4    A    
C15   H3    S    
C6    N1    A    
C1    O3    A    
C8    C12   S    
C24   H14   S    
C18   O10   S    
Cu2   O3    S    
O12   C26   S    
C26   H18   S    
C21   C22   A    
C14   H2    S    
C21   O11   S    
Cu2   O7    S    
C9    C11   A    
C13   H1    S    
C10   C12   A    
Cu1   O5    S    
C4    C6    A    
O10   C24   S    
C19   C21   A    
C9    C16   S    
C8    O8    A    
C15   H5    S    
Cu1   O1    S    
C10   C15   S    
C7    O7    A    
C6    H8    S    
C4    N2    A    
C26   H19   S    
C5    H7    S    
Cu1   Cu2   S    
C16   H6    S    
Cu1   O6    S    
C26   H20   S    
C12   C14   A    
C17   C20   A    
Cu2   O8    S    
C23   H9    S    
C1    O1    A    
C17   C18   A    
Cu1   O2    S    
C7    C11   S    
C2    O2    A    
C24   H12   S    
C4    H22   S    
C25   H15   S    
C18   C19   A    
C1    C20   S    
C7    O5    A    
C8    O6    A    
C3    N2    A    
C3    C5    A    
C2    C19   S    
C13   C14   A    
C23   H10   S    
Cu2   N2    S    
C15   C16   S    
O11   C25   S    
C20   C22   A    
C24   H13   S    
C25   H17   S    
C5    N1    A    
