data_mof_unit_50280.cif
_audit_creation_date              2012-12-11T16:41:14-0500
_audit_creation_method            fapswitch 2.2
_symmetry_space_group_name_H-M    P1
_symmetry_Int_Tables_number       1
_space_group_crystal_system       triclinic
_cell_length_a                    6.936226
_cell_length_b                    23.120276
_cell_length_c                    23.634542
_cell_angle_alpha                 112.543915
_cell_angle_beta                  90.157668
_cell_angle_gamma                 90.576757
_cell_volume                      3500.31900237

loop_
_atom_site_label
_atom_site_type_symbol
_atom_type_description
_atom_site_fract_x
_atom_site_fract_y
_atom_site_fract_z
_atom_type_partial_charge
O1    O     O_R   0.505740 0.453370 0.547760 -0.540484
O2    O     O_R   0.169520 0.427650 0.423350 -0.542236
O3    O     O_R   0.005620 0.546630 0.452240 -0.539578
C1    C     C_R   0.336813 0.408806 0.399288 0.707028
O4    O     O_R   0.175610 0.445960 0.545510 -0.542373
O5    O     O_R   0.011740 0.565080 0.575280 -0.536960
C2    C     C_R   0.344381 0.433902 0.562419 0.687076
O6    O     O_R   0.499610 0.434920 0.424720 -0.536092
O7    O     O_3   0.341310 0.539060 0.509620 -0.366505
V1    V     V_3+5 0.063960 0.492750 0.498220 1.400752
O8    O     O_R   0.682400 0.572350 0.576650 -0.543545
C3    C     C_R   0.850466 0.590604 0.600985 0.700100
O9    O     O_R   0.676320 0.554040 0.454490 -0.538381
C4    C     C_R   0.845455 0.565810 0.437376 0.718610
V2    V     V_3+5 0.564740 0.507250 0.501780 1.406780
O10   O     O_3   0.837250 0.460940 0.490380 -0.369988
C5    C     C_R   0.781900 0.894630 0.132750 -0.161977
H1    H     H_    0.658096 0.921752 0.130249 0.121461
C6    C     C_R   0.770188 0.859125 0.169145 -0.145410
H2    H     H_    0.637637 0.859244 0.193320 0.112988
C7    C     C_R   0.926724 0.822968 0.173503 0.093060
C8    C     C_R   0.096006 0.823462 0.141099 -0.141053
H3    H     H_    0.219230 0.796305 0.144029 0.117210
C9    C     C_R   0.109114 0.859867 0.105510 -0.166842
H4    H     H_    0.241988 0.859548 0.081439 0.124349
C10   C     C_R   0.951771 0.895684 0.100626 -0.053948
C11   C     C_R   0.964455 0.721440 0.187685 -0.158960
H5    H     H_    0.011408 0.699418 0.140635 0.118801
C12   C     C_R   0.951568 0.685501 0.223659 -0.043591
H6    H     H_    0.986629 0.636287 0.203253 0.154492
C13   C     C_R   0.893308 0.712660 0.285182 0.129592
C14   C     C_R   0.839626 0.775973 0.308941 -0.143512
H7    H     H_    0.793023 0.798140 0.356010 0.111175
C15   C     C_R   0.848527 0.811588 0.272541 -0.145572
H8    H     H_    0.808240 0.860408 0.292222 0.114420
C16   C     C_R   0.913361 0.784881 0.211771 0.069980
C17   C     C_R   0.718015 0.676500 0.358527 -0.133266
H9    H     H_    0.597234 0.705054 0.356771 0.177532
C18   C     C_R   0.703528 0.640734 0.394668 -0.133232
H10   H     H_    0.571866 0.642561 0.419796 0.143850
C19   C     C_R   0.858108 0.603773 0.398892 -0.129915
C20   C     C_R   0.026941 0.603310 0.365893 -0.190825
H11   H     H_    0.148811 0.575500 0.368577 0.158251
C21   C     C_R   0.041048 0.638077 0.328763 0.392042
C22   C     C_R   0.884936 0.675040 0.324324 -0.005830
C23   C     C_R   0.849788 0.645670 0.660387 -0.069292
C24   C     C_R   0.959518 0.854250 0.839664 -0.070177
C25   C     C_R   0.144231 0.786420 0.751444 -0.200263
C26   C     C_R   0.128938 0.840911 0.804178 -0.163764
C27   C     C_R   0.803096 0.811996 0.820243 -0.239663
C28   C     C_R   0.818495 0.756507 0.767308 0.160079
C29   C     C_R   0.990808 0.743415 0.732742 0.160328
C30   C     C_R   0.006210 0.687925 0.679810 -0.240294
C31   C     C_R   0.680356 0.659016 0.695868 -0.162427
C32   C     C_R   0.665065 0.713506 0.748603 -0.200140
H12   H     H_    0.136896 0.678710 0.652872 0.123463
H13   H     H_    0.557216 0.627368 0.682405 0.129293
H14   H     H_    0.277033 0.777699 0.725607 0.122473
H15   H     H_    0.532258 0.722229 0.774437 0.123186
H16   H     H_    0.252065 0.872565 0.817636 0.128483
H17   H     H_    0.672413 0.821211 0.847182 0.123744
C33   C     C_R   0.337167 0.352671 0.340336 -0.069454
C34   C     C_R   0.472201 0.147495 0.159544 -0.070344
C35   C     C_R   0.649297 0.218653 0.249486 -0.198512
C36   C     C_R   0.640934 0.164369 0.195931 -0.166955
C37   C     C_R   0.310489 0.186524 0.178527 -0.233618
C38   C     C_R   0.319210 0.241932 0.232053 0.157673
C39   C     C_R   0.490197 0.258266 0.267792 0.159704
C40   C     C_R   0.498902 0.313658 0.321331 -0.233049
C41   C     C_R   0.168459 0.335819 0.303937 -0.159307
C42   C     C_R   0.160116 0.281550 0.250362 -0.195925
H18   H     H_    0.629660 0.325526 0.348828 0.122936
H19   H     H_    0.041521 0.364768 0.316935 0.131068
H20   H     H_    0.780906 0.229776 0.276501 0.121794
H21   H     H_    0.028515 0.270433 0.223343 0.124788
H22   H     H_    0.767869 0.135417 0.182946 0.128071
H23   H     H_    0.179722 0.174645 0.151034 0.124196
C43   C     C_R   0.287596 0.106407 0.867547 -0.168833
H24   H     H_    0.161661 0.079081 0.869305 0.126574
C44   C     C_R   0.280019 0.142105 0.831429 -0.194016
H25   H     H_    0.149129 0.141096 0.805941 0.117662
C45   C     C_R   0.439443 0.178140 0.827234 0.073013
C46   C     C_R   0.609554 0.178620 0.861118 0.169577
C47   C     C_R   0.616383 0.141153 0.896204 -0.197684
H26   H     H_    0.746108 0.141333 0.921923 0.123500
C48   C     C_R   0.456327 0.104980 0.899937 -0.077425
C49   C     C_R   0.542176 0.201703 0.736236 -0.147372
H27   H     H_    0.646869 0.164582 0.724794 0.105343
C50   C     C_R   0.526920 0.236412 0.699195 -0.152420
H28   H     H_    0.621392 0.225421 0.660153 0.110411
C51   C     C_R   0.389293 0.284011 0.711767 0.080618
C52   C     C_R   0.265783 0.295403 0.761985 -0.152198
H29   H     H_    0.158966 0.331867 0.773244 0.114565
C53   C     C_R   0.282213 0.260932 0.799267 -0.171226
H30   H     H_    0.187254 0.271158 0.838106 0.122775
C54   C     C_R   0.422666 0.214470 0.787339 0.092338
C55   C     C_R   0.196787 0.339185 0.656926 -0.142197
H31   H     H_    0.064294 0.324289 0.671676 0.100611
C56   C     C_R   0.185848 0.375075 0.620795 -0.160140
H32   H     H_    0.045093 0.387414 0.609292 0.117424
C57   C     C_R   0.354435 0.394909 0.600062 -0.055087
C58   C     C_R   0.533976 0.377607 0.616269 -0.160390
H33   H     H_    0.667042 0.392054 0.601414 0.120648
C59   C     C_R   0.544769 0.341591 0.652130 -0.143429
H34   H     H_    0.685535 0.329961 0.664344 0.101053
C60   C     C_R   0.376480 0.321943 0.673041 0.093504
O11   O     O_R   0.309730 0.065160 0.075230 -0.537065
O12   O     O_R   0.633800 0.053970 0.954410 -0.541941
O13   O     O_R   0.797580 0.934860 0.924760 -0.536372
C61   C     C_R   0.465163 0.065992 0.937507 0.700163
O14   O     O_R   0.639820 0.072410 0.076610 -0.541719
O15   O     O_R   0.803650 0.953440 0.047830 -0.539090
C62   C     C_R   0.472525 0.091302 0.100639 0.700873
O16   O     O_R   0.303670 0.046590 0.952160 -0.539197
O17   O     O_3   0.468000 0.960960 0.990410 -0.367075
V3    V     V_3+5 0.745380 0.007240 0.001780 1.397834
O18   O     O_R   0.132940 0.946010 0.045600 -0.540948
C63   C     C_R   0.963825 0.934161 0.062624 0.691321
O19   O     O_R   0.126920 0.927560 0.923400 -0.542950
C64   C     C_R   0.958848 0.909319 0.899062 0.702078
V4    V     V_3+5 0.244590 0.992720 0.998240 1.398636
O20   O     O_3   0.972110 0.039040 0.009600 -0.367498
Cl1   Cl    Cl    0.261091 0.635974 0.291099 -0.717675
C65   C     C_3   0.782677 0.219892 0.862918 -0.394619
C66   C     C_3   0.741302 0.288915 0.899656 -0.721364
H35   H     H_    0.627363 0.306136 0.877251 0.234614
H36   H     H_    0.695034 0.295784 0.946740 0.229597
H37   H     H_    0.874229 0.317191 0.902859 0.211134
H38   H     H_    0.829152 0.213160 0.816028 0.176682
H39   H     H_    0.907936 0.206958 0.884881 0.179812

loop_
_geom_bond_atom_site_label_1
_geom_bond_atom_site_label_2
_ccdc_geom_bond_type
C42   H21   S    
C49   H27   S    
C34   C36   A    
C57   C58   A    
O17   V4    S    
C32   H15   S    
C11   C12   A    
C19   C20   A    
C6    H2    S    
C1    O6    A    
C59   C60   A    
C55   H31   S    
C24   C26   A    
C7    C16   S    
C21   C22   A    
C17   H9    S    
C26   H16   S    
V3    O20   S    
C46   C47   A    
C5    C10   A    
C35   C39   A    
C6    C7    A    
C47   C48   A    
O5    C3    A    
C43   C44   A    
C38   C42   A    
O17   V3    S    
C1    C33   S    
C33   C41   A    
C15   H8    S    
O18   V4    S    
O11   C62   A    
O13   V3    S    
O16   V4    S    
O8    V2    S    
C13   C14   A    
C39   C40   A    
C66   H37   S    
O14   V3    S    
O1    V2    S    
C46   C65   S    
C50   C51   A    
O7    V1    S    
C61   O16   A    
C15   C16   A    
C53   C54   A    
C43   C48   A    
C37   C38   A    
C34   C37   A    
C7    C8    A    
C51   C60   S    
C58   H33   S    
C20   C21   A    
C59   H34   S    
C55   C56   A    
C27   C28   A    
C24   C27   A    
O19   V4    S    
C45   C54   S    
C18   H10   S    
C28   C29   A    
C9    H4    S    
C3    C23   S    
C51   C52   A    
O4    C2    A    
C43   H24   S    
C38   C39   A    
C33   C40   A    
C14   C15   A    
C40   H18   S    
O2    C1    A    
C12   H6    S    
C56   H32   S    
O19   C64   A    
C49   C54   A    
C23   C31   A    
C41   H19   S    
C52   C53   A    
C5    H1    S    
C65   H39   S    
O14   C62   A    
C47   H26   S    
C58   C59   A    
C36   H22   S    
V4    O20   S    
C41   C42   A    
O3    C4    A    
C4    C19   S    
C55   C60   A    
C44   C45   A    
C24   C64   S    
C56   C57   A    
O6    V2    S    
C49   C50   A    
C2    C57   S    
C66   H35   S    
C8    C9    A    
C20   H11   S    
O11   V4    S    
C17   C22   A    
O2    V1    S    
O15   V3    S    
C29   C30   A    
C30   H12   S    
C37   H23   S    
C31   C32   A    
C25   C26   A    
C48   C61   S    
O1    C2    A    
C10   C63   S    
C9    C10   A    
C44   H25   S    
O5    V1    S    
O8    C3    A    
C25   H14   S    
C11   C16   A    
C21   Cl1   S    
C35   C36   A    
O12   V3    S    
O9    V2    S    
O7    V2    S    
O4    V1    S    
C12   C13   A    
O3    V1    S    
V1    O10   S    
O18   C63   A    
C14   H7    S    
O15   C63   A    
C23   C30   A    
C52   H29   S    
C5    C6    A    
O12   C61   A    
C65   H38   S    
C28   C32   A    
C53   H30   S    
C34   C62   S    
C25   C29   A    
C18   C19   A    
C17   C18   A    
C45   C46   A    
C13   C22   S    
C11   H5    S    
C66   H36   S    
C27   H17   S    
C35   H20   S    
C8    H3    S    
C50   H28   S    
O9    C4    A    
V2    O10   S    
O13   C64   A    
C65   C66   S    
C31   H13   S    
