data_mof_unit_6892.cif
_audit_creation_date              2012-12-11T15:33:50-0500
_audit_creation_method            fapswitch 2.2
_symmetry_space_group_name_H-M    P1
_symmetry_Int_Tables_number       1
_space_group_crystal_system       triclinic
_cell_length_a                    27.281244
_cell_length_b                    7.189964
_cell_length_c                    22.656047
_cell_angle_alpha                 89.778821
_cell_angle_beta                  100.863709
_cell_angle_gamma                 89.756235
_cell_volume                      4364.27700754

loop_
_atom_site_label
_atom_site_type_symbol
_atom_type_description
_atom_site_fract_x
_atom_site_fract_y
_atom_site_fract_z
_atom_type_partial_charge
O1    O     O_R   0.207310 0.594030 0.676830 -0.551020
O2    O     O_R   0.792690 0.405970 0.323170 -0.544426
O3    O     O_R   0.292690 0.094030 0.823170 -0.547088
O4    O     O_R   0.707310 0.905970 0.176830 -0.539756
O5    O     O_R   0.197320 0.262370 0.795700 -0.525946
O6    O     O_R   0.802680 0.737630 0.204300 -0.533142
O7    O     O_R   0.302680 0.762370 0.704300 -0.525707
O8    O     O_R   0.697320 0.237630 0.295700 -0.533631
C1    C     C_R   0.184596 0.432614 0.811856 0.694823
C2    C     C_R   0.815398 0.567376 0.188133 0.732579
C3    C     C_R   0.315348 0.932482 0.688041 0.688202
C4    C     C_R   0.684588 0.067475 0.311873 0.737543
O9    O     O_R   0.201410 0.264250 0.675590 -0.504538
O10   O     O_R   0.798590 0.735750 0.324410 -0.514065
O11   O     O_R   0.298590 0.764250 0.824410 -0.501887
O12   O     O_R   0.701410 0.235750 0.175590 -0.516290
O13   O     O_R   0.296810 0.094940 0.702210 -0.553740
O14   O     O_R   0.703190 0.905060 0.297790 -0.547646
O15   O     O_R   0.203190 0.594940 0.797790 -0.555055
O16   O     O_R   0.796810 0.405060 0.202210 -0.548948
C5    C     C_R   0.188635 0.433598 0.654508 0.753663
C6    C     C_R   0.811356 0.566446 0.345489 0.796064
C7    C     C_R   0.311723 0.932397 0.845266 0.744756
C8    C     C_R   0.688963 0.067832 0.154154 0.804510
O17   O     O_3   0.281300 0.427390 0.758870 -0.365738
O18   O     O_3   0.718700 0.572610 0.241130 -0.372433
O19   O     O_3   0.218700 0.927390 0.741130 -0.371615
O20   O     O_3   0.781300 0.072610 0.258870 -0.373672
V1    V     V_3+5 0.244190 0.152150 0.748350 1.531740
V2    V     V_3+5 0.755810 0.847850 0.251650 1.570475
V3    V     V_3+5 0.255810 0.652150 0.751650 1.536486
V4    V     V_3+5 0.744190 0.347850 0.248350 1.563865
C9    C     C_R   0.652899 0.065219 0.096497 -0.184513
C10   C     C_R   0.348987 0.939275 0.901896 -0.189162
C11   C     C_R   0.847793 0.556127 0.402649 -0.193452
C12   C     C_R   0.152312 0.444404 0.597248 -0.191844
C13   C     C_R   0.637723 0.170324 0.993107 0.500633
C14   C     C_R   0.363305 0.967229 0.010796 0.433011
C15   C     C_R   0.860201 0.527500 0.511393 0.507353
C16   C     C_R   0.140318 0.478669 0.488642 0.427800
C17   C     C_R   0.670577 0.126544 0.046108 -0.282247
C18   C     C_R   0.331457 0.976069 0.954737 -0.282975
C19   C     C_R   0.829033 0.524744 0.454979 -0.294398
C20   C     C_R   0.171332 0.476955 0.545180 -0.289685
C21   C     C_R   0.600618 0.046601 0.093025 0.329585
C22   C     C_R   0.401150 0.916477 0.904222 0.304068
C23   C     C_R   0.900212 0.567546 0.405725 0.339539
C24   C     C_R   0.099817 0.435444 0.593928 0.318782
C25   C     C_R   0.568863 0.034558 0.034515 -0.106212
C26   C     C_R   0.434375 0.944626 0.960483 -0.069930
C27   C     C_R   0.932584 0.539676 0.462837 -0.127090
C28   C     C_R   0.067674 0.464893 0.536672 -0.078750
C29   C     C_R   0.588388 0.098949 0.983613 -0.168808
C30   C     C_R   0.414484 0.924709 0.013534 -0.158241
C31   C     C_R   0.911826 0.561844 0.515343 -0.152547
C32   C     C_R   0.088611 0.444764 0.484191 -0.143110
C33   C     C_R   0.518167 0.969401 0.024633 -0.009873
C34   C     C_R   0.486218 0.991963 0.967616 0.037337
C35   C     C_R   0.984508 0.492557 0.470994 0.012296
C36   C     C_R   0.015783 0.512372 0.528406 0.050848
C37   C     C_R   0.506315 0.067582 0.920475 -0.096300
C38   C     C_R   0.498642 0.871050 0.068517 -0.115805
C39   C     C_R   0.995410 0.599732 0.573515 -0.105174
C40   C     C_R   0.005038 0.407158 0.425667 -0.125183
C41   C     C_R   0.557353 0.096343 0.925769 0.466540
C42   C     C_R   0.447058 0.857608 0.065531 0.470489
C43   C     C_R   0.943868 0.621289 0.568522 0.438487
C44   C     C_R   0.056661 0.387871 0.430529 0.434697
H1    H     H_    0.292258 0.008278 0.952260 0.155705
H2    H     H_    0.709284 0.168669 0.051239 0.166231
H3    H     H_    0.210992 0.501064 0.548757 0.154484
H4    H     H_    0.789450 0.499757 0.451745 0.167972
C45   C     C_R   0.628974 0.881504 0.366817 -0.095615
C46   C     C_R   0.370743 0.118388 0.632782 -0.125068
C47   C     C_R   0.870442 0.381320 0.132299 -0.107096
C48   C     C_R   0.129045 0.618725 0.866984 -0.125634
H5    H     H_    0.644064 0.753708 0.352280 0.127254
H6    H     H_    0.355479 0.246190 0.647071 0.126698
H7    H     H_    0.854957 0.253599 0.146216 0.125008
H8    H     H_    0.144265 0.746473 0.852697 0.124863
C49   C     C_R   0.593024 0.868518 0.403289 -0.094987
C50   C     C_R   0.406768 0.131340 0.596416 -0.093719
C51   C     C_R   0.906390 0.368369 0.095814 -0.097971
C52   C     C_R   0.093026 0.631699 0.903374 -0.093110
H9    H     H_    0.581757 0.731618 0.415516 0.140223
H10   H     H_    0.417900 0.268223 0.583997 0.140196
H11   H     H_    0.917274 0.231564 0.082971 0.140451
H12   H     H_    0.081844 0.768552 0.915808 0.139716
C53   C     C_R   0.572178 0.029336 0.423901 0.013709
C54   C     C_R   0.427854 0.970509 0.576141 0.013216
C55   C     C_R   0.927714 0.529139 0.075959 0.015962
C56   C     C_R   0.072010 0.470893 0.923648 0.017471
C57   C     C_R   0.588067 0.203924 0.406440 -0.095262
C58   C     C_R   0.412131 0.795948 0.593842 -0.096484
C59   C     C_R   0.912296 0.703586 0.094175 -0.093422
C60   C     C_R   0.087777 0.296381 0.905910 -0.093379
C61   C     C_R   0.624115 0.217043 0.369822 -0.092567
C62   C     C_R   0.376017 0.782863 0.630370 -0.075065
C63   C     C_R   0.876268 0.716667 0.130820 -0.092201
C64   C     C_R   0.123888 0.283278 0.869379 -0.082167
H13   H     H_    0.635541 0.353784 0.357665 0.126569
H14   H     H_    0.364756 0.646143 0.642767 0.125027
H15   H     H_    0.865250 0.853342 0.143613 0.126177
H16   H     H_    0.135203 0.146558 0.856993 0.124177
C65   C     C_R   0.645319 0.055865 0.349706 -0.017504
C66   C     C_R   0.354569 0.944048 0.650138 -0.022756
C67   C     C_R   0.854598 0.555598 0.150202 -0.014746
C68   C     C_R   0.145288 0.444391 0.849632 -0.021088
N1    N     N_R   0.514161 0.168727 0.483941 -0.254599
N2    N     N_R   0.485929 0.831092 0.516180 -0.254742
N3    N     N_R   0.985920 0.668714 0.016293 -0.252358
N4    N     N_R   0.013781 0.331340 0.983284 -0.252144
N5    N     N_R   0.480571 0.154717 0.519562 -0.261091
N6    N     N_R   0.519517 0.845102 0.480554 -0.260114
N7    N     N_R   0.019502 0.654861 0.980649 -0.259049
N8    N     N_R   0.980195 0.345193 0.018922 -0.258387
C69   C     C_R   0.465668 0.985626 0.536544 0.540778
C70   C     C_R   0.534415 0.014195 0.463566 0.545513
C71   C     C_R   0.034218 0.485901 0.963281 0.545986
C72   C     C_R   0.965482 0.514151 0.036294 0.547480
S1    S     S_3+6 0.580726 0.078471 0.857882 0.172888
O21   O     O_2   0.582206 0.266550 0.829183 -0.232125
O22   O     O_2   0.631965 0.992406 0.869870 -0.265003
O23   O     O_3   0.542754 0.941857 0.809511 -0.425296
H17   H     H_    0.557470 0.939836 0.772751 0.394585
S2    S     S_3+6 0.426427 0.715262 0.119972 0.149903
O24   O     O_2   0.417454 0.830914 0.172013 -0.207585
O25   O     O_2   0.379341 0.616125 0.092283 -0.274269
O26   O     O_3   0.470621 0.556289 0.146021 -0.487914
H18   H     H_    0.456558 0.481890 0.175689 0.418550
S3    S     S_3+6 0.923274 0.769691 0.621412 0.173689
O27   O     O_2   0.876531 0.871293 0.592726 -0.247715
O28   O     O_2   0.913371 0.659112 0.674324 -0.225840
O29   O     O_3   0.967522 0.928345 0.646043 -0.432141
H19   H     H_    0.988736 0.871717 0.681980 0.377321
S4    S     S_3+6 0.077655 0.246715 0.376086 0.169838
O30   O     O_2   0.088941 0.364074 0.325313 -0.215123
O31   O     O_2   0.123695 0.140343 0.404367 -0.246348
O32   O     O_3   0.033195 0.092735 0.347872 -0.456867
H20   H     H_    0.012505 0.155556 0.312753 0.375908
S5    S     S_3+6 0.422605 0.808457 0.842587 0.049752
O33   O     O_2   0.473596 0.725170 0.863273 -0.250800
O34   O     O_2   0.388409 0.653969 0.816820 -0.313221
O35   O     O_3   0.425011 0.965606 0.788000 -0.473128
H21   H     H_    0.396676 0.051509 0.788736 0.301201
S6    S     S_3+6 0.576458 0.095172 0.159820 0.027384
O36   O     O_2   0.580015 0.922656 0.198094 -0.310443
O37   O     O_2   0.606315 0.245576 0.195601 -0.324446
O38   O     O_3   0.516912 0.169666 0.144276 -0.445636
H22   H     H_    0.516356 0.266739 0.113027 0.361428
S7    S     S_3+6 0.076191 0.352991 0.657890 0.032121
O39   O     O_2   0.024593 0.275370 0.639086 -0.252681
O40   O     O_2   0.108721 0.200405 0.689665 -0.322937
O41   O     O_3   0.074386 0.528013 0.706515 -0.490500
H23   H     H_    0.106859 0.591809 0.709699 0.306326
S8    S     S_3+6 0.923212 0.653508 0.341862 0.015492
O42   O     O_2   0.922375 0.499395 0.297071 -0.331073
O43   O     O_2   0.891028 0.810225 0.312219 -0.325052
O44   O     O_3   0.981638 0.735532 0.361060 -0.433798
H24   H     H_    0.979805 0.829451 0.392462 0.361071
S9    S     S_3+6 0.654468 0.368097 0.954138 0.115048
O45   O     O_2   0.681920 0.310587 0.905531 -0.226443
O46   O     O_2   0.608723 0.479199 0.927712 -0.271125
O47   O     O_3   0.692383 0.503878 0.002984 -0.519412
H25   H     H_    0.696857 0.618070 0.980008 0.380752
S10   S     S_3+6 0.340630 0.064500 0.072357 0.167787
O48   O     O_2   0.382596 0.153443 0.115323 -0.222662
O49   O     O_2   0.302199 0.211615 0.049980 -0.300786
O50   O     O_3   0.313779 0.900253 0.108426 -0.385902
H26   H     H_    0.286941 0.848030 0.077410 0.355975
S11   S     S_3+6 0.835560 0.433146 0.571991 0.148058
O51   O     O_2   0.876169 0.339469 0.616353 -0.227851
O52   O     O_2   0.811435 0.583690 0.602584 -0.242171
O53   O     O_3   0.792011 0.274254 0.545169 -0.496467
H27   H     H_    0.781244 0.222061 0.581169 0.399805
S12   S     S_3+6 0.165241 0.579193 0.429068 0.175587
O54   O     O_2   0.124751 0.676902 0.385696 -0.197941
O55   O     O_2   0.204266 0.719814 0.453977 -0.305518
O56   O     O_3   0.192076 0.415658 0.392705 -0.385389
H28   H     H_    0.218034 0.357966 0.423965 0.355228
H29   H     H_    0.482848 0.096096 0.877583 0.204192
H30   H     H_    0.523386 0.808130 0.106030 0.224327
H31   H     H_    0.019791 0.654719 0.612513 0.178881
H32   H     H_    0.980775 0.353863 0.386286 0.191415
H33   H     H_    0.572831 0.331010 0.421272 0.146791
H34   H     H_    0.427563 0.668859 0.579284 0.145273
H35   H     H_    0.927910 0.830616 0.079943 0.146697
H36   H     H_    0.072401 0.169319 0.920466 0.145260

loop_
_geom_bond_atom_site_label_1
_geom_bond_atom_site_label_2
_ccdc_geom_bond_type
O17   V3    S    
C63   H15   S    
S11   O51   D    
O1    C5    A    
S2    O24   D    
O19   V1    S    
C9    C21   A    
O50   H26   S    
C60   H36   S    
C51   H11   S    
C49   C53   A    
C10   C18   A    
O1    V3    S    
S3    O29   S    
C11   C23   A    
C48   C52   A    
S9    O45   D    
C59   H35   S    
C33   C38   A    
C5    C12   S    
C1    C68   S    
O7    C3    A    
C6    C11   S    
S11   O52   D    
C35   C40   A    
C26   C30   A    
C36   C39   A    
C40   C44   A    
O9    V1    S    
S8    O42   D    
C56   C71   S    
O10   V2    S    
C14   C18   A    
S5    O34   D    
C4    C65   S    
O4    C8    A    
C59   C63   A    
C38   H30   S    
C23   S8    S    
C58   C62   A    
C60   C64   A    
C56   C60   A    
O13   V1    S    
C20   H3    S    
O2    V4    S    
S7    O41   S    
O3    V1    S    
O53   H27   S    
S1    O23   S    
C15   S11   S    
C28   C36   A    
O3    C7    A    
C1    O15   A    
C64   H16   S    
C15   C31   A    
C2    O16   A    
C53   C57   A    
C16   C32   A    
C62   H14   S    
O2    C6    A    
S7    O39   D    
C62   C66   A    
C10   C22   A    
C41   S1    S    
C11   C19   A    
N2    N6    A    
C16   C20   A    
S6    O37   D    
N1    N5    A    
C13   C29   A    
C34   C37   A    
O11   C7    A    
O15   V3    S    
C35   C36   A    
C48   C68   A    
S10   O49   D    
C2    C67   S    
C46   C50   A    
S4    O32   S    
N2    C69   A    
C45   C49   A    
S9    O46   D    
N1    C70   A    
C54   C58   A    
C22   S5    S    
O5    V1    S    
S12   O56   S    
S11   O53   S    
C39   C43   A    
C64   C68   A    
O7    V3    S    
C38   C42   A    
C21   S6    S    
C26   C34   A    
C54   C69   S    
C48   H8    S    
C47   C67   A    
C44   S4    S    
C39   H31   S    
S4    O31   D    
S5    O35   S    
C16   S12   S    
O18   V4    S    
S4    O30   D    
C15   C19   A    
S2    O26   S    
C32   C44   A    
C18   H1    S    
N8    C72   A    
N3    C72   A    
O8    V4    S    
O5    C1    A    
C23   C27   A    
C46   C66   A    
S6    O38   S    
C45   C65   A    
O44   H24   S    
C14   C30   A    
C21   C25   A    
O8    C4    A    
C7    C10   S    
C61   H13   S    
C3    C66   S    
S1    O21   D    
O9    C5    A    
O41   H23   S    
N6    C70   A    
N5    C69   A    
S12   O54   D    
O6    V2    S    
N7    C71   A    
S10   O48   D    
C12   C20   A    
C27   C35   A    
S3    O27   D    
C57   C61   A    
N4    N8    A    
S9    O47   S    
C29   C41   A    
C13   S9    S    
S6    O36   D    
O16   V4    S    
C14   S10   S    
C19   H4    S    
O47   H25   S    
S2    O25   D    
S8    O44   S    
C43   S3    S    
C58   H34   S    
O35   H21   S    
S3    O28   D    
C3    O13   A    
O6    C2    A    
N4    C71   A    
C31   C43   A    
O32   H20   S    
O11   V3    S    
O29   H19   S    
C30   C42   A    
O12   V4    S    
C63   C67   A    
C22   C26   A    
C37   H29   S    
C8    C9    S    
C50   C54   A    
C9    C17   A    
O10   C6    A    
S8    O43   D    
O26   H18   S    
C61   C65   A    
O20   V2    S    
C50   H10   S    
O38   H22   S    
C47   C51   A    
C33   C34   A    
C25   C33   A    
C52   H12   S    
C25   C29   A    
C51   C55   A    
S12   O55   D    
C12   C24   A    
C27   C31   A    
S7    O40   D    
C37   C41   A    
C13   C17   A    
O4    V2    S    
S1    O22   D    
O14   V2    S    
C55   C59   A    
O56   H28   S    
C40   H32   S    
C42   S2    S    
C24   C28   A    
C53   C70   S    
S10   O50   S    
O12   C8    A    
C46   H6    S    
C24   S7    S    
C4    O14   A    
C45   H5    S    
C55   C72   S    
O23   H17   S    
N3    N7    A    
C52   C56   A    
S5    O33   D    
C47   H7    S    
C49   H9    S    
C28   C32   A    
C17   H2    S    
C57   H33   S    
