data_mof_unit_24006.cif
_audit_creation_date              2013-03-05T15:49:32-0500
_audit_creation_method            fapswitch 2.2
_symmetry_space_group_name_H-M    P1
_symmetry_Int_Tables_number       1
_space_group_crystal_system       triclinic
_cell_length_a                    10.639696
_cell_length_b                    12.033561
_cell_length_c                    12.836675
_cell_angle_alpha                 93.32981
_cell_angle_beta                  90.296548
_cell_angle_gamma                 86.18671
_cell_volume                      1637.11490574

loop_
_atom_site_label
_atom_site_type_symbol
_atom_site_description
_atom_site_fract_x
_atom_site_fract_y
_atom_site_fract_z
_atom_type_partial_charge
O1    O     O_R   0.506170 0.421700 0.658830 -0.586390
O2    O     O_R   0.493830 0.578300 0.341170 -0.586391
O3    O     O_R   0.491330 0.609310 0.646410 -0.634479
O4    O     O_R   0.508670 0.390690 0.353590 -0.634478
C1    C     C_R   0.497810 0.522053 0.700299 0.847652
C2    C     C_R   0.502190 0.477946 0.299700 0.847653
O5    O     O_R   0.690650 0.406190 0.506220 -0.571597
O6    O     O_R   0.309350 0.593810 0.493780 -0.571599
O7    O     O_R   0.675800 0.593810 0.493800 -0.633138
O8    O     O_R   0.324200 0.406190 0.506200 -0.633137
C3    C     C_R   0.739044 0.500149 0.499866 0.863285
C4    C     C_R   0.260956 0.499851 0.500135 0.863283
Zn1   Zn    Zn3+2 0.509910 0.374730 0.508290 0.991030
Zn2   Zn    Zn3+2 0.490090 0.625270 0.491710 0.991028
H1    H     H_    0.886468 0.486897 0.859218 0.144407
H2    H     H_    0.113530 0.513138 0.140769 0.144402
C5    C     C_R   0.867762 0.508797 0.307460 -0.135398
C6    C     C_R   0.132238 0.491213 0.692536 -0.135408
C7    C     C_R   0.932407 0.512015 0.213597 -0.141090
C8    C     C_R   0.067591 0.488007 0.786394 -0.141097
C9    C     C_R   0.063116 0.510977 0.213628 -0.103002
C10   C     C_R   0.936882 0.489047 0.786363 -0.103018
C11   C     C_R   0.129217 0.506869 0.307526 -0.072032
C12   C     C_R   0.870782 0.493146 0.692470 -0.072048
C13   C     C_R   0.064834 0.504007 0.403791 0.074637
C14   C     C_R   0.935166 0.495999 0.596208 0.074652
C15   C     C_R   0.933574 0.504773 0.403749 0.071459
C16   C     C_R   0.066426 0.495231 0.596250 0.071472
C17   C     C_R   0.128631 0.499450 0.500052 -0.158050
C18   C     C_R   0.871369 0.500551 0.499949 -0.158049
H3    H     H_    0.766246 0.509268 0.303664 0.122065
H4    H     H_    0.233753 0.490741 0.696332 0.122064
H5    H     H_    0.880891 0.515044 0.140707 0.139658
H6    H     H_    0.119107 0.484985 0.859281 0.139666
H7    H     H_    0.230766 0.505748 0.303777 0.137107
H8    H     H_    0.769233 0.494270 0.696219 0.137098
C19   C     C_R   0.501123 0.464384 0.188384 -0.048938
C20   C     C_R   0.498877 0.535616 0.811616 -0.048937
C21   C     C_R   0.555173 0.638089 0.969255 -0.200422
C22   C     C_R   0.444827 0.361911 0.030745 -0.200419
C23   C     C_R   0.542798 0.631896 0.861776 -0.208456
C24   C     C_R   0.457202 0.368104 0.138224 -0.208454
C25   C     C_R   0.463403 0.447126 0.867752 -0.227606
C26   C     C_R   0.536597 0.552874 0.132248 -0.227608
C27   C     C_R   0.476596 0.451975 0.974471 0.170720
C28   C     C_R   0.523404 0.548025 0.025529 0.170720
H9    H     H_    0.572405 0.626481 0.171831 0.171060
H10   H     H_    0.427595 0.373519 0.828169 0.171061
H11   H     H_    0.429079 0.299677 0.182146 0.164529
H12   H     H_    0.570921 0.700323 0.817854 0.164529
H13   H     H_    0.590712 0.712073 0.008056 0.153895
H14   H     H_    0.409287 0.287927 0.991943 0.153896
N1    N     N_R   0.523130 0.207800 0.519340 -0.161441
N2    N     N_R   0.476870 0.792200 0.480660 -0.161441
C29   C     C_R   0.372034 0.957089 0.412615 -0.332690
C30   C     C_R   0.627966 0.042911 0.587384 -0.332690
C31   C     C_R   0.385134 0.840627 0.419207 0.472162
C32   C     C_R   0.614866 0.159373 0.580793 0.472160
C33   C     C_R   0.557023 0.857316 0.536277 -0.087126
C34   C     C_R   0.442977 0.142684 0.463722 -0.087125
C35   C     C_R   0.546894 0.974804 0.531300 0.034306
C36   C     C_R   0.453106 0.025195 0.468700 0.034306
H15   H     H_    0.371637 0.182232 0.415175 0.149285
H16   H     H_    0.628363 0.817768 0.584825 0.149285
H17   H     H_    0.298841 0.993663 0.363755 0.177177
H18   H     H_    0.701159 0.006337 0.636245 0.177177
N3    N     N_R   0.699747 0.226242 0.638636 0.217457
O9    O     O_R   0.671746 0.260079 0.734247 -0.410660
O10   O     O_R   0.816558 0.223988 0.608739 -0.389360
N4    N     N_R   0.300253 0.773758 0.361364 0.217456
O11   O     O_R   0.183442 0.776011 0.391261 -0.389362
O12   O     O_R   0.328254 0.739920 0.265753 -0.410665

loop_
_geom_bond_atom_site_label_1
_geom_bond_atom_site_label_2
_geom_bond_distance
_ccdc_geom_bond_type
C7    C9    1.389931 A    
C21   H13   1.083976 S    
N1    C32   1.372702 A    
C29   C36   1.397535 A    
Zn1   N1    2.017508 S    
C22   H14   1.083976 S    
H2    C9    1.083050 S    
C31   N4    1.426446 S    
C13   C15   1.395981 A    
C25   C27   1.374623 A    
C25   H10   1.085579 S    
C32   N3    1.426446 S    
C14   C16   1.395981 A    
C26   H9    1.085579 S    
O6    C4    1.280136 A    
C8    H6    1.083105 S    
C19   C26   1.393216 A    
C29   C31   1.406524 A    
C2    C19   1.428843 S    
C6    C16   1.419087 A    
C20   C25   1.393215 A    
C21   C23   1.383424 A    
C12   H8    1.080924 S    
C1    C20   1.428843 S    
N2    C31   1.372701 A    
C15   C18   1.409174 A    
O5    C3    1.280137 A    
O7    C3    1.279813 A    
C33   H16   1.082818 S    
O2    C2    1.288849 A    
O3    Zn2   2.006065 S    
O8    C4    1.279814 A    
C21   C28   1.397457 A    
C30   H18   1.083962 S    
N3    O10   1.300732 A    
C10   C12   1.394002 A    
O4    C2    1.288431 A    
C16   C17   1.409152 A    
Zn2   N2    2.017509 S    
N1    C34   1.366960 A    
C8    C10   1.389931 A    
C14   C18   1.408825 A    
C6    C8    1.394165 A    
N2    C33   1.366959 A    
C11   C13   1.419255 A    
C9    C11   1.394064 A    
C13   C17   1.408851 A    
C35   C36   1.406058 A    
C4    C17   1.408230 S    
C11   H7    1.080925 S    
O1    C1    1.288849 A    
C33   C35   1.415872 A    
C6    H4    1.080592 S    
C29   H17   1.083962 S    
C24   H11   1.083460 S    
N3    O9    1.300194 A    
C5    C15   1.419131 A    
C34   H15   1.082817 S    
C23   H12   1.083459 S    
O5    Zn1   1.985085 S    
N4    O11   1.300731 A    
O1    Zn1   1.981483 S    
C22   C27   1.397457 A    
C20   C23   1.399119 A    
C34   C36   1.415872 A    
C7    H5    1.083157 S    
O2    Zn2   1.981482 S    
C19   C24   1.399119 A    
O7    Zn2   1.987296 S    
C30   C35   1.397536 A    
O6    Zn2   1.985084 S    
O4    Zn1   2.006064 S    
C5    C7    1.394230 A    
C27   C28   1.413753 A    
C30   C32   1.406522 A    
N4    O12   1.300195 A    
H1    C10   1.082997 S    
C5    H3    1.080591 S    
C12   C14   1.419207 A    
C3    C18   1.408231 S    
C26   C28   1.374621 A    
C22   C24   1.383424 A    
O3    C1    1.288432 A    
O8    Zn1   1.987296 S    
