data_mof_unit_45898.cif
_audit_creation_date              2012-12-11T16:41:15-0500
_audit_creation_method            fapswitch 2.2
_symmetry_space_group_name_H-M    P1
_symmetry_Int_Tables_number       1
_space_group_crystal_system       triclinic
_cell_length_a                    6.933739
_cell_length_b                    23.122036
_cell_length_c                    23.63416
_cell_angle_alpha                 112.544463
_cell_angle_beta                  90.196234
_cell_angle_gamma                 90.542814
_cell_volume                      3499.26761123

loop_
_atom_site_label
_atom_site_type_symbol
_atom_type_description
_atom_site_fract_x
_atom_site_fract_y
_atom_site_fract_z
_atom_type_partial_charge
O1    O     O_R   0.505740 0.453370 0.547760 -0.538568
O2    O     O_R   0.169520 0.427650 0.423350 -0.542236
O3    O     O_R   0.005620 0.546630 0.452240 -0.540070
C1    C     C_R   0.336805 0.408804 0.399282 0.699329
O4    O     O_R   0.175610 0.445960 0.545510 -0.542857
O5    O     O_R   0.011740 0.565080 0.575280 -0.536275
C2    C     C_R   0.344351 0.433851 0.562336 0.706841
O6    O     O_R   0.499610 0.434920 0.424720 -0.537241
O7    O     O_3   0.341310 0.539060 0.509620 -0.366838
V1    V     V_3+5 0.063960 0.492750 0.498220 1.393592
O8    O     O_R   0.682400 0.572350 0.576650 -0.542882
C3    C     C_R   0.850479 0.590599 0.600997 0.702756
O9    O     O_R   0.676320 0.554040 0.454490 -0.540295
C4    C     C_R   0.845447 0.565875 0.437403 0.710168
V2    V     V_3+5 0.564740 0.507250 0.501780 1.397558
O10   O     O_3   0.837250 0.460940 0.490380 -0.368486
C5    C     C_R   0.775884 0.889155 0.127426 -0.162336
C6    C     C_R   0.763416 0.853128 0.163278 -0.173617
H1    H     H_    0.626250 0.849081 0.183346 0.111433
C7    C     C_R   0.925488 0.821712 0.172347 0.115669
C8    C     C_R   0.101242 0.827704 0.145519 -0.090641
H2    H     H_    0.228758 0.804402 0.152380 0.117898
C9    C     C_R   0.114489 0.864313 0.110141 -0.181270
H3    H     H_    0.252134 0.868039 0.090212 0.122437
C10   C     C_R   0.951631 0.895319 0.100379 -0.054803
C11   C     C_R   0.964999 0.719174 0.186490 0.297851
C12   C     C_R   0.954960 0.684780 0.224312 -0.219997
C13   C     C_R   0.892521 0.712655 0.285250 0.050263
C14   C     C_R   0.833252 0.775262 0.307438 -0.159490
H4    H     H_    0.783191 0.797762 0.354088 0.122966
C15   C     C_R   0.841894 0.809864 0.270173 -0.219428
C16   C     C_R   0.910493 0.782818 0.209865 0.045519
C17   C     C_R   0.715148 0.674540 0.356509 -0.184033
C18   C     C_R   0.700384 0.638514 0.392345 -0.168120
H5    H     H_    0.565308 0.637941 0.415012 0.144696
C19   C     C_R   0.858322 0.604079 0.399111 -0.119853
C20   C     C_R   0.031112 0.606513 0.369031 -0.186314
H6    H     H_    0.156028 0.581165 0.374315 0.141279
C21   C     C_R   0.046845 0.641664 0.332078 0.322108
C22   C     C_R   0.886381 0.676140 0.325369 0.026398
C23   C     C_R   0.849822 0.645648 0.660408 -0.070063
C24   C     C_R   0.959489 0.854224 0.839676 -0.070210
C25   C     C_R   0.144245 0.786391 0.751469 -0.200903
C26   C     C_R   0.128933 0.840881 0.804198 -0.162773
C27   C     C_R   0.803074 0.811963 0.820261 -0.240459
C28   C     C_R   0.818501 0.756471 0.767334 0.160380
C29   C     C_R   0.990826 0.743385 0.732768 0.160200
C30   C     C_R   0.006244 0.687902 0.679835 -0.240317
C31   C     C_R   0.680391 0.658976 0.695892 -0.163890
C32   C     C_R   0.665089 0.713460 0.748632 -0.200918
H7    H     H_    0.557260 0.627322 0.682426 0.128692
H8    H     H_    0.277055 0.777675 0.725633 0.122806
C33   C     C_R   0.337148 0.352672 0.340333 -0.070350
C34   C     C_R   0.472214 0.147489 0.159560 -0.070448
C35   C     C_R   0.649389 0.218626 0.249526 -0.201938
C36   C     C_R   0.641021 0.164348 0.195966 -0.167855
C37   C     C_R   0.310430 0.186528 0.178529 -0.237165
C38   C     C_R   0.319160 0.241933 0.232057 0.159330
C39   C     C_R   0.490223 0.258252 0.267815 0.159040
C40   C     C_R   0.498939 0.313643 0.321353 -0.237720
C41   C     C_R   0.168369 0.335840 0.303914 -0.170155
C42   C     C_R   0.160007 0.281568 0.250344 -0.201821
H9    H     H_    0.629751 0.325497 0.348868 0.123472
H10   H     H_    0.781058 0.229739 0.276556 0.122645
H11   H     H_    0.028344 0.270463 0.223311 0.122892
H12   H     H_    0.768010 0.135388 0.182991 0.128344
C43   C     C_R   0.274956 0.124417 0.885812 -0.160840
H13   H     H_    0.142355 0.111772 0.902506 0.121257
C44   C     C_R   0.263553 0.160278 0.849812 -0.145415
H14   H     H_    0.122747 0.173592 0.839300 0.101120
C45   C     C_R   0.431151 0.177562 0.826533 0.093164
C46   C     C_R   0.610841 0.158301 0.840558 -0.143044
H15   H     H_    0.742865 0.171346 0.823898 0.101198
C47   C     C_R   0.622459 0.122667 0.876923 -0.161327
C48   C     C_R   0.454488 0.105028 0.899874 -0.055367
C49   C     C_R   0.533506 0.200921 0.735095 -0.158349
C50   C     C_R   0.516573 0.234987 0.697455 -0.141681
H16   H     H_    0.605769 0.222818 0.657192 0.117996
C51   C     C_R   0.383653 0.283813 0.711134 0.085377
C52   C     C_R   0.271292 0.299042 0.764103 -0.170342
H17   H     H_    0.171104 0.337519 0.776385 0.115385
C53   C     C_R   0.286731 0.264677 0.801489 -0.152198
C54   C     C_R   0.417620 0.214991 0.787368 0.082258
C55   C     C_R   0.196607 0.322340 0.639451 0.318880
C56   C     C_R   0.190142 0.360422 0.605094 -0.180973
C57   C     C_R   0.353202 0.394392 0.599467 -0.116565
C58   C     C_R   0.524721 0.390049 0.629366 -0.162475
H18   H     H_    0.653421 0.415371 0.625911 0.133243
C59   C     C_R   0.531698 0.353934 0.665152 -0.170396
H19   H     H_    0.665152 0.352492 0.688534 0.149974
C60   C     C_R   0.368512 0.320512 0.671548 0.005805
O11   O     O_R   0.309730 0.065160 0.075230 -0.537257
O12   O     O_R   0.633800 0.053970 0.954410 -0.541677
O13   O     O_R   0.797580 0.934860 0.924760 -0.536427
C61   C     C_R   0.464940 0.066056 0.937517 0.689533
O14   O     O_R   0.639820 0.072410 0.076610 -0.541381
O15   O     O_R   0.803650 0.953440 0.047830 -0.539619
C62   C     C_R   0.472532 0.091302 0.100649 0.700755
O16   O     O_R   0.303670 0.046590 0.952160 -0.539877
O17   O     O_3   0.468000 0.960960 0.990410 -0.366648
V3    V     V_3+5 0.745380 0.007240 0.001780 1.395883
O18   O     O_R   0.132940 0.946010 0.045600 -0.541053
C63   C     C_R   0.963838 0.934080 0.062593 0.693415
O19   O     O_R   0.126920 0.927560 0.923400 -0.542241
C64   C     C_R   0.958830 0.909305 0.899062 0.703817
V4    V     V_3+5 0.244590 0.992720 0.998240 1.397158
O20   O     O_3   0.972110 0.039040 0.009600 -0.368283
H20   H     H_    0.647548 0.912455 0.121190 0.123099
N1    N     N_2   0.228771 0.644911 0.305459 -0.539819
H21   H     H_    0.259101 0.684247 0.296436 0.259535
C65   C     C_3   0.305035 0.586852 0.261775 -0.578016
H22   H     H_    0.450688 0.579193 0.276944 0.219671
H23   H     H_    0.317193 0.589657 0.216046 0.189085
H24   H     H_    0.211788 0.545841 0.257082 0.195370
H25   H     H_    0.136931 0.678694 0.652896 0.123708
H26   H     H_    0.532283 0.722171 0.774470 0.122677
H27   H     H_    0.252068 0.872534 0.817656 0.129183
H28   H     H_    0.672383 0.821178 0.847198 0.123632
H29   H     H_    0.041392 0.364805 0.316895 0.127797
H30   H     H_    0.179604 0.174661 0.151022 0.123694
H31   H     H_    0.763141 0.108643 0.886717 0.117298
H32   H     H_    0.634748 0.162750 0.722611 0.110880
H33   H     H_    0.197782 0.277502 0.841938 0.111453
N2    N     N_2   0.031248 0.285024 0.639248 -0.539751
H34   H     H_    0.020774 0.270337 0.675064 0.260073
C66   C     C_3   0.989296 0.235066 0.580783 -0.559047
H35   H     H_    0.111154 0.201740 0.566992 0.197663
H36   H     H_    0.963138 0.254100 0.544894 0.202937
H37   H     H_    0.857351 0.209251 0.584420 0.190684
H38   H     H_    0.056987 0.362646 0.581941 0.135640
N3    N     N_2   0.028520 0.689260 0.124959 -0.531938
H39   H     H_    0.124715 0.653586 0.118704 0.249598
C67   C     C_3   0.874506 0.670339 0.079880 -0.543185
H40   H     H_    0.780890 0.634421 0.086940 0.187278
H41   H     H_    0.936936 0.650017 0.033250 0.198162
H42   H     H_    0.785909 0.711132 0.082831 0.212373
H43   H     H_    0.993945 0.635830 0.205799 0.133682
H44   H     H_    0.798464 0.858420 0.288902 0.130271
H45   H     H_    0.590788 0.700546 0.352199 0.149605

loop_
_geom_bond_atom_site_label_1
_geom_bond_atom_site_label_2
_ccdc_geom_bond_type
C27   H28   S    
V3    O20   S    
C35   C36   A    
O13   C64   A    
C11   C16   A    
C66   H35   S    
C35   C39   A    
C1    C33   S    
C41   H29   S    
C30   H25   S    
C65   H22   S    
C1    O6    A    
O19   V4    S    
O11   C62   A    
C56   C57   A    
C11   C12   A    
C20   H6    S    
C40   H9    S    
C19   C20   A    
C6    H1    S    
N1    C65   S    
C4    C19   S    
C52   H17   S    
C61   O16   A    
C25   H8    S    
C2    C57   S    
V4    O20   S    
C13   C22   S    
O4    V1    S    
V2    O10   S    
C6    C7    A    
C18   H5    S    
C44   C45   A    
O8    V2    S    
C15   C16   A    
O13   V3    S    
C31   H7    S    
O14   C62   A    
C67   H42   S    
C9    H3    S    
O1    V2    S    
C55   C60   A    
C59   C60   A    
O7    V1    S    
C32   H26   S    
C41   C42   A    
C39   C40   A    
O12   C61   A    
O9    C4    A    
O18   C63   A    
C24   C26   A    
C49   C54   A    
C23   C31   A    
O19   C64   A    
C33   C40   A    
C5    C6    A    
C45   C54   S    
C50   C51   A    
C34   C36   A    
C17   C22   A    
C47   C48   A    
C48   C61   S    
C43   H13   S    
O14   V3    S    
C49   C50   A    
C52   C53   A    
C5    H20   S    
O12   V3    S    
C21   C22   A    
O4    C2    A    
C57   C58   A    
C10   C63   S    
C66   H37   S    
C38   C39   A    
C50   H16   S    
C43   C44   A    
C24   C27   A    
O2    C1    A    
C25   C26   A    
C14   H4    S    
C56   H38   S    
C29   C30   A    
C35   H10   S    
C17   C18   A    
C65   H23   S    
C12   H43   S    
C55   C56   A    
C15   H44   S    
O15   C63   A    
O3    C4    A    
C38   C42   A    
C37   H30   S    
C46   C47   A    
C53   C54   A    
O6    V2    S    
O9    V2    S    
C67   H40   S    
C43   C48   A    
C33   C41   A    
N3    H39   S    
O2    V1    S    
C53   H33   S    
C3    C23   S    
N2    C66   S    
C7    C16   S    
O11   V4    S    
O16   V4    S    
C28   C29   A    
C13   C14   A    
C66   H36   S    
C42   H11   S    
O1    C2    A    
C51   C60   S    
C46   H15   S    
N3    C67   S    
O5    V1    S    
O8    C3    A    
C55   N2    S    
C28   C32   A    
O17   V4    S    
C5    C10   A    
C8    C9    A    
O7    V2    S    
C49   H32   S    
C45   C46   A    
C20   C21   A    
O3    V1    S    
V1    O10   S    
N1    H21   S    
O5    C3    A    
C37   C38   A    
C26   H27   S    
C17   H45   S    
C36   H12   S    
O17   V3    S    
C23   C30   A    
O18   V4    S    
C65   H24   S    
C18   C19   A    
C9    C10   A    
C44   H14   S    
C24   C64   S    
C51   C52   A    
C27   C28   A    
C21   N1    S    
C47   H31   S    
C7    C8    A    
C58   H18   S    
C14   C15   A    
C31   C32   A    
C12   C13   A    
C67   H41   S    
C58   C59   A    
C34   C62   S    
C59   H19   S    
C8    H2    S    
C25   C29   A    
O15   V3    S    
C11   N3    S    
N2    H34   S    
C34   C37   A    
