data_mof_unit_39587.cif
_audit_creation_date              2013-03-05T16:10:51-0500
_audit_creation_method            fapswitch 2.2
_symmetry_space_group_name_H-M    P1
_symmetry_Int_Tables_number       1
_space_group_crystal_system       triclinic
_cell_length_a                    10.901766
_cell_length_b                    9.798663
_cell_length_c                    15.827046
_cell_angle_alpha                 91.495018
_cell_angle_beta                  91.185659
_cell_angle_gamma                 91.348044
_cell_volume                      1689.26097948

loop_
_atom_site_label
_atom_site_type_symbol
_atom_site_description
_atom_site_fract_x
_atom_site_fract_y
_atom_site_fract_z
_atom_type_partial_charge
O1    O     O_R   0.317570 0.620260 0.500050 -0.536708
O2    O     O_R   0.317570 0.379740 0.500050 -0.510867
C1    C     C_R   0.260854 0.498238 0.491314 0.890001
O3    O     O_R   0.499890 0.620310 0.379470 -0.569504
O4    O     O_R   0.499890 0.379690 0.379470 -0.571645
C2    C     C_R   0.500125 0.498563 0.341390 0.852441
Cu1   Cu    Cu3+1 0.499860 0.642410 0.500040 1.020274
Cu2   Cu    Cu3+1 0.499860 0.357590 0.500040 1.016484
O5    O     O_R   0.682190 0.620260 0.500020 -0.595409
O6    O     O_R   0.682190 0.379740 0.500020 -0.616580
O7    O     O_R   0.499870 0.620210 0.620600 -0.545499
O8    O     O_R   0.499870 0.379790 0.620600 -0.551025
C3    C     C_R   0.738731 0.500560 0.498678 0.745115
C4    C     C_R   0.499390 0.501378 0.658733 0.785649
C5    C     C_3   0.417365 0.630554 0.053020 0.019150
C6    C     C_3   0.426014 0.354336 0.047769 0.015909
C7    C     C_3   0.438305 0.345206 0.945045 0.480777
C8    C     C_3   0.391027 0.615130 0.951079 0.469787
C9    C     C_1   0.494326 0.503595 0.748117 0.004330
C10   C     C_3   0.492666 0.496570 0.083504 -0.040073
C11   C     C_3   0.480492 0.497100 0.916136 -0.239390
C12   C     C_3   0.614729 0.528947 0.951217 -0.527498
C13   C     C_3   0.630885 0.505646 0.048591 0.509644
C14   C     C_1   0.487943 0.501691 0.823515 0.248402
C15   C     C_1   0.497204 0.495776 0.176341 0.086134
C16   C     C_1   0.499033 0.495797 0.251939 -0.067603
H1    H     H_    0.638674 0.635749 0.937298 0.236296
H2    H     H_    0.685438 0.476679 0.914250 0.271124
C17   C     C_3   0.077777 0.583281 0.561495 -0.368203
C18   C     C_3   0.065647 0.352144 0.498005 -0.323750
H3    H     H_    0.101924 0.690617 0.553664 0.282266
H4    H     H_    0.101086 0.284821 0.449152 0.294308
H5    H     H_    0.127028 0.553203 0.620356 0.209818
H6    H     H_    0.093775 0.316920 0.561589 0.243121
C19   C     C_3   0.939188 0.566928 0.575200 -0.091864
C20   C     C_3   0.923784 0.348151 0.490381 -0.098157
H7    H     H_    0.926577 0.495629 0.628331 0.184255
H8    H     H_    0.890011 0.296067 0.547545 0.174617
H9    H     H_    0.909668 0.684585 0.424672 0.203980
H10   H     H_    0.861270 0.545551 0.358665 0.210037
C21   C     C_3   0.061758 0.543936 0.395520 0.553777
C22   C     C_3   0.120840 0.496526 0.484384 -0.183202
C23   C     C_3   0.876833 0.498998 0.493823 0.022211
C24   C     C_3   0.922243 0.573545 0.413740 -0.401105
C25   C     C_3   0.606928 0.088332 0.553782 0.038216
C26   C     C_3   0.599983 0.924782 0.560774 0.013572
H11   H     H_    0.691474 0.106430 0.517216 0.143447
H12   H     H_    0.689386 0.889537 0.536244 0.145970
C27   C     C_3   0.380348 0.082431 0.533011 0.503017
C28   C     C_3   0.373827 0.916096 0.521994 0.480704
C29   C     C_3   0.525216 0.077707 0.416258 -0.306702
C30   C     C_3   0.539528 0.915154 0.418976 -0.299824
N1    N     N_3   0.500250 0.143650 0.501830 -0.233202
N2    N     N_3   0.500250 0.856350 0.501830 -0.231370
H13   H     H_    0.459542 0.102928 0.365976 0.252213
H14   H     H_    0.497531 0.861812 0.363173 0.244753
H15   H     H_    0.610971 0.123055 0.390813 0.162529
H16   H     H_    0.637136 0.891801 0.406369 0.152552
N3    N     N_R   0.262085 0.577949 0.925047 0.120687
O9    O     O_R   0.169733 0.621032 0.968000 -0.292236
O10   O     O_R   0.239039 0.556821 0.844712 -0.267231
N4    N     N_R   0.321517 0.296942 0.902091 0.156109
O11   O     O_R   0.261909 0.193100 0.932325 -0.253659
O12   O     O_R   0.309398 0.309243 0.820758 -0.232593
C31   C     C_3   0.887697 0.702401 0.607032 -0.759986
H17   H     H_    0.948331 0.749318 0.657682 0.283522
H18   H     H_    0.877862 0.776403 0.555726 0.249813
H19   H     H_    0.799212 0.679998 0.636271 0.212961
C32   C     C_3   0.875817 0.257986 0.413199 -0.641242
H20   H     H_    0.945872 0.236075 0.365631 0.286477
H21   H     H_    0.846442 0.156043 0.434849 0.200169
H22   H     H_    0.797816 0.303726 0.378980 0.236639
N5    N     N_R   0.123376 0.663396 0.360062 0.170765
O13   O     O_R   0.235936 0.651154 0.335635 -0.330109
O14   O     O_R   0.058466 0.757295 0.324834 -0.257043
N6    N     N_R   0.070238 0.436028 0.328810 0.093176
O15   O     O_R   0.993632 0.434339 0.264500 -0.277599
O16   O     O_R   0.174878 0.377589 0.317601 -0.339852
C33   C     C_3   0.652132 0.168347 0.635623 -0.639546
H23   H     H_    0.738773 0.125637 0.659749 0.189226
H24   H     H_    0.684137 0.273074 0.624914 0.229335
H25   H     H_    0.587966 0.169672 0.688110 0.302223
C34   C     C_3   0.620209 0.879788 0.653562 -0.569585
H26   H     H_    0.631469 0.772326 0.662296 0.231260
H27   H     H_    0.712459 0.915071 0.676567 0.171898
H28   H     H_    0.557471 0.921706 0.700168 0.316510
N7    N     N_R   0.361595 0.133109 0.621891 0.155850
O17   O     O_R   0.398570 0.068372 0.687726 -0.283828
O18   O     O_R   0.291195 0.236209 0.636473 -0.271489
N8    N     N_R   0.317049 0.861653 0.600261 0.142883
O19   O     O_R   0.378189 0.803697 0.659259 -0.279400
O20   O     O_R   0.207663 0.899589 0.621057 -0.259948
N9    N     N_R   0.272803 0.128991 0.484608 0.128487
O21   O     O_R   0.164953 0.097656 0.513430 -0.318372
O22   O     O_R   0.279016 0.171094 0.407512 -0.313374
N10   N     N_R   0.284933 0.877408 0.450856 0.168593
O23   O     O_R   0.171184 0.852105 0.468344 -0.284942
O24   O     O_R   0.302906 0.911002 0.373069 -0.306222
C35   C     C_3   0.302039 0.662108 0.108310 -0.563013
H29   H     H_    0.227628 0.585698 0.109884 0.255823
H30   H     H_    0.329167 0.682170 0.175611 0.239713
H31   H     H_    0.257557 0.756855 0.087434 0.275059
C36   C     C_3   0.289282 0.348321 0.076568 -0.621587
H32   H     H_    0.281362 0.383206 0.143413 0.244724
H33   H     H_    0.227388 0.403783 0.034687 0.263440
H34   H     H_    0.248497 0.243510 0.077234 0.275610
C37   C     C_3   0.477603 0.223911 0.091499 -0.600825
H35   H     H_    0.419315 0.131829 0.075669 0.244019
H36   H     H_    0.569289 0.192609 0.072525 0.280698
H37   H     H_    0.478298 0.234527 0.161478 0.219742
C38   C     C_3   0.495197 0.765774 0.073550 -0.660837
H38   H     H_    0.440019 0.859058 0.067240 0.249031
H39   H     H_    0.530034 0.769337 0.139980 0.244717
H40   H     H_    0.571964 0.783670 0.030656 0.264148
N11   N     N_R   0.529586 0.241696 0.918722 0.158916
O25   O     O_R   0.504698 0.112978 0.930451 -0.245761
O26   O     O_R   0.609733 0.267479 0.861139 -0.350546
N12   N     N_R   0.414573 0.749563 0.911612 0.154050
O27   O     O_R   0.336452 0.846535 0.923086 -0.206936
O28   O     O_R   0.505160 0.772751 0.861240 -0.347834
N13   N     N_R   0.707845 0.618481 0.087731 0.126159
O29   O     O_R   0.793480 0.676120 0.043739 -0.268327
O30   O     O_R   0.718741 0.631379 0.169646 -0.323808
N14   N     N_R   0.700121 0.381104 0.065678 0.134897
O31   O     O_R   0.723876 0.350129 0.143802 -0.308123
O32   O     O_R   0.761573 0.319187 0.007004 -0.259174

loop_
_geom_bond_atom_site_label_1
_geom_bond_atom_site_label_2
_geom_bond_distance
_ccdc_geom_bond_type
C5    C8    1.635383 S    
N7    O17   1.296042 A    
C1    C22   1.527734 S    
N9    O21   1.302797 A    
C17   C22   1.555911 S    
C8    C11   1.623794 S    
C37   H36   1.097895 S    
C21   C22   1.618486 S    
C27   N7    1.499149 S    
C38   H38   1.111521 S    
Cu1   Cu2   2.790854 S    
C13   N13   1.486337 S    
C25   C26   1.609386 S    
Cu1   O7    1.926097 S    
C28   N2    1.546129 S    
C19   H7    1.115815 S    
N6    O16   1.301732 A    
O4    C2    1.325358 A    
O7    C4    1.325369 A    
C10   C15   1.469374 S    
C19   C31   1.530657 S    
N11   O25   1.302718 A    
C17   H5    1.115380 S    
N5    O13   1.301454 A    
C32   H21   1.106860 S    
O5    C3    1.337659 A    
N12   O27   1.302545 A    
N4    O12   1.300320 A    
C6    C37   1.578747 S    
C28   N8    1.500966 S    
C38   H39   1.109877 S    
C35   H29   1.092019 S    
C6    C7    1.634400 S    
N11   O26   1.300929 A    
N10   O24   1.300216 A    
C35   H31   1.112110 S    
C37   H35   1.111442 S    
C29   H15   1.113109 S    
C36   H34   1.109876 S    
C19   C23   1.568996 S    
C8    N12   1.491624 S    
Cu2   O8    1.914819 S    
C25   N1    1.528321 S    
N3    O9    1.298994 A    
N9    O22   1.300787 A    
C12   H2    1.104733 S    
C11   C12   1.575794 S    
N5    O14   1.303558 A    
O3    Cu1   1.914899 S    
C30   N2    1.511952 S    
C25   H11   1.111590 S    
C5    C10   1.642451 S    
C26   H12   1.115548 S    
N3    O10   1.301227 A    
C18   H6    1.111848 S    
C29   C30   1.605683 S    
C5    C38   1.579346 S    
N6    O15   1.302704 A    
C25   C33   1.561343 S    
C33   H24   1.094625 S    
C31   H18   1.107910 S    
C15   C16   1.196246 T    
C7    C11   1.627293 S    
C33   H23   1.106845 S    
C29   N1    1.517798 S    
C32   H22   1.108530 S    
C23   C24   1.562816 S    
N4    O11   1.301438 A    
C7    N4    1.491952 S    
C33   H25   1.097043 S    
C6    C36   1.567981 S    
N8    O20   1.303556 A    
C34   H26   1.075140 S    
C10   C13   1.616934 S    
C6    C10   1.638437 S    
C31   H19   1.098496 S    
N10   O23   1.295822 A    
C26   N2    1.546989 S    
C36   H33   1.098891 S    
N13   O29   1.303057 A    
H9    C24   1.109388 S    
C30   H16   1.114602 S    
O3    C2    1.322528 A    
C35   H30   1.110861 S    
O8    C4    1.321592 A    
C31   H17   1.111503 S    
C12   H1    1.101555 S    
N7    O18   1.301740 A    
C37   H37   1.109590 S    
C3    C23   1.509522 S    
C20   C32   1.562601 S    
C7    N11   1.495038 S    
N14   O32   1.301821 A    
Cu1   O5    2.004608 S    
C34   H27   1.106980 S    
O1    Cu1   1.994022 S    
C4    C9    1.416534 S    
O2    Cu2   2.004173 S    
C5    C35   1.578527 S    
O6    C3    1.322680 A    
Cu2   N1    2.097359 S    
O4    Cu2   1.926124 S    
C13   N14   1.477912 S    
C17   C19   1.536050 S    
C18   C20   1.548263 S    
C27   N9    1.475068 S    
C20   H8    1.115176 S    
C9    C14   1.197391 T    
C17   H3    1.089020 S    
C21   N6    1.480430 S    
C18   H4    1.086283 S    
C28   N10   1.505261 S    
N8    O19   1.287795 A    
C2    C16   1.415089 S    
C27   N1    1.522251 S    
C21   C24   1.585939 S    
O2    C1    1.337255 A    
C38   H40   1.102206 S    
C29   H13   1.096367 S    
C32   H20   1.104202 S    
N12   O28   1.301522 A    
N13   O30   1.302029 A    
C21   N5    1.466028 S    
C26   C34   1.557124 S    
C8    N3    1.490830 S    
H10   C24   1.109901 S    
C34   H28   1.094943 S    
Cu2   O6    1.994458 S    
C27   C28   1.634352 S    
C11   C14   1.471645 S    
C36   H32   1.109001 S    
C12   C13   1.570762 S    
C18   C22   1.546374 S    
C20   C23   1.575530 S    
Cu1   N2    2.095681 S    
O1    C1    1.335681 A    
C30   H14   1.100350 S    
N14   O31   1.303095 A    
