data_mof_unit_23870.cif
_audit_creation_date              2012-12-11T14:56:01-0500
_audit_creation_method            fapswitch 2.2
_symmetry_space_group_name_H-M    P1
_symmetry_Int_Tables_number       1
_space_group_crystal_system       triclinic
_cell_length_a                    27.931313
_cell_length_b                    17.331652
_cell_length_c                    18.08109
_cell_angle_alpha                 90.340141
_cell_angle_beta                  137.716505
_cell_angle_gamma                 89.73078
_cell_volume                      5888.89528366

loop_
_atom_site_label
_atom_site_type_symbol
_atom_type_description
_atom_site_fract_x
_atom_site_fract_y
_atom_site_fract_z
_atom_type_partial_charge
C1    C     C_R   0.688485 0.894220 0.791426 0.549052
C2    C     C_3   0.281865 0.700017 0.002884 -0.374893
C3    C     C_3   0.700368 0.716075 0.919065 -0.337545
C4    C     C_3   0.203850 0.795278 0.915371 -0.345969
C5    C     C_3   0.796158 0.204732 0.084625 -0.345850
C6    C     C_3   0.836792 0.737534 0.033361 -0.356575
C7    C     C_3   0.163214 0.262264 0.966485 -0.356331
C8    C     C_3   0.258383 0.761817 0.031248 0.921431
C9    C     C_3   0.741626 0.238199 0.968753 0.921619
C10   C     C_3   0.776623 0.704745 0.915486 0.923677
C11   C     C_3   0.223233 0.295112 0.084343 0.923697
C12   C     C_3   0.716416 0.212298 0.081313 0.956972
C13   C     C_3   0.248892 0.348295 0.051069 -0.368024
C14   C     C_3   0.283590 0.787702 0.918680 0.956968
C15   C     C_3   0.240524 0.250512 0.965163 0.928081
C16   C     C_3   0.759653 0.749585 0.035013 0.928051
C17   C     C_3   0.314896 0.816410 0.065808 -0.094126
C18   C     C_3   0.685114 0.183603 0.934187 -0.094314
C19   C     C_3   0.726928 0.767935 0.886465 -0.080541
C20   C     C_3   0.273092 0.232073 0.113568 -0.080529
C21   C     C_3   0.772499 0.266252 0.113870 -0.095671
C22   C     C_3   0.227507 0.733750 0.886131 -0.095637
C23   C     C_3   0.190343 0.313766 0.934399 -0.085044
C24   C     C_3   0.750970 0.651706 0.948886 -0.367745
C25   C     C_3   0.809673 0.686179 0.065580 -0.084884
C26   C     C_3   0.260985 0.850519 0.948985 -0.357097
C27   C     C_3   0.739023 0.149488 0.051004 -0.357149
C28   C     C_3   0.786021 0.801957 0.003269 -0.372662
C29   C     C_3   0.214150 0.197996 0.996781 -0.372842
C30   C     C_R   0.710921 0.751582 0.603870 -0.263253
C31   C     C_R   0.289156 0.248261 0.396648 -0.263900
C32   C     C_R   0.403707 0.860916 0.666192 -0.364284
C33   C     C_R   0.311517 0.105795 0.208600 0.549036
C34   C     C_R   0.596285 0.139075 0.333796 -0.364308
C35   C     C_R   0.107509 0.358454 0.347650 -0.265367
C36   C     C_R   0.892413 0.641893 0.652212 -0.265945
C37   C     C_R   0.784832 0.263080 0.401217 -0.327404
C38   C     C_R   0.215174 0.736928 0.598813 -0.327337
C39   C     C_R   0.270827 0.374053 0.433534 0.763152
C40   C     C_R   0.729421 0.625692 0.567392 0.763539
C41   C     C_R   0.603913 0.258005 0.275765 0.837928
C42   C     C_R   0.396091 0.741999 0.724257 0.837833
C43   C     C_R   0.895897 0.739229 0.753481 0.735110
C44   C     C_R   0.330276 0.917873 0.183214 0.554747
C45   C     C_R   0.104032 0.261136 0.246394 0.735264
C46   C     C_R   0.252175 0.870460 0.624715 0.837628
C47   C     C_R   0.747827 0.129547 0.375296 0.837716
C48   C     C_R   0.316276 0.317586 0.458354 0.585375
C49   C     C_R   0.683886 0.682068 0.542517 0.585623
C50   C     C_R   0.564308 0.207940 0.273115 0.562235
C51   C     C_R   0.435688 0.792056 0.726882 0.562143
C52   C     C_R   0.925350 0.706392 0.723544 0.588374
C53   C     C_R   0.074468 0.294107 0.276090 0.588372
C54   C     C_R   0.205973 0.816643 0.602767 0.625185
C55   C     C_R   0.669732 0.082137 0.816786 0.554719
C56   C     C_R   0.794030 0.183366 0.397252 0.625217
C57   C     C_R   0.214969 0.240198 0.304397 0.724927
C58   C     C_R   0.785106 0.759799 0.696000 0.724985
C59   C     C_R   0.648344 0.105352 0.346936 0.664900
C60   C     C_R   0.351651 0.894645 0.653056 0.664907
C61   C     C_R   0.842804 0.600831 0.637413 0.635703
C62   C     C_R   0.157325 0.399347 0.362834 0.636121
C63   C     C_R   0.277678 0.711841 0.633693 0.653396
C64   C     C_R   0.722330 0.288165 0.366344 0.653430
C65   C     C_R   0.170786 0.287393 0.297938 -0.493694
C66   C     C_R   0.173271 0.415006 0.816800 0.542853
C67   C     C_R   0.829303 0.712714 0.702375 -0.494086
C68   C     C_R   0.688130 0.154879 0.346861 -0.445711
C69   C     C_R   0.311872 0.845125 0.653151 -0.445657
C70   C     C_R   0.801670 0.643054 0.641103 -0.481569
C71   C     C_R   0.198518 0.356956 0.359426 -0.482137
C72   C     C_R   0.329258 0.765735 0.673469 -0.464570
C73   C     C_R   0.670748 0.234270 0.326558 -0.464581
C74   C     C_R   0.326444 0.105712 0.409036 0.898869
C75   C     C_R   0.673571 0.894233 0.591072 0.899049
C76   C     C_R   0.634965 0.069237 0.499688 0.745978
C77   C     C_R   0.826749 0.584965 0.183199 0.542719
C78   C     C_R   0.365028 0.930752 0.500303 0.745751
C79   C     C_R   0.860101 0.572483 0.492100 0.806373
C80   C     C_R   0.139879 0.427596 0.507884 0.806301
C81   C     C_R   0.173574 0.603197 0.590827 0.850356
C82   C     C_R   0.826429 0.396812 0.409194 0.850293
C83   C     C_R   0.447438 0.839168 0.585468 -0.100028
C84   C     C_R   0.552562 0.160831 0.414532 -0.099924
C85   C     C_R   0.591206 0.803182 0.504235 -0.042666
C86   C     C_R   0.408799 0.196786 0.495883 -0.042546
C87   C     C_R   0.909124 0.305185 0.502481 -0.066236
C88   C     C_R   0.811747 0.394183 0.207222 0.539212
C89   C     C_R   0.090880 0.694820 0.497537 -0.066334
C90   C     C_R   0.055015 0.337668 0.416736 -0.113636
C91   C     C_R   0.944951 0.662426 0.583172 -0.113716
C92   C     C_R   0.586460 0.174463 0.726268 0.540506
C93   C     C_R   0.413549 0.825548 0.273732 0.540351
C94   C     C_R   0.394245 0.195719 0.295042 0.464350
C95   C     C_R   0.605760 0.804288 0.704991 0.464198
C96   C     C_R   0.105162 0.695800 0.705766 0.479716
C97   C     C_R   0.894843 0.304201 0.294233 0.480072
C98   C     C_R   0.910525 0.676224 0.272864 0.542116
C99   C     C_R   0.188254 0.605814 0.792784 0.539095
C100  C     C_R   0.089499 0.323741 0.727126 0.541891
C101  C     C_R   0.677622 0.816943 0.790828 -0.241751
C102  C     C_R   0.322382 0.183077 0.209222 -0.241859
C103  C     C_R   0.355332 0.855889 0.169598 -0.249876
C104  C     C_R   0.644679 0.144125 0.830400 -0.249869
C105  C     C_R   0.149839 0.352420 0.830934 -0.252115
C106  C     C_R   0.850193 0.647527 0.169055 -0.252190
C107  C     C_R   0.823036 0.316930 0.207644 -0.230441
C108  C     C_R   0.176968 0.683068 0.792361 -0.230395
C109  C     C_R   0.338987 0.184728 0.434598 -0.135637
C110  C     C_3   0.718144 0.299992 0.997121 -0.374879
C111  C     C_R   0.661049 0.815179 0.565655 -0.136290
C112  C     C_R   0.593846 0.121173 0.411259 -0.122864
C113  C     C_R   0.406152 0.878822 0.588737 -0.122752
C114  C     C_R   0.899484 0.625337 0.579836 -0.085934
C115  C     C_R   0.100458 0.374841 0.420067 -0.086644
C116  C     C_R   0.160898 0.679946 0.558923 -0.163985
C117  C     C_R   0.839107 0.320063 0.441103 -0.163978
C118  C     C_3   0.661004 0.244901 0.963430 -0.351342
C119  C     C_3   0.339004 0.755105 0.036567 -0.351402
C120  C     C_3   0.299662 0.284078 0.081097 -0.337325
F1    F     F_    0.925226 0.805565 0.813237 -0.581083
F2    F     F_    0.738479 0.927720 0.669254 -0.541296
F3    F     F_    0.692276 0.030890 0.539183 -0.616283
F4    F     F_    0.307677 0.969035 0.460751 -0.616273
F5    F     F_    0.799080 0.537554 0.443052 -0.580889
F6    F     F_    0.200937 0.462478 0.557020 -0.580802
F7    F     F_    0.238918 0.574183 0.680730 -0.556242
F8    F     F_    0.761085 0.425834 0.319306 -0.556332
F9    F     F_    0.245633 0.748415 0.090874 -0.647286
F10   F     F_    0.754376 0.251608 0.909128 -0.647061
F11   F     F_    0.783592 0.682548 0.850309 -0.716025
F12   F     F_    0.074568 0.194953 0.186331 -0.581403
F13   F     F_    0.216099 0.317194 0.149342 -0.715947
F14   F     F_    0.705169 0.200621 0.143094 -0.680251
F15   F     F_    0.294837 0.799370 0.856897 -0.680291
F16   F     F_    0.248887 0.227994 0.901707 -0.634773
F17   F     F_    0.751454 0.772229 0.098644 -0.634791
F18   F     F_    0.613169 0.670178 0.451605 -0.611271
F19   F     F_    0.386987 0.329169 0.549531 -0.611306
F20   F     F_    0.501068 0.769401 0.778252 -0.643440
F21   F     F_    0.498925 0.230591 0.221738 -0.643294
F22   F     F_    0.015946 0.260288 0.238281 -0.635786
F23   F     F_    0.237394 0.946731 0.616051 -0.552106
F24   F     F_    0.983605 0.740598 0.760795 -0.635475
F25   F     F_    0.848077 0.156404 0.416477 -0.630449
F26   F     F_    0.151925 0.843608 0.583538 -0.630474
F27   F     F_    0.762605 0.053276 0.383949 -0.552018
F28   F     F_    0.300367 0.437374 0.499609 -0.567177
F29   F     F_    0.699943 0.562185 0.501631 -0.567312
F30   F     F_    0.578725 0.330173 0.234072 -0.533525
F31   F     F_    0.421282 0.669834 0.765962 -0.533561
F32   F     F_    0.261526 0.072251 0.330806 -0.541325
H1    H     H_    0.484528 0.793741 0.638652 0.254175
H2    H     H_    0.394507 0.740504 0.084226 0.215773
H3    H     H_    0.355621 0.292059 0.126952 0.242783
H4    H     H_    0.644418 0.708247 0.873328 0.242863
H5    H     H_    0.148504 0.810912 0.867596 0.231755
H6    H     H_    0.851503 0.189100 0.132398 0.231725
H7    H     H_    0.893010 0.744304 0.079961 0.196396
H8    H     H_    0.106982 0.255343 0.919751 0.196633
H9    H     H_    0.710470 0.361844 0.974786 0.214640
H10   H     H_    0.289539 0.638166 0.025227 0.214580
H11   H     H_    0.261441 0.410450 0.072767 0.205044
H12   H     H_    0.515469 0.206257 0.361346 0.254147
H13   H     H_    0.738287 0.589569 0.927124 0.205186
H14   H     H_    0.254323 0.912439 0.927585 0.210357
H15   H     H_    0.745684 0.087565 0.072392 0.210423
H16   H     H_    0.799682 0.863843 0.026238 0.214984
H17   H     H_    0.200622 0.136091 0.973871 0.214991
H18   H     H_    0.787893 0.884625 0.878217 0.359582
H19   H     H_    0.212102 0.115387 0.121770 0.359546
H20   H     H_    0.235276 0.927346 0.034040 0.340701
H21   H     H_    0.764747 0.072704 0.965941 0.340713
H22   H     H_    0.273127 0.412939 0.955798 0.347569
H23   H     H_    0.568277 0.748247 0.492465 0.265060
H24   H     H_    0.726852 0.587168 0.044360 0.347602
H25   H     H_    0.711787 0.384538 0.117596 0.357835
H26   H     H_    0.288216 0.615456 0.882419 0.357842
H27   H     H_    0.581928 0.276399 0.764842 0.351347
H28   H     H_    0.418105 0.723623 0.235161 0.351316
H29   H     H_    0.389836 0.306522 0.301923 0.347886
H30   H     H_    0.610177 0.693472 0.698228 0.348041
H31   H     H_    0.109891 0.805886 0.695188 0.368955
H32   H     H_    0.890130 0.194112 0.304807 0.368903
H33   H     H_    0.915520 0.776797 0.233119 0.345825
H34   H     H_    0.431691 0.251773 0.507718 0.264724
H35   H     H_    0.084721 0.223007 0.766791 0.345986
H36   H     H_    0.859179 0.794566 0.847039 0.371827
H37   H     H_    0.141001 0.205674 0.153256 0.372190
H38   H     H_    0.376541 0.999127 0.654832 0.328324
H39   H     H_    0.623442 0.000868 0.345121 0.328358
H40   H     H_    0.188633 0.499962 0.366158 0.361838
H41   H     H_    0.812044 0.500053 0.634845 0.361542
H42   H     H_    0.760253 0.379284 0.457175 0.340092
H43   H     H_    0.239759 0.620724 0.542863 0.340004
H44   H     H_    0.933618 0.249358 0.525585 0.278609
H45   H     H_    0.066388 0.750647 0.474446 0.278624
H46   H     H_    0.016793 0.293697 0.360225 0.256238
H47   H     H_    0.983187 0.706393 0.639625 0.256440
H48   H     H_    0.605500 0.259499 0.915764 0.215916
N1    N     N_R   0.625380 0.928280 0.709340 -0.131997
N2    N     N_R   0.613900 0.929750 0.547530 -0.181546
N3    N     N_R   0.613900 0.070250 0.547530 -0.114403
N4    N     N_R   0.386100 0.929750 0.452470 -0.114391
N5    N     N_R   0.886100 0.570250 0.452470 -0.132745
N6    N     N_R   0.113900 0.429750 0.547530 -0.132664
N7    N     N_R   0.113900 0.570250 0.547530 -0.172637
N8    N     N_R   0.886100 0.429750 0.452470 -0.172586
N9    N     N_R   0.437800 0.869550 0.507970 -0.088546
N10   N     N_R   0.562200 0.130450 0.492030 -0.088544
N11   N     N_R   0.562200 0.869550 0.492030 -0.135165
N12   N     N_R   0.374620 0.071720 0.290660 -0.131952
N13   N     N_R   0.437800 0.130450 0.507970 -0.135100
N14   N     N_R   0.937800 0.369550 0.507970 -0.123581
N15   N     N_R   0.062200 0.630450 0.492030 -0.123578
N16   N     N_R   0.062200 0.369550 0.492030 -0.090318
N17   N     N_R   0.937800 0.630450 0.507970 -0.090450
N18   N     N_R   0.573690 0.128980 0.653840 -0.111174
N19   N     N_R   0.426310 0.871020 0.346160 -0.111162
N20   N     N_R   0.426310 0.128980 0.346160 -0.129375
N21   N     N_R   0.573690 0.871020 0.653840 -0.129398
N22   N     N_R   0.073690 0.628980 0.653840 -0.132441
N23   N     N_R   0.374620 0.928280 0.290660 -0.107285
N24   N     N_R   0.926310 0.371020 0.346160 -0.132386
N25   N     N_R   0.926310 0.628980 0.346160 -0.108670
N26   N     N_R   0.073690 0.371020 0.653840 -0.108719
N27   N     N_R   0.625380 0.071720 0.709340 -0.107310
N28   N     N_R   0.125380 0.428280 0.709340 -0.110622
N29   N     N_R   0.874620 0.571720 0.290660 -0.110613
N30   N     N_R   0.874620 0.428280 0.290660 -0.132973
N31   N     N_R   0.125380 0.571720 0.709340 -0.132996
N32   N     N_R   0.386100 0.070250 0.452470 -0.181649
Ni1   Ni    Ni4+2 0.616560 0.000000 0.627280 0.327300
Ni2   Ni    Ni4+2 0.383440 1.000000 0.372720 0.327274
Ni3   Ni    Ni4+2 0.116560 0.500000 0.627280 0.330761
Ni4   Ni    Ni4+2 0.883440 0.500000 0.372720 0.330689
Ni5   Ni    Ni4+2 0.497990 0.870580 0.500000 0.261477
Ni6   Ni    Ni4+2 0.502010 0.129420 0.500000 0.261531
Ni7   Ni    Ni4+2 0.997990 0.370580 0.500000 0.277437
Ni8   Ni    Ni4+2 0.002010 0.629420 0.500000 0.277467
O1    O     O_3   0.750964 0.925414 0.836716 -0.608099
O2    O     O_3   0.446667 0.755466 0.301879 -0.701633
O3    O     O_3   0.427038 0.266007 0.343154 -0.724551
O4    O     O_3   0.572974 0.733990 0.656927 -0.724492
O5    O     O_3   0.072543 0.765782 0.656238 -0.693976
O6    O     O_3   0.927473 0.234220 0.343748 -0.694137
O7    O     O_3   0.943265 0.746329 0.300542 -0.725256
O8    O     O_3   0.056777 0.253620 0.699434 -0.725420
O9    O     O_3   0.812567 0.813636 0.775844 -0.618461
O10   O     O_3   0.187479 0.186442 0.224450 -0.618184
O11   O     O_3   0.336394 0.972481 0.633643 -0.580944
O12   O     O_3   0.249034 0.074599 0.163298 -0.608072
O13   O     O_3   0.663594 0.027514 0.366327 -0.580898
O14   O     O_3   0.167297 0.477201 0.386767 -0.664616
O15   O     O_3   0.832926 0.522975 0.613526 -0.664265
O16   O     O_3   0.714042 0.362540 0.383271 -0.549719
O17   O     O_3   0.285967 0.637464 0.616773 -0.549784
O18   O     O_3   0.266242 0.955469 0.104133 -0.672628
O19   O     O_3   0.733776 0.044558 0.895867 -0.672551
O20   O     O_3   0.239224 0.448835 0.893814 -0.662727
O21   O     O_3   0.760784 0.551160 0.106189 -0.662821
O22   O     O_3   0.748411 0.425618 0.158611 -0.597947
O23   O     O_3   0.251590 0.574377 0.841401 -0.597872
O24   O     O_3   0.553359 0.244556 0.698124 -0.701565

loop_
_geom_bond_atom_site_label_1
_geom_bond_atom_site_label_2
_ccdc_geom_bond_type
C61   C70   A    
C16   C28   S    
C88   N30   A    
C91   N17   A    
C7    C29   S    
C3    C16   S    
C35   C53   A    
C75   F2    S    
C34   C112  S    
C83   C113  A    
H18   O1    S    
C80   N6    A    
C16   F17   S    
N1    N21   A    
N2    N11   A    
C4    C8    S    
C118  H48   S    
C93   C103  A    
C74   C109  A    
C82   N8    A    
C6    H7    S    
C76   N3    A    
C88   O22   S    
C22   C108  S    
H25   O22   S    
C9    F10   S    
C7    C11   S    
C99   C108  A    
N5    N17   A    
C100  C105  A    
H39   O13   S    
C40   C70   A    
C39   C48   A    
C17   C26   S    
H41   O15   S    
C77   C106  A    
N9    Ni5   S    
C87   H44   S    
H21   O19   S    
C66   O20   S    
H26   O23   S    
C11   F13   S    
H22   O20   S    
C33   N12   A    
C84   N10   A    
C43   C52   A    
C6    C25   S    
C59   O13   S    
C14   F15   S    
C30   C111  S    
C40   C49   A    
C23   C105  S    
C16   C25   S    
C4    C22   S    
C15   C120  S    
C13   C23   S    
C53   F22   S    
H31   O5    S    
C55   N27   A    
C56   F25   S    
C10   F11   S    
H38   O11   S    
C46   C69   A    
N4    Ni2   S    
C42   F31   S    
C83   H1    S    
C5    C27   S    
C37   C56   A    
N1    Ni1   S    
C44   C103  A    
C6    C28   S    
N28   Ni3   S    
C90   N16   A    
N4    N9    A    
C62   C71   A    
C60   O11   S    
C64   C73   A    
N11   Ni5   S    
N3    N10   A    
C3    C19   S    
C32   C113  S    
C78   F4    S    
C18   C118  S    
C36   C52   A    
C50   F21   S    
C37   C117  S    
C95   O4    S    
C89   N15   A    
C98   N25   A    
C91   H47   S    
C51   F20   S    
C15   C23   S    
C96   C108  A    
C89   C116  A    
C1    N1    A    
C61   O15   S    
C12   F14   S    
C49   F18   S    
C81   F7    S    
C76   F3    S    
N20   Ni6   S    
C3    C24   S    
H43   O17   S    
C40   F29   S    
C37   C64   A    
C74   F32   S    
C85   N11   A    
N32   Ni2   S    
C75   N2    A    
C110  H9    S    
C25   C106  S    
C15   C29   S    
C20   C29   S    
C4    C26   S    
N27   Ni1   S    
N15   Ni8   S    
C47   F27   S    
C11   C20   S    
C34   C50   A    
N18   Ni6   S    
C41   C73   A    
C12   C27   S    
N7    Ni3   S    
C33   C102  A    
C14   C119  S    
C86   C109  A    
C24   C25   S    
C74   N32   A    
N13   Ni6   S    
C19   C101  S    
C97   O6    S    
C88   C107  A    
C28   H16   S    
C18   C104  S    
C41   F30   S    
N12   N20   A    
C10   C24   S    
C68   C73   A    
C65   C71   A    
N19   N23   A    
H19   O12   S    
C45   C53   A    
C120  H3    S    
N25   N29   A    
C92   N18   A    
N21   Ni5   S    
H37   O10   S    
C97   C107  A    
C39   F28   S    
C33   O12   S    
C100  N26   A    
C94   O3    S    
C77   N29   A    
C32   C51   A    
C5    C9    S    
H35   O8    S    
C100  O8    S    
N23   Ni2   S    
N24   N30   A    
C59   C68   A    
C42   C72   A    
C38   C116  S    
H27   O24   S    
C9    C18   S    
C92   C104  A    
N12   Ni2   S    
C4    H5    S    
C38   C54   A    
C80   C115  A    
C10   C19   S    
C76   C112  A    
C46   C54   A    
N7    N15   A    
C31   C109  S    
C5    C21   S    
C95   N21   A    
C44   N23   A    
C84   C112  A    
C90   C115  A    
C14   C26   S    
C93   O2    S    
C35   C115  S    
C110  C118  S    
N17   Ni8   S    
C82   F8    S    
C92   O24   S    
N13   N32   A    
C77   O21   S    
C12   C118  S    
H33   O7    S    
C1    O1    S    
C21   C107  S    
C30   C49   A    
N22   N31   A    
C86   H34   S    
C119  H2    S    
C96   N22   A    
C31   C48   A    
C52   F24   S    
C19   C28   S    
C34   C59   A    
C83   N9    A    
C78   C113  A    
C94   N20   A    
C32   C60   A    
C66   C105  A    
H20   O18   S    
C36   C61   A    
C7    H8    S    
C1    C101  A    
C41   C50   A    
C20   C120  S    
C13   C120  S    
C38   C63   A    
C58   O9    S    
N6    N16   A    
C9    C110  S    
C62   O14   S    
C43   F1    S    
C26   H14   S    
N8    N14   A    
N26   Ni7   S    
C48   F19   S    
N16   Ni7   S    
H32   O6    S    
H40   O14   S    
N10   Ni6   S    
N5    Ni4   S    
C2    C8    S    
C18   C27   S    
C57   C65   A    
C85   C111  A    
H30   O4    S    
C6    C10   S    
C99   N31   A    
C2    C119  S    
C97   N24   A    
C87   C117  A    
C46   F23   S    
C15   F16   S    
H28   O2    S    
C44   O18   S    
C89   H45   S    
C90   H46   S    
C42   C51   A    
C84   H12   S    
C75   C111  A    
C8    C17   S    
C98   C106  A    
C91   C114  A    
C81   N7    A    
C54   F26   S    
C93   N19   A    
C67   C70   A    
N30   Ni4   S    
C31   C57   A    
N29   Ni4   S    
C63   O17   S    
C96   O5    S    
C17   C103  S    
C86   N13   A    
C98   O7    S    
C79   N5    A    
C2    C22   S    
N2    Ni1   S    
C45   C65   A    
C11   C13   S    
C14   C22   S    
C47   C68   A    
C80   F6    S    
C60   C69   A    
C55   C104  A    
C7    C23   S    
N19   Ni5   S    
C30   C58   A    
C81   C116  A    
N22   Ni8   S    
C3    H4    S    
C85   H23   S    
C87   N14   A    
H42   O16   S    
C36   C114  S    
C24   H13   S    
C35   C62   A    
C55   O19   S    
H24   O21   S    
C79   F5    S    
H36   O9    S    
N24   Ni7   S    
C17   C119  S    
C99   O23   S    
C12   C21   S    
N3    Ni1   S    
C95   C101  A    
C58   C67   A    
C78   N4    A    
C20   C102  S    
C63   C72   A    
C94   C102  A    
C45   F12   S    
C43   C67   A    
C5    H6    S    
C79   C114  A    
C66   N28   A    
C8    F9    S    
N8    Ni4   S    
N25   Ni8   S    
C39   C71   A    
N6    Ni3   S    
C21   C110  S    
N31   Ni3   S    
N18   N27   A    
C69   C72   A    
C82   C117  A    
C29   H17   S    
C57   O10   S    
C2    H10   S    
N14   Ni7   S    
C13   H11   S    
N26   N28   A    
H29   O3    S    
C27   H15   S    
C47   C56   A    
C64   O16   S    
