data_mof_unit_63646.cif
_audit_creation_date              2012-12-10T18:22:26-0500
_audit_creation_method            fapswitch 2.2
_symmetry_space_group_name_H-M    P1
_symmetry_Int_Tables_number       1
_space_group_crystal_system       triclinic
_cell_length_a                    47.871493
_cell_length_b                    35.652643
_cell_length_c                    32.026108
_cell_angle_alpha                 89.99983
_cell_angle_beta                  131.848911
_cell_angle_gamma                 90.00013
_cell_volume                      40716.9059613

loop_
_atom_site_label
_atom_site_type_symbol
_atom_type_description
_atom_site_fract_x
_atom_site_fract_y
_atom_site_fract_z
_atom_type_partial_charge
C1    C     C_R   0.072381 0.000023 0.572281 0.792195
C2    C     C_R   0.927619 0.000023 0.427718 0.792610
C3    C     C_R   0.572381 0.500023 0.572281 0.792607
C4    C     C_R   0.427619 0.500023 0.427719 0.792264
C5    C     C_3   0.958996 0.997773 0.184533 -0.436377
C6    C     C_3   0.041063 0.000097 0.815526 -0.436416
C7    C     C_3   0.458955 0.501210 0.184493 -0.436429
C8    C     C_3   0.541058 0.499308 0.815521 -0.436386
C9    C     C_3   0.958886 0.997552 0.233199 0.191550
C10   C     C_3   0.041185 0.999884 0.766872 0.191558
C11   C     C_3   0.458828 0.501001 0.233142 0.191558
C12   C     C_3   0.541176 0.499092 0.766863 0.191547
C13   C     C_1   0.999811 0.000123 0.162375 -0.056215
C14   C     C_1   0.000181 0.000128 0.837617 -0.056213
C15   C     C_1   0.499822 0.500130 0.162386 -0.056212
C16   C     C_1   0.500184 0.500126 0.837620 -0.056213
C17   C     C_1   0.999920 0.000145 0.337366 0.027016
C18   C     C_1   0.000069 0.000147 0.662623 0.027020
C19   C     C_1   0.499937 0.500148 0.337382 0.027020
C20   C     C_1   0.500073 0.500146 0.662627 0.027015
C21   C     C_1   0.999978 0.000041 0.375095 -0.146376
C22   C     C_1   0.000018 0.000041 0.624901 -0.146379
C23   C     C_1   0.499984 0.500042 0.375101 -0.146384
C24   C     C_1   0.500019 0.500041 0.624902 -0.146384
C25   C     C_R   0.327146 0.000176 0.866539 0.436975
C26   C     C_R   0.672854 0.000166 0.133460 0.436984
C27   C     C_R   0.827146 0.500175 0.866539 0.436967
C28   C     C_R   0.172854 0.500172 0.133461 0.436958
C29   C     C_R   0.366389 0.000178 0.904816 -0.173587
C30   C     C_R   0.633610 0.000169 0.095184 -0.173556
C31   C     C_R   0.866389 0.500177 0.904816 -0.173519
C32   C     C_R   0.133611 0.500175 0.095184 -0.173546
C33   C     C_R   0.386132 0.000151 0.886515 -0.126794
C34   C     C_R   0.613868 0.000150 0.113485 -0.126813
C35   C     C_R   0.886132 0.500150 0.886515 -0.126820
C36   C     C_R   0.113868 0.500150 0.113485 -0.126803
C37   C     C_R   0.365932 0.000125 0.828756 -0.193817
C38   C     C_R   0.634068 0.000134 0.171244 -0.193797
C39   C     C_R   0.865932 0.500126 0.828756 -0.193825
C40   C     C_R   0.134068 0.500128 0.171244 -0.193842
C41   C     C_R   0.326799 0.000122 0.790081 -0.197303
C42   C     C_R   0.673201 0.000130 0.209919 -0.197213
C43   C     C_R   0.826799 0.500122 0.790081 -0.197166
C44   C     C_R   0.173201 0.500125 0.209919 -0.197241
C45   C     C_R   0.000020 0.000017 0.419965 0.828729
C46   C     C_R   0.999980 0.000016 0.580035 0.828787
C47   C     C_R   0.500019 0.500017 0.419965 0.828812
C48   C     C_R   0.499980 0.500016 0.580035 0.828775
C49   C     C_R   0.307140 0.000144 0.808326 0.033348
C50   C     C_R   0.692860 0.000144 0.191674 0.033291
C51   C     C_R   0.807140 0.500144 0.808326 0.033282
C52   C     C_R   0.192860 0.500144 0.191674 0.033330
C53   C     C_1   0.266756 0.000127 0.766731 -0.062840
C54   C     C_1   0.733244 0.000127 0.233269 -0.062745
C55   C     C_1   0.766756 0.500126 0.766731 -0.062727
C56   C     C_1   0.233244 0.500127 0.233269 -0.062807
C57   C     C_1   0.232987 0.000109 0.732338 -0.055258
C58   C     C_1   0.767013 0.000109 0.267662 -0.055068
C59   C     C_1   0.732987 0.500109 0.732338 -0.055063
C60   C     C_1   0.267012 0.500109 0.267663 -0.055223
C61   C     C_R   0.173079 0.966111 0.672319 -0.152359
C62   C     C_R   0.826921 0.966111 0.327641 -0.152039
C63   C     C_R   0.673079 0.466111 0.672256 -0.152102
C64   C     C_R   0.326921 0.466111 0.327725 -0.152370
C65   C     C_R   0.133892 0.966048 0.633386 -0.186364
C66   C     C_R   0.866108 0.966048 0.366574 -0.185797
C67   C     C_R   0.633892 0.466048 0.633324 -0.185932
C68   C     C_R   0.366108 0.466048 0.366657 -0.186394
C69   C     C_R   0.113850 0.000044 0.613459 -0.035437
C70   C     C_R   0.886149 0.000044 0.386541 -0.035286
C71   C     C_R   0.613850 0.500045 0.613458 -0.035295
C72   C     C_R   0.386149 0.500045 0.386542 -0.035425
C73   C     C_R   0.133855 0.034063 0.633233 -0.177831
C74   C     C_R   0.866145 0.034062 0.366807 -0.177720
C75   C     C_R   0.633855 0.534063 0.633293 -0.177590
C76   C     C_R   0.366145 0.534063 0.366726 -0.177691
C77   C     C_R   0.173042 0.034042 0.672164 -0.148603
C78   C     C_R   0.826958 0.034042 0.327877 -0.148418
C79   C     C_R   0.673042 0.534042 0.672225 -0.148347
C80   C     C_R   0.326958 0.534042 0.327794 -0.148507
C81   C     C_R   0.192698 0.000087 0.691766 0.142221
C82   C     C_R   0.807302 0.000087 0.308234 0.142223
C83   C     C_R   0.692698 0.500087 0.691765 0.142222
C84   C     C_R   0.307302 0.500087 0.308235 0.142217
C85   C     C_R   1.000000 0.072297 0.000000 0.787914
C86   C     C_R   0.500000 0.572297 0.000000 0.787915
C87   C     C_3   0.018610 0.036849 0.292607 0.264051
C88   C     C_3   0.979329 0.035731 0.705339 0.263912
C89   C     C_3   0.521633 0.535155 0.295620 0.263846
C90   C     C_3   0.480022 0.536124 0.706029 0.263966
C91   C     C_R   0.999979 0.999922 0.080038 0.832142
C92   C     C_R   0.000020 0.999922 0.919962 0.832130
C93   C     C_R   0.499980 0.499922 0.080038 0.832120
C94   C     C_R   0.500020 0.499922 0.919962 0.832131
C95   C     C_R   0.000000 0.927536 1.000000 0.788924
C96   C     C_R   0.500000 0.427537 1.000000 0.788909
C97   C     C_R   0.500000 0.927662 0.000000 0.796165
C98   C     C_R   0.000000 0.427662 0.000000 0.796158
C99   C     C_R   0.427608 0.000141 0.927674 0.820628
C100  C     C_R   0.572392 0.000141 0.072326 0.820644
C101  C     C_R   0.927608 0.500141 0.927674 0.820648
C102  C     C_R   0.072392 0.500141 0.072326 0.820632
C103  C     C_R   0.500000 0.072531 1.000000 0.845980
C104  C     C_R   1.000000 0.572532 1.000000 0.845994
C105  C     C_R   0.500048 0.826902 0.962242 -0.153690
C106  C     C_R   0.499952 0.826902 0.037759 -0.153705
C107  C     C_R   0.000050 0.326902 0.962244 -0.153708
C108  C     C_R   0.999949 0.326902 0.037756 -0.153689
C109  C     C_R   0.500048 0.866113 0.962197 -0.186809
C110  C     C_R   0.499952 0.866113 0.037804 -0.186810
C111  C     C_R   0.000050 0.366113 0.962199 -0.186812
C112  C     C_R   0.999949 0.366113 0.037801 -0.186809
C113  C     C_R   0.500000 0.886155 0.000000 -0.039149
C114  C     C_R   1.000000 0.386155 0.000000 -0.039150
C115  C     C_R   0.500000 0.807233 0.000000 0.143151
C116  C     C_R   0.000000 0.307233 0.000000 0.143145
C117  C     C_1   0.500000 0.766888 0.000000 -0.060311
C118  C     C_1   1.000000 0.266888 0.000000 -0.060307
C119  C     C_3   0.021387 0.965753 0.295572 -0.479847
C120  C     C_3   0.980588 0.964592 0.706396 -0.479660
C121  C     C_3   0.518445 0.464076 0.292640 -0.479580
C122  C     C_3   0.479910 0.464973 0.705721 -0.479726
C123  C     C_1   1.000000 0.233085 0.000000 -0.060554
C124  C     C_1   0.500000 0.733085 0.000000 -0.060560
C125  C     C_R   0.966047 0.173072 0.966048 -0.155343
C126  C     C_R   0.033953 0.173072 0.033953 -0.155329
C127  C     C_R   0.466047 0.673072 0.966050 -0.155340
C128  C     C_R   0.533953 0.673072 0.033951 -0.155349
C129  C     C_R   0.966006 0.133860 0.966006 -0.188740
C130  C     C_R   0.033994 0.133860 0.033994 -0.188734
C131  C     C_R   0.466006 0.633860 0.966009 -0.188729
C132  C     C_R   0.533994 0.633860 0.033992 -0.188737
C133  C     C_R   0.000000 0.113812 0.000000 -0.037286
C134  C     C_R   0.500000 0.613812 0.000000 -0.037304
C135  C     C_R   1.000000 0.192740 0.000000 0.143585
C136  C     C_R   0.500000 0.692741 0.000000 0.143568
C137  C     C_R   0.499053 0.173378 0.037138 0.366069
C138  C     C_R   0.500947 0.173378 0.962861 0.366068
C139  C     C_R   0.999547 0.673379 0.037642 0.366084
C140  C     C_R   0.000453 0.673379 0.962357 0.366083
C141  C     C_R   0.499077 0.133919 0.036883 -0.293109
C142  C     C_R   0.500923 0.133919 0.963117 -0.293115
C143  C     C_R   0.999559 0.633920 0.037374 -0.293096
C144  C     C_R   0.000441 0.633920 0.962625 -0.293091
C145  C     C_R   0.500000 0.113998 1.000000 -0.116113
C146  C     C_R   1.000000 0.613999 1.000000 -0.116111
C147  C     C_R   0.500000 0.192903 1.000000 0.048171
C148  C     C_R   1.000000 0.692903 0.999999 0.048172
C149  C     C_1   0.500000 0.233291 0.999999 0.126393
C150  C     C_1   1.000000 0.733292 0.999999 0.126413
C151  C     C_3   0.022407 0.966520 0.248119 -0.392821
C152  C     C_3   0.979526 0.965298 0.753808 -0.392893
C153  C     C_3   0.519525 0.464753 0.245246 -0.392936
C154  C     C_3   0.478862 0.465700 0.753146 -0.392883
C155  C     C_1   1.000000 0.767043 0.999999 -0.038091
C156  C     C_1   0.500000 0.267043 0.999999 -0.038110
C157  C     C_R   0.966036 0.826912 0.966262 -0.144867
C158  C     C_R   0.033964 0.826912 0.033737 -0.144905
C159  C     C_R   0.466035 0.326912 0.966090 -0.144919
C160  C     C_R   0.533965 0.326912 0.033909 -0.144891
C161  C     C_R   0.965993 0.866090 0.966217 -0.187629
C162  C     C_R   0.034007 0.866090 0.033782 -0.187677
C163  C     C_R   0.465992 0.366090 0.966046 -0.187688
C164  C     C_R   0.534008 0.366090 0.033953 -0.187649
C165  C     C_R   1.000000 0.886096 1.000000 -0.037992
C166  C     C_R   0.500000 0.386096 1.000000 -0.037979
C167  C     C_R   0.000000 0.807299 0.999999 0.132737
C168  C     C_R   0.500000 0.307298 0.999999 0.132751
C169  C     C_1   0.999885 0.000008 0.124775 -0.175624
C170  C     C_1   0.000113 0.000010 0.875223 -0.175623
C171  C     C_1   0.499888 0.500011 0.124778 -0.175618
C172  C     C_1   0.500114 0.500010 0.875224 -0.175621
C173  C     C_3   0.999829 0.000386 0.291169 0.173167
C174  C     C_3   0.000147 0.000391 0.708807 0.173152
C175  C     C_3   0.499865 0.500394 0.291204 0.173153
C176  C     C_3   0.500155 0.500389 0.708816 0.173161
C177  C     C_3   0.017698 0.036986 0.242963 -0.448975
C178  C     C_3   0.980232 0.035918 0.754974 -0.448835
C179  C     C_3   0.520735 0.535366 0.245989 -0.448769
C180  C     C_3   0.480928 0.536294 0.755668 -0.448886
C181  C     C_3   0.999722 0.000324 0.208342 0.224389
C182  C     C_3   0.000259 0.000334 0.791638 0.224366
C183  C     C_3   0.499750 0.500339 0.208371 0.224357
C184  C     C_3   0.500265 0.500331 0.791645 0.224376
Cu1   Cu    Cu3+1 0.000000 0.037300 0.500000 0.978826
Cu2   Cu    Cu3+1 0.500000 0.537300 0.500000 0.978808
Cu3   Cu    Cu3+1 0.000000 0.962740 0.500000 0.954698
Cu4   Cu    Cu3+1 0.500000 0.462740 0.500000 0.954605
Cu5   Cu    Cu3+1 0.037280 0.999890 0.037280 0.953978
Cu6   Cu    Cu3+1 0.962720 0.999890 0.962720 0.954114
Cu7   Cu    Cu3+1 0.537280 0.499890 0.037280 0.954124
Cu8   Cu    Cu3+1 0.462720 0.499890 0.962720 0.954009
Cu9   Cu    Cu3+1 0.500020 0.000110 0.958700 0.951710
Cu10  Cu    Cu3+1 0.499980 0.000110 0.041300 0.951714
Cu11  Cu    Cu3+1 0.000020 0.500110 0.958700 0.951728
Cu12  Cu    Cu3+1 0.999980 0.500110 0.041300 0.951732
H1    H     H_    0.046438 0.040261 0.258573 0.187509
H2    H     H_    0.951353 0.037558 0.739225 0.187588
H3    H     H_    0.549648 0.536221 0.261772 0.187624
H4    H     H_    0.452085 0.538489 0.739955 0.187558
H5    H     H_    0.002466 0.061527 0.287699 0.141893
H6    H     H_    0.994048 0.061285 0.708825 0.141896
H7    H     H_    0.507614 0.561099 0.292830 0.141896
H8    H     H_    0.495230 0.561389 0.710004 0.141896
H9    H     H_    0.001185 0.061564 0.215468 0.148205
H10   H     H_    0.995326 0.061393 0.781053 0.148143
H11   H     H_    0.506338 0.561241 0.220605 0.148120
H12   H     H_    0.496510 0.561473 0.782233 0.148167
H13   H     H_    0.945565 0.971603 0.159479 0.162352
H14   H     H_    0.055956 0.974731 0.842037 0.162402
H15   H     H_    0.443379 0.476257 0.157302 0.162433
H16   H     H_    0.555460 0.473660 0.841542 0.162392
H17   H     H_    0.381436 0.000199 0.949208 0.178141
H18   H     H_    0.618564 0.000184 0.050792 0.178154
H19   H     H_    0.881436 0.500198 0.949208 0.178164
H20   H     H_    0.118564 0.500194 0.050792 0.178151
H21   H     H_    0.311794 0.000098 0.745687 0.155207
H22   H     H_    0.688207 0.000113 0.254313 0.155293
H23   H     H_    0.811794 0.500099 0.745687 0.155336
H24   H     H_    0.188206 0.500103 0.254313 0.155265
H25   H     H_    0.188066 0.939673 0.687338 0.136504
H26   H     H_    0.811934 0.939673 0.312590 0.136556
H27   H     H_    0.688065 0.439673 0.687227 0.136529
H28   H     H_    0.311934 0.439673 0.312739 0.136492
H29   H     H_    0.119331 0.939396 0.618984 0.155756
H30   H     H_    0.880669 0.939396 0.380944 0.155798
H31   H     H_    0.619331 0.439396 0.618872 0.155772
H32   H     H_    0.380669 0.439396 0.381093 0.155742
H33   H     H_    0.119265 0.060699 0.618707 0.158577
H34   H     H_    0.880735 0.060699 0.381365 0.158465
H35   H     H_    0.619266 0.560699 0.618818 0.158482
H36   H     H_    0.380734 0.560699 0.381217 0.158579
H37   H     H_    0.500085 0.811934 0.932835 0.135332
H38   H     H_    0.499915 0.811934 0.067166 0.135313
H39   H     H_    0.000090 0.311934 0.932839 0.135320
H40   H     H_    0.999910 0.311934 0.067162 0.135344
H41   H     H_    0.500086 0.880699 0.932577 0.155608
H42   H     H_    0.499914 0.880699 0.067423 0.155602
H43   H     H_    0.000090 0.380699 0.932582 0.155605
H44   H     H_    0.999910 0.380699 0.067419 0.155613
H45   H     H_    0.939367 0.119283 0.939368 0.155816
H46   H     H_    0.060633 0.119283 0.060632 0.155804
H47   H     H_    0.439367 0.619283 0.939373 0.155820
H48   H     H_    0.560633 0.619283 0.060628 0.155832
H49   H     H_    0.498334 0.118840 0.065491 0.163356
H50   H     H_    0.501665 0.118840 0.934508 0.163354
H51   H     H_    0.999203 0.618842 0.066378 0.163353
H52   H     H_    0.000797 0.618842 0.933622 0.163353
H53   H     H_    0.939599 0.811929 0.940005 0.138116
H54   H     H_    0.060401 0.811930 0.059994 0.138092
H55   H     H_    0.439598 0.311930 0.939696 0.138085
H56   H     H_    0.560402 0.311930 0.060303 0.138104
H57   H     H_    0.939355 0.880668 0.939760 0.156212
H58   H     H_    0.060645 0.880669 0.060239 0.156181
H59   H     H_    0.439353 0.380668 0.939452 0.156175
H60   H     H_    0.560647 0.380668 0.060548 0.156199
H61   H     H_    0.007384 0.939511 0.292177 0.171272
H62   H     H_    0.996056 0.939186 0.711251 0.171271
H63   H     H_    0.502293 0.439101 0.287104 0.171261
H64   H     H_    0.494886 0.439275 0.710085 0.171267
H65   H     H_    0.052028 0.968374 0.266910 0.177913
H66   H     H_    0.949847 0.965469 0.734961 0.177928
H67   H     H_    0.549198 0.464118 0.264087 0.177923
H68   H     H_    0.449192 0.466443 0.734307 0.177913
H69   H     H_    0.946917 0.970238 0.231591 0.155576
H70   H     H_    0.054683 0.973292 0.770004 0.155507
H71   H     H_    0.444613 0.474786 0.229296 0.155475
H72   H     H_    0.554160 0.472245 0.769482 0.155530
H73   H     H_    0.942105 0.021548 0.155310 0.182808
H74   H     H_    0.056580 0.024791 0.843378 0.182695
H75   H     H_    0.444114 0.526316 0.157314 0.182646
H76   H     H_    0.557047 0.523698 0.843844 0.182740
O1    O     O_R   0.054380 0.031500 0.554380 -0.585091
O2    O     O_R   0.945620 0.031500 0.445620 -0.585208
O3    O     O_R   0.554380 0.531500 0.554380 -0.585179
O4    O     O_R   0.445620 0.531500 0.445620 -0.585081
O5    O     O_R   0.445640 0.000120 0.910750 -0.585321
O6    O     O_R   0.554360 0.000120 0.089250 -0.585311
O7    O     O_R   0.945640 0.500120 0.910750 -0.585353
O8    O     O_R   0.054360 0.500120 0.089250 -0.585358
O9    O     O_R   0.445650 0.000140 0.980530 -0.587121
O10   O     O_R   0.554350 0.000140 0.019470 -0.587116
O11   O     O_R   0.945650 0.500140 0.980530 -0.587070
O12   O     O_R   0.054350 0.500140 0.019470 -0.587078
O13   O     O_R   0.499990 0.054510 0.965080 -0.586838
O14   O     O_R   0.500010 0.054510 0.034920 -0.586835
O15   O     O_R   0.999990 0.554510 0.965080 -0.586839
O16   O     O_R   0.000010 0.554510 0.034920 -0.586840
O17   O     O_R   0.054410 0.968530 0.554410 -0.589265
O18   O     O_R   0.945590 0.968530 0.445590 -0.589094
O19   O     O_R   0.554410 0.468530 0.554410 -0.589133
O20   O     O_R   0.445590 0.468530 0.445590 -0.589274
O21   O     O_R   1.000000 0.031500 0.439720 -0.568884
O22   O     O_R   0.000000 0.031500 0.560280 -0.568898
O23   O     O_R   0.500000 0.531500 0.439720 -0.568903
O24   O     O_R   0.500000 0.531500 0.560280 -0.568898
O25   O     O_R   0.000030 0.968530 0.439750 -0.583887
O26   O     O_R   0.999970 0.968530 0.560250 -0.583945
O27   O     O_R   0.500030 0.468530 0.439750 -0.583971
O28   O     O_R   0.499970 0.468530 0.560250 -0.583930
O29   O     O_R   0.031480 0.054290 0.031480 -0.587606
O30   O     O_R   0.968520 0.054290 0.968520 -0.587592
O31   O     O_R   0.531480 0.554290 0.031480 -0.587584
O32   O     O_R   0.468520 0.554290 0.968520 -0.587595
O33   O     O_R   0.031490 0.999900 0.091770 -0.578690
O34   O     O_R   0.968510 0.999900 0.908230 -0.578629
O35   O     O_R   0.531490 0.499900 0.091770 -0.578623
O36   O     O_R   0.468510 0.499900 0.908230 -0.578674
O37   O     O_R   0.968550 0.999920 0.028830 -0.577588
O38   O     O_R   0.031450 0.999920 0.971170 -0.577633
O39   O     O_R   0.468550 0.499920 0.028830 -0.577629
O40   O     O_R   0.531450 0.499920 0.971170 -0.577590
O41   O     O_R   0.031500 0.945500 0.031490 -0.587900
O42   O     O_R   0.968500 0.945500 0.968510 -0.587867
O43   O     O_R   0.531500 0.445500 0.031490 -0.587877
O44   O     O_R   0.468500 0.445500 0.968510 -0.587904
O45   O     O_R   0.500040 0.945720 0.965170 -0.586503
O46   O     O_R   0.499960 0.945720 0.034830 -0.586503
O47   O     O_R   0.000040 0.445720 0.965170 -0.586506
O48   O     O_R   0.999960 0.445720 0.034830 -0.586501
O49   O     O_3   0.309988 0.000202 0.888138 -0.731218
H77   H     H_    0.282419 0.000205 0.857359 0.331293
O50   O     O_3   0.690012 0.000183 0.111862 -0.731121
H78   H     H_    0.717581 0.000187 0.142640 0.331350
O51   O     O_3   0.809987 0.500200 0.888137 -0.731162
H79   H     H_    0.782419 0.500203 0.857359 0.331302
O52   O     O_3   0.190013 0.500195 0.111863 -0.731251
H80   H     H_    0.217581 0.500198 0.142642 0.331250
H81   H     H_    0.380348 0.000104 0.813373 0.166760
H82   H     H_    0.619652 0.000119 0.186628 0.166784
H83   H     H_    0.880348 0.500105 0.813373 0.166783
H84   H     H_    0.119651 0.500110 0.186627 0.166765
O53   O     O_3   0.055332 0.041463 0.344683 -0.719457
H85   H     H_    0.072056 0.023499 0.346812 0.332836
O54   O     O_3   0.942405 0.038255 0.653061 -0.719605
H86   H     H_    0.926726 0.019371 0.651974 0.332870
O55   O     O_3   0.558613 0.536676 0.347952 -0.719661
H87   H     H_    0.573774 0.517373 0.348522 0.332887
O56   O     O_3   0.443153 0.539358 0.653806 -0.719549
H88   H     H_    0.427113 0.520780 0.652359 0.332855
H89   H     H_    0.188000 0.060496 0.687061 0.138510
H90   H     H_    0.812000 0.060496 0.313011 0.138473
H91   H     H_    0.688001 0.560496 0.687172 0.138501
H92   H     H_    0.311999 0.560496 0.312863 0.138529
H93   H     H_    0.939603 0.188040 0.939604 0.135297
H94   H     H_    0.060397 0.188040 0.060397 0.135290
H95   H     H_    0.439603 0.688040 0.939609 0.135299
H96   H     H_    0.560397 0.688040 0.060392 0.135310
O57   O     O_3   0.498111 0.193383 0.073140 -0.726571
H97   H     H_    0.497495 0.175545 0.096276 0.326470
O58   O     O_3   0.501889 0.193383 0.926859 -0.726572
H98   H     H_    0.502505 0.175545 0.903724 0.326469
O59   O     O_3   0.999096 0.693384 0.074145 -0.726558
H99   H     H_    0.998801 0.675546 0.097610 0.326456
O60   O     O_3   0.000904 0.693384 0.925854 -0.726563
H100  H     H_    0.001199 0.675546 0.902389 0.326456
H101  H     H_    0.050403 0.964683 0.337127 0.193407
H102  H     H_    0.951678 0.961878 0.664948 0.193498
H103  H     H_    0.547270 0.460579 0.334003 0.193538
H104  H     H_    0.450954 0.462817 0.664226 0.193461
H105  H     H_    0.010652 0.939825 0.224012 0.178748
H106  H     H_    0.992776 0.939313 0.779405 0.178785
H107  H     H_    0.505575 0.439137 0.218952 0.178798
H108  H     H_    0.491609 0.439465 0.778242 0.178769
O61   O     O_3   0.935437 0.025681 0.226375 -0.720454
H109  H     H_    0.941394 0.049742 0.218299 0.321577
O62   O     O_3   0.063001 0.029298 0.772068 -0.720405
H110  H     H_    0.055690 0.052982 0.778794 0.321549
O63   O     O_3   0.437818 0.530996 0.228749 -0.720385
H111  H     H_    0.445769 0.554473 0.222660 0.321538
O64   O     O_3   0.563554 0.528080 0.772620 -0.720426
H112  H     H_    0.556701 0.551901 0.779802 0.321562

loop_
_geom_bond_atom_site_label_1
_geom_bond_atom_site_label_2
_ccdc_geom_bond_type
C10   C174  S    
C85   O29   A    
C55   C59   T    
C6    H74   S    
C160  H56   S    
C14   C170  T    
Cu5   O41   S    
O55   H87   S    
O53   H85   S    
Cu9   O45   S    
C26   C50   A    
Cu11  O47   S    
C98   C114  S    
Cu12  O48   S    
C90   C176  S    
C38   H82   S    
C8    H16   S    
C20   C24   T    
C64   C84   A    
C94   C172  S    
Cu4   O27   S    
C86   C134  S    
C155  C167  S    
C142  H50   S    
C70   C74   A    
Cu10  O9    S    
Cu3   O26   S    
Cu9   Cu10  S    
C141  C145  A    
C125  C135  A    
C93   O35   A    
C94   O36   A    
C41   C49   A    
Cu4   O20   S    
C17   C173  S    
C158  C167  A    
C90   H8    S    
C91   O37   A    
Cu9   O5    S    
C179  H11   S    
Cu11  O7    S    
O50   H78   S    
C140  C144  A    
C28   C32   A    
C127  C136  A    
C62   C66   A    
C140  O60   S    
C9    H69   S    
C17   C21   T    
C151  H105  S    
C19   C23   T    
C104  C146  S    
C2    O2    A    
C162  C165  A    
C78   C82   A    
C29   H17   S    
O60   H100  S    
C68   C72   A    
C68   H32   S    
C65   H29   S    
Cu2   O23   S    
C96   O43   A    
C178  C182  S    
C129  C133  A    
C26   O50   S    
C99   O9    A    
C86   O32   A    
Cu2   O4    S    
C89   O55   S    
C11   C175  S    
C46   O26   A    
C42   H22   S    
C157  H53   S    
C16   C184  S    
C3    C71   S    
Cu8   O32   S    
C7    C183  S    
C106  C115  A    
C78   H90   S    
C58   C82   S    
C159  H55   S    
O61   H109  S    
Cu6   O37   S    
C66   C70   A    
C49   C53   S    
C178  H10   S    
C116  C118  S    
C51   C55   S    
C160  C168  A    
C127  C131  A    
C77   H89   S    
O54   H86   S    
C61   C65   A    
C25   O49   S    
C153  H107  S    
C132  C134  A    
O49   H77   S    
C73   C77   A    
C88   H6    S    
C97   O45   A    
C48   O28   A    
C75   C79   A    
C161  C165  A    
C180  C184  S    
O57   H97   S    
C29   C33   A    
O58   H98   S    
C44   H24   S    
C162  H58   S    
C30   C34   A    
C73   H33   S    
C121  C175  S    
Cu8   O44   S    
C129  H45   S    
C138  O58   S    
C6    C182  S    
Cu3   O17   S    
C64   C68   A    
C148  C150  S    
C60   C84   S    
C122  C176  S    
Cu1   Cu3   S    
C31   H19   S    
C156  C168  S    
C88   C174  S    
C98   O48   A    
C120  H102  S    
C103  O13   A    
C139  C143  A    
C132  H48   S    
C143  H51   S    
C112  H44   S    
C25   C49   A    
C125  H93   S    
C76   H36   S    
C141  H49   S    
C9    C173  S    
C121  H103  S    
C47   O23   A    
C48   O24   A    
C12   C176  S    
C44   C52   A    
C13   C169  T    
C177  H1    S    
O51   H79   S    
Cu10  O46   S    
C27   C51   A    
C21   C45   S    
C90   C180  S    
C139  C148  A    
C23   C47   S    
C91   C169  S    
C24   C48   S    
C63   H27   S    
C92   C170  S    
Cu11  Cu12  S    
C123  C135  S    
Cu11  O12   S    
C33   C99   S    
C12   H72   S    
C5    C9    S    
C180  H4    S    
C125  C129  A    
C67   H31   S    
C8    C12   S    
C106  H38   S    
C163  H59   S    
C104  O16   A    
C91   O33   A    
C120  C174  S    
C42   C50   A    
C26   C30   A    
C13   C181  S    
C150  C155  T    
Cu1   O21   S    
C119  H101  S    
C18   C174  S    
C103  C145  S    
C154  H108  S    
Cu7   Cu8   S    
C105  C109  A    
C10   H70   S    
C18   C22   T    
C107  C111  A    
C105  C115  A    
C76   C80   A    
C95   O42   A    
C7    H15   S    
C32   C36   A    
C3    O3    A    
C5    H13   S    
Cu7   O43   S    
C2    O18   A    
Cu12  O16   S    
C8    H76   S    
Cu3   O18   S    
C61   C81   A    
Cu1   O2    S    
C99   O5    A    
C20   C176  S    
C92   O34   A    
C177  C181  S    
C57   C81   S    
C62   H26   S    
C37   C41   A    
C153  H67   S    
C19   C175  S    
C107  C116  A    
C154  H68   S    
C88   O54   S    
Cu4   O28   S    
C40   C44   A    
Cu5   O29   S    
Cu9   O13   S    
Cu11  O15   S    
C46   O22   A    
Cu3   O25   S    
C143  C146  A    
C108  H40   S    
C122  H104  S    
C128  H96   S    
C80   C84   A    
C131  C134  A    
C157  C167  A    
O59   H99   S    
C10   O62   S    
C50   C54   S    
C121  C153  S    
C160  C164  A    
C147  C149  S    
C117  C124  T    
C59   C83   S    
C128  C136  A    
C54   C58   T    
C28   O52   S    
C126  C130  A    
C152  H66   S    
O64   H112  S    
C64   H28   S    
C37   H81   S    
C14   C182  S    
C115  C117  S    
C15   C183  S    
C34   C100  S    
C69   C73   A    
Cu2   O24   S    
C96   O44   A    
C139  O59   S    
C85   O30   A    
C62   C82   A    
C25   C29   A    
C142  C145  A    
C164  H60   S    
C105  H37   S    
C11   O63   S    
C95   C165  S    
C5    C181  S    
C151  C181  S    
C87   C173  S    
C124  C136  S    
C102  O12   A    
C163  C166  A    
C144  C146  A    
C138  C142  A    
C53   C57   T    
Cu2   O3    S    
C27   C31   A    
C1    C69   S    
C108  C112  A    
C63   C83   A    
C45   O25   A    
C35   C39   A    
C4    O20   A    
Cu5   O33   S    
C30   H18   S    
C41   H21   S    
O56   H88   S    
C77   C81   A    
C66   H30   S    
C110  H42   S    
C15   C171  T    
C88   C178  S    
C121  H63   S    
C122  H64   S    
C22   C46   S    
C126  C135  A    
C39   H83   S    
Cu8   O36   S    
C31   C35   A    
C130  C133  A    
C89   C175  S    
C152  C182  S    
C157  C161  A    
C4    C72   S    
Cu4   O19   S    
C33   C37   A    
C137  C141  A    
C93   C171  S    
Cu7   O40   S    
C100  O6    A    
C137  C147  A    
C43   H23   S    
C158  H54   S    
C102  O8    A    
C35   C101  S    
C6    C10   S    
C5    H73   S    
C27   O51   S    
C12   O64   S    
C108  C116  A    
C7    H75   S    
C127  H95   S    
O52   H80   S    
C119  C173  S    
C101  O11   A    
C79   C83   A    
C43   C51   A    
C179  H3    S    
C65   C69   A    
C97   O46   A    
C177  H9    S    
C111  C114  A    
C67   C71   A    
C118  C123  T    
Cu5   Cu6   S    
C61   H25   S    
C151  H65   S    
C56   C60   T    
C86   O31   A    
C74   C78   A    
C11   H71   S    
C2    C70   S    
C87   H5    S    
C40   H84   S    
C85   C133  S    
Cu9   O10   S    
C130  H46   S    
C47   O27   A    
O62   H110  S    
C3    O19   A    
C72   C76   A    
Cu12  O11   S    
C140  C148  A    
C161  H57   S    
C74   H34   S    
C92   O38   A    
C7    C11   S    
C93   O39   A    
C94   O40   A    
C149  C156  T    
C38   C42   A    
C87   C177  S    
Cu6   O30   S    
Cu10  O14   S    
Cu7   O35   S    
C159  C168  A    
C36   C102  S    
C153  C183  S    
C154  C184  S    
C1    O1    A    
C109  C113  A    
C8    C184  S    
C178  H2    S    
C80   H92   S    
C122  C154  S    
C128  C132  A    
C79   H91   S    
C179  C183  S    
C119  C151  S    
C63   C67   A    
C120  C152  S    
C1    O17   A    
C4    O4    A    
C126  H94   S    
C36   C40   A    
C152  H106  S    
C95   O41   A    
C87   O53   S    
C39   C43   A    
C111  H43   S    
C98   O47   A    
C32   H20   S    
C103  O14   A    
Cu12  O8    S    
C96   C166  S    
Cu1   O1    S    
C16   C172  T    
C138  C147  A    
C101  O7    A    
C75   H35   S    
C110  C113  A    
Cu5   O38   S    
C112  C114  A    
C89   H7    S    
Cu10  O6    S    
C144  H52   S    
C159  C163  A    
C97   C113  S    
O63   H111  S    
C106  C110  A    
C107  H39   S    
C119  H61   S    
C34   C38   A    
Cu8   O39   S    
C45   O21   A    
Cu6   O34   S    
Cu7   O31   S    
C6    H14   S    
C109  H41   S    
Cu6   O42   S    
C164  C166  A    
C131  H47   S    
C71   C75   A    
C28   C52   A    
C120  H62   S    
C89   C179  S    
C9    O61   S    
C158  C162  A    
C104  O15   A    
C137  O57   S    
C100  O10   A    
C90   O56   S    
Cu1   O22   S    
C180  H12   S    
Cu2   Cu4   S    
C52   C56   S    
