data_mof_unit_52376.cif
_audit_creation_date              2012-12-11T16:24:13-0500
_audit_creation_method            fapswitch 2.2
_symmetry_space_group_name_H-M    P1
_symmetry_Int_Tables_number       1
_space_group_crystal_system       triclinic
_cell_length_a                    14.753545
_cell_length_b                    14.753252
_cell_length_c                    33.295615
_cell_angle_alpha                 96.164076
_cell_angle_beta                  96.187424
_cell_angle_gamma                 61.163769
_cell_volume                      6298.812324

loop_
_atom_site_label
_atom_site_type_symbol
_atom_type_description
_atom_site_fract_x
_atom_site_fract_y
_atom_site_fract_z
_atom_type_partial_charge
C1    C     C_R   0.391994 0.697862 0.445617 0.549164
C2    C     C_R   0.333245 0.347486 0.308488 0.038239
C3    C     C_R   0.413710 0.264254 0.328343 -0.109309
C4    C     C_R   0.432805 0.273622 0.370102 -0.118865
C5    C     C_R   0.396420 0.255611 0.165167 -0.107826
C6    C     C_R   0.386397 0.237429 0.123374 -0.124985
C7    C     C_R   0.208141 0.375376 0.122349 -0.127395
C8    C     C_R   0.218319 0.393153 0.164173 -0.110508
C9    C     C_R   0.311457 0.331224 0.185664 0.044836
C10   C     C_1   0.317512 0.339187 0.228931 -0.021736
C11   C     C_1   0.323440 0.343313 0.265240 -0.023641
C12   C     C_R   0.406114 0.386367 0.433933 0.540742
C13   C     C_R   0.290972 0.294695 0.101770 0.019768
C14   C     C_R   0.746582 0.376216 0.407810 0.005424
C15   C     C_R   0.766481 0.443139 0.387903 -0.126891
C16   C     C_R   0.782640 0.425076 0.346798 -0.113087
C17   C     C_R   0.779079 0.340097 0.324834 0.031005
C18   C     C_R   0.764996 0.268714 0.345013 -0.015835
C19   C     C_R   0.751184 0.286467 0.386592 -0.128414
C20   C     C_R   0.805859 0.317580 0.200366 0.329884
C21   C     C_R   0.786693 0.330638 0.280950 0.325875
C22   C     C_R   0.831634 0.395402 0.141565 -0.018196
C23   C     C_R   0.699619 0.410289 0.447131 0.550438
C24   C     C_R   0.868228 0.381092 0.103229 -0.134275
C25   C     C_R   0.892316 0.205880 0.095982 -0.135898
C26   C     C_R   0.854595 0.219694 0.134016 -0.132361
C27   C     C_R   0.827187 0.312750 0.157745 0.030280
C28   C     C_R   0.903033 0.285177 0.080982 0.007964
C29   C     C_R   0.378854 0.742006 0.406477 -0.003048
C30   C     C_R   0.288063 0.768366 0.381586 -0.135114
C31   C     C_R   0.286188 0.783369 0.340887 -0.146082
C32   C     C_R   0.375248 0.770966 0.324195 0.015351
C33   C     C_R   0.466485 0.747669 0.349359 0.055141
C34   C     C_R   0.393569 0.701228 0.561303 0.547432
C35   C     C_R   0.465742 0.737065 0.390546 -0.128967
C36   C     C_R   0.360482 0.805349 0.200521 0.343979
C37   C     C_R   0.370153 0.783115 0.280740 0.381839
C38   C     C_R   0.272978 0.812794 0.131610 -0.118515
C39   C     C_R   0.248261 0.850270 0.093069 -0.130893
C40   C     C_R   0.381331 0.903504 0.104322 -0.131482
C41   C     C_R   0.404925 0.867515 0.142943 -0.129773
C42   C     C_R   0.348373 0.825409 0.157486 0.032704
C43   C     C_R   0.299554 0.899599 0.079804 0.022657
C44   C     C_R   0.372625 0.370700 0.585783 0.015026
C45   C     C_R   0.407482 0.389091 0.549148 0.542686
C46   C     C_R   0.287722 0.451632 0.605120 -0.127549
C47   C     C_R   0.270052 0.443658 0.644564 -0.117165
C48   C     C_R   0.337145 0.354759 0.665279 0.027214
C49   C     C_R   0.416539 0.270499 0.644680 -0.117632
C50   C     C_R   0.433784 0.278238 0.605210 -0.111782
C51   C     C_R   0.322449 0.351755 0.789873 0.350131
C52   C     C_R   0.329826 0.352561 0.708880 0.348927
C53   C     C_R   0.220976 0.406037 0.851491 -0.121040
C54   C     C_R   0.208760 0.385296 0.889866 -0.131422
C55   C     C_R   0.387574 0.249579 0.893611 -0.129841
C56   C     C_R   0.701940 0.412923 0.562720 0.557260
C57   C     C_R   0.399726 0.270224 0.855320 -0.121156
C58   C     C_R   0.315167 0.345236 0.833133 0.035107
C59   C     C_R   0.290611 0.303516 0.910376 0.022078
C60   C     C_R   0.751816 0.380292 0.603778 -0.009897
C61   C     C_R   0.765716 0.453122 0.630884 -0.150796
C62   C     C_R   0.784034 0.439328 0.672222 -0.129684
C63   C     C_R   0.786120 0.354033 0.687636 0.008245
C64   C     C_R   0.776901 0.277133 0.661249 -0.023128
C65   C     C_R   0.765350 0.287204 0.618853 0.045094
C66   C     C_R   0.873956 0.222348 0.823552 -0.107571
C67   C     C_R   0.371315 0.366606 0.392334 0.018966
C68   C     C_R   0.908630 0.206026 0.864214 -0.128596
C69   C     C_R   0.859111 0.388559 0.876611 -0.125502
C70   C     C_R   0.824424 0.404641 0.836038 -0.112726
C71   C     C_R   0.834581 0.321091 0.809253 0.040626
C72   C     C_1   0.814013 0.334820 0.766634 -0.017690
C73   C     C_1   0.800378 0.344892 0.730765 -0.016226
C74   C     C_R   0.904811 0.288424 0.890821 0.019568
C75   C     C_R   0.376652 0.754976 0.602038 -0.008271
C76   C     C_R   0.279526 0.796256 0.618279 -0.127726
C77   C     C_R   0.267187 0.828234 0.659568 0.071920
C78   C     C_R   0.286027 0.447076 0.372405 -0.123524
C79   C     C_R   0.355136 0.816963 0.684806 0.019319
C80   C     C_R   0.450374 0.781863 0.668097 -0.144392
C81   C     C_R   0.461060 0.751658 0.627024 -0.132459
C82   C     C_R   0.400330 0.880557 0.833409 -0.117974
C83   C     C_R   0.379421 0.908634 0.874126 -0.124721
C84   C     C_R   0.228020 0.882897 0.862428 -0.129907
C85   C     C_R   0.249182 0.854787 0.821762 -0.099467
C86   C     C_R   0.333656 0.856320 0.807011 0.040659
C87   C     C_1   0.346318 0.841171 0.764293 0.016010
C88   C     C_1   0.352128 0.830613 0.728170 0.034771
C89   C     C_R   0.267483 0.437620 0.330608 -0.107060
C90   C     C_R   0.291043 0.913385 0.888765 0.019506
C91   C     C_R   0.963045 0.264664 0.045447 0.546841
C92   C     C_R   0.272620 0.259571 0.060040 0.543448
C93   C     C_R   0.259464 0.959329 0.043569 0.546062
C94   C     C_R   0.961873 0.268004 0.930920 0.542836
C95   C     C_R   0.270973 0.264102 0.945426 0.546074
C96   C     C_R   0.256203 0.964950 0.928937 0.543046
Cr1   Cr    Cr6+3 0.576280 0.580550 0.506370 1.026009
Cr2   Cr    Cr6+3 0.346780 0.572400 0.496520 1.025339
Cr3   Cr    Cr6+3 0.576960 0.347070 0.497150 1.066697
Cr4   Cr    Cr6+3 0.087320 0.083240 0.984860 1.013720
Cr5   Cr    Cr6+3 0.087720 0.316210 0.996740 1.011951
Cr6   Cr    Cr6+3 0.317350 0.090340 0.995890 1.011321
H1    H     H_    0.451518 0.174874 0.108387 0.126863
H2    H     H_    0.734794 0.234635 0.401503 0.136818
H3    H     H_    0.876054 0.443207 0.092063 0.133302
H4    H     H_    0.794487 0.479761 0.331744 0.146267
H5    H     H_    0.918241 0.131273 0.079354 0.132315
H6    H     H_    0.851211 0.155702 0.145702 0.132546
H7    H     H_    0.220138 0.772402 0.393037 0.136735
H8    H     H_    0.537047 0.714853 0.409338 0.160270
H9    H     H_    0.185506 0.845473 0.074554 0.129105
H10   H     H_    0.468899 0.207596 0.181700 0.105608
H11   H     H_    0.215503 0.802197 0.322076 0.133927
H12   H     H_    0.228663 0.779858 0.141933 0.135363
H13   H     H_    0.422613 0.940728 0.094844 0.131814
H14   H     H_    0.463769 0.877872 0.162081 0.119532
H15   H     H_    0.238839 0.523750 0.590831 0.143495
H16   H     H_    0.498736 0.213978 0.590830 0.171129
H17   H     H_    0.133247 0.428642 0.902179 0.130645
H18   H     H_    0.207481 0.509407 0.659518 0.146592
H19   H     H_    0.468329 0.200085 0.659593 0.141136
H20   H     H_    0.464409 0.193898 0.311350 0.123579
H21   H     H_    0.154745 0.465205 0.835289 0.133346
H22   H     H_    0.452491 0.187066 0.908975 0.129059
H23   H     H_    0.473967 0.223517 0.842293 0.129851
H24   H     H_    0.943969 0.127983 0.874169 0.127232
H25   H     H_    0.882195 0.157168 0.802922 0.118796
H26   H     H_    0.757062 0.524073 0.620428 0.139738
H27   H     H_    0.794004 0.481324 0.825206 0.109699
H28   H     H_    0.854868 0.453616 0.896362 0.127113
H29   H     H_    0.499077 0.210352 0.384538 0.139995
H30   H     H_    0.792385 0.497844 0.692472 0.121885
H31   H     H_    0.429340 0.931925 0.893560 0.128037
H32   H     H_    0.465926 0.881914 0.822211 0.108793
H33   H     H_    0.517955 0.773203 0.687257 0.114094
H34   H     H_    0.537097 0.719677 0.615449 0.136751
H35   H     H_    0.213849 0.800429 0.598927 0.169472
H36   H     H_    0.197140 0.836094 0.801466 0.132418
H37   H     H_    0.159301 0.885992 0.872669 0.127247
H38   H     H_    0.237445 0.519756 0.388628 0.131382
H39   H     H_    0.152232 0.451934 0.179926 0.107836
H40   H     H_    0.133540 0.420557 0.106617 0.129084
H41   H     H_    0.204790 0.502251 0.315362 0.113727
H42   H     H_    0.763220 0.512942 0.403424 0.151698
N1    N     N_R   0.742413 0.409106 0.219695 -0.206102
N2    N     N_R   0.248416 0.428465 0.728637 -0.227218
N3    N     N_R   0.407675 0.276956 0.730454 -0.257240
N4    N     N_R   0.403952 0.276387 0.770099 -0.246057
N5    N     N_R   0.733191 0.415670 0.259269 -0.203145
N6    N     N_R   0.848030 0.238249 0.261597 -0.212898
N7    N     N_R   0.857595 0.231912 0.221973 -0.229575
N8    N     N_R   0.313633 0.756419 0.214581 -0.229219
N9    N     N_R   0.318586 0.745283 0.253994 -0.223040
N10   N     N_R   0.415991 0.832985 0.266777 -0.184794
N11   N     N_R   0.411362 0.843733 0.227396 -0.235799
N12   N     N_R   0.244454 0.427679 0.768345 -0.231852
O1    O     O_R   0.679450 0.499830 0.463150 -0.515949
O2    O     O_R   0.356040 0.477400 0.534170 -0.503899
O3    O     O_R   0.495910 0.323070 0.537100 -0.499923
O4    O     O_R   0.663920 0.359620 0.542290 -0.460505
O5    O     O_3   0.500010 0.500010 0.500010 -0.251038
O6    O     O_R   0.170070 0.978950 0.027680 -0.517728
O7    O     O_R   0.001760 0.175230 0.026640 -0.499041
O8    O     O_R   0.984760 0.333570 0.037150 -0.522901
O9    O     O_R   0.183410 0.309240 0.041890 -0.502032
O10   O     O_R   0.340240 0.172500 0.045430 -0.520376
O11   O     O_R   0.309670 0.000990 0.032050 -0.503756
O12   O     O_R   0.480650 0.664000 0.464630 -0.503665
O13   O     O_R   0.168330 0.982130 0.939200 -0.520208
O14   O     O_R   0.000140 0.178170 0.944610 -0.501709
O15   O     O_R   0.983010 0.336750 0.948660 -0.519914
O16   O     O_R   0.181800 0.312190 0.959860 -0.501608
O17   O     O_R   0.338500 0.175680 0.956950 -0.519708
O18   O     O_R   0.308050 0.003930 0.950020 -0.501604
O19   O     O_3   0.164130 0.163270 0.992500 -0.235316
O20   O     O_R   0.323930 0.675950 0.455370 -0.513621
O21   O     O_R   0.354700 0.475360 0.451930 -0.502987
O22   O     O_R   0.494470 0.320860 0.448390 -0.518179
O23   O     O_R   0.662580 0.357570 0.460050 -0.495852
O24   O     O_R   0.680900 0.502040 0.551870 -0.523000
O25   O     O_R   0.481990 0.666040 0.546870 -0.500744
O26   O     O_R   0.325370 0.678160 0.544080 -0.512499
C97   C     C_R   0.752551 0.182104 0.323071 0.040637
C98   C     C_R   0.672417 0.201939 0.292701 -0.072128
C99   C     C_R   0.660055 0.120163 0.272452 -0.110791
C100  C     C_R   0.726675 0.018287 0.282643 -0.091875
C101  C     C_R   0.805720 0.998051 0.313139 -0.098625
C102  C     C_R   0.818523 0.079607 0.333416 -0.085805
H43   H     H_    0.619317 0.280639 0.284873 0.126859
H44   H     H_    0.598376 0.135877 0.249044 0.103483
H45   H     H_    0.716836 0.955070 0.267015 0.112381
H46   H     H_    0.857049 0.919139 0.321091 0.113335
H47   H     H_    0.880066 0.062927 0.356986 0.111584
C103  C     C_R   0.812072 0.492327 0.165722 0.040248
C104  C     C_R   0.892556 0.497466 0.190770 -0.084096
C105  C     C_R   0.873477 0.587847 0.214805 -0.111171
C106  C     C_R   0.774124 0.673277 0.213980 -0.099459
C107  C     C_R   0.693900 0.668641 0.188924 -0.085430
C108  C     C_R   0.712756 0.578684 0.164605 -0.065925
H48   H     H_    0.969553 0.431298 0.191893 0.112105
H49   H     H_    0.935560 0.591456 0.234215 0.107780
H50   H     H_    0.759237 0.742976 0.232801 0.112200
H51   H     H_    0.617043 0.734523 0.188558 0.125598
H52   H     H_    0.649904 0.575597 0.145522 0.116613
C109  C     C_2   0.566692 0.722774 0.333333 0.570920
O27   O     O_2   0.625817 0.748881 0.353329 -0.537999
O28   O     O_R   0.595827 0.665426 0.296348 -0.663064
H53   H     H_    0.666256 0.652455 0.289048 0.343801
C110  C     C_R   0.774371 0.189447 0.678351 0.059056
C111  C     C_R   0.856119 0.087911 0.673557 -0.056097
C112  C     C_R   0.851505 0.006119 0.689304 -0.106263
C113  C     C_R   0.766280 0.025267 0.710255 -0.116177
C114  C     C_R   0.685041 0.126166 0.715330 -0.112478
C115  C     C_R   0.688677 0.208036 0.699321 -0.064916
H54   H     H_    0.922722 0.072253 0.657490 0.151137
H55   H     H_    0.913847 0.927734 0.685331 0.162735
H56   H     H_    0.763149 0.961866 0.722514 0.113302
H57   H     H_    0.619195 0.140776 0.731585 0.147189
H58   H     H_    0.624722 0.285833 0.703136 0.124889
C116  C     C_2   0.766997 0.200982 0.590822 0.591635
O29   O     O_2   0.823653 0.168333 0.562624 -0.510999
O30   O     O_R   0.704132 0.157304 0.596592 -0.705546
H59   H     H_    0.712414 0.099345 0.575513 0.335226
C117  C     C_2   0.163013 0.869389 0.675498 0.561229
O31   O     O_2   0.098053 0.849677 0.656684 -0.557211
O32   O     O_R   0.137987 0.932185 0.711473 -0.704203
H60   H     H_    0.065365 0.954237 0.719249 0.325550

loop_
_geom_bond_atom_site_label_1
_geom_bond_atom_site_label_2
_ccdc_geom_bond_type
C66   C68   A    
C87   C88   T    
C1    O20   A    
Cr2   O26   S    
Cr6   O11   S    
C55   C59   A    
C41   C42   A    
C74   C94   S    
C36   C42   S    
N3    N4    A    
C45   O3    A    
C97   C98   A    
C117  O31   D    
C116  O30   S    
C57   C58   A    
C12   O22   A    
C99   H44   S    
C114  C115  A    
C66   H25   S    
C25   C28   A    
Cr3   O23   S    
C33   C109  S    
C26   C27   A    
C29   C30   A    
C80   H33   S    
C96   O18   A    
C34   O25   A    
C18   C97   S    
C38   C42   A    
Cr3   O3    S    
C115  H58   S    
C85   C86   A    
C30   C31   A    
C38   H12   S    
C40   H13   S    
C16   C17   A    
C113  H56   S    
C68   C74   A    
C15   C16   A    
C98   C99   A    
Cr5   O16   S    
C18   C19   A    
C100  H45   S    
C49   C50   A    
C79   C88   S    
C43   C93   S    
Cr3   O5    S    
C92   O9    A    
C40   C43   A    
C31   C32   A    
C84   H37   S    
C12   O21   A    
C69   H28   S    
C62   H30   S    
C105  H49   S    
C34   O26   A    
C107  C108  A    
C21   N5    A    
C28   C91   S    
C9    C10   S    
C23   O23   A    
C3    H20   S    
C16   H4    S    
C34   C75   S    
C72   C73   T    
C39   H9    S    
C112  H55   S    
C113  C114  A    
Cr3   O4    S    
C91   O7    A    
C106  C107  A    
C67   C78   A    
C59   C95   S    
C92   O10   A    
C2    C11   S    
C14   C19   A    
C56   O24   A    
C116  O29   D    
C44   C46   A    
C17   C18   A    
C4    H29   S    
C54   C59   A    
C109  O28   S    
C78   C89   A    
C76   H35   S    
C38   C39   A    
C12   C67   S    
C51   N12   A    
C32   C37   S    
C30   H7    S    
Cr4   O14   S    
O28   H53   S    
Cr2   O2    S    
C7    C8    A    
C76   C77   A    
Cr3   O22   S    
C53   H21   S    
C26   H6    S    
C86   C87   S    
C8    C9    A    
Cr1   O24   S    
C39   C43   A    
C104  C105  A    
C63   C73   S    
C1    O12   A    
C25   C26   A    
C109  O27   D    
C70   H27   S    
C17   C21   S    
C79   C80   A    
C46   H15   S    
C78   H38   S    
C60   C61   A    
Cr6   O17   S    
Cr1   O1    S    
C14   C23   S    
C82   H32   S    
C2    C89   A    
Cr5   O9    S    
C75   C76   A    
C112  C113  A    
C5    C9    A    
C62   C63   A    
C37   N9    A    
C94   O15   A    
C65   C116  S    
Cr2   O20   S    
C19   H2    S    
C77   C117  S    
C47   C48   A    
C14   C15   A    
C7    C13   A    
C114  H57   S    
C49   H19   S    
Cr4   O19   S    
C1    C29   S    
C110  C111  A    
C101  H46   S    
C77   C79   A    
C106  H50   S    
C20   N1    A    
C51   C58   S    
C6    H1    S    
C84   C85   A    
Cr2   O21   S    
C90   C96   S    
C89   H41   S    
N10   N11   A    
C70   C71   A    
C35   H8    S    
C66   C71   A    
C15   H42   S    
C103  C104  A    
C47   H18   S    
C5    H10   S    
C60   C65   A    
O32   H60   S    
C52   N3    A    
Cr1   O5    S    
C96   O13   A    
C55   C57   A    
C13   C92   S    
C108  H52   S    
C8    H39   S    
C22   C24   A    
C80   C81   A    
Cr5   O19   S    
C41   H14   S    
C53   C54   A    
C3    C4    A    
C68   H24   S    
C69   C74   A    
Cr2   O5    S    
C44   C45   S    
C25   H5    S    
C81   H34   S    
C104  H48   S    
C95   O16   A    
C84   C90   A    
C44   C50   A    
C83   C90   A    
C46   C47   A    
C40   C41   A    
C52   N2    A    
C32   C33   A    
Cr4   O13   S    
C50   H16   S    
C37   N10   A    
Cr5   O8    S    
C36   N8    A    
C45   O2    A    
C24   C28   A    
C105  C106  A    
C117  O32   S    
C102  H47   S    
C4    C67   A    
C53   C58   A    
Cr1   O25   S    
C20   C27   S    
C75   C81   A    
Cr6   O18   S    
Cr1   O12   S    
Cr4   O7    S    
C29   C35   A    
C110  C115  A    
N6    N7    A    
C20   N7    A    
C64   C110  S    
C22   C27   A    
C64   C65   A    
C2    C3    A    
Cr6   O19   S    
C101  C102  A    
C56   O4    A    
C82   C86   A    
C97   C102  A    
C94   O14   A    
C6    C13   A    
C57   H23   S    
C21   N6    A    
C99   C100  A    
C5    C6    A    
C93   O6    A    
C48   C49   A    
C23   O1    A    
O30   H59   S    
C51   N4    A    
C33   C35   A    
Cr5   O15   S    
C61   H26   S    
C111  C112  A    
C95   O17   A    
C61   C62   A    
C91   O8    A    
C69   C70   A    
C83   H31   S    
C10   C11   T    
C63   C64   A    
C103  C108  A    
C56   C60   S    
C48   C52   S    
N2    N12   A    
N8    N9    A    
C93   O11   A    
Cr6   O10   S    
C82   C83   A    
C55   H22   S    
C107  H51   S    
C98   H43   S    
C22   C103  S    
Cr4   O6    S    
C24   H3    S    
C71   C72   S    
C100  C101  A    
C54   H17   S    
C85   H36   S    
C31   H11   S    
C7    H40   S    
N1    N5    A    
C111  H54   S    
C36   N11   A    
