data_mof_unit_5784.cif
_audit_creation_date              2012-10-26T18:28:58-0400
_audit_creation_method            fapswitch 2.2
_symmetry_space_group_name_H-M    P1
_symmetry_Int_Tables_number       1
_space_group_crystal_system       triclinic
_cell_length_a                    11.75902
_cell_length_b                    13.050165
_cell_length_c                    15.919447
_cell_angle_alpha                 93.128268
_cell_angle_beta                  76.273313
_cell_angle_gamma                 100.368446
_cell_volume                      2334.24686809

loop_
_atom_site_label
_atom_site_type_symbol
_atom_type_description
_atom_site_fract_x
_atom_site_fract_y
_atom_site_fract_z
_atom_type_partial_charge
C1    C     C_R   0.521693 0.700445 0.499343 0.548903
C2    C     C_R   0.397330 0.022948 0.432322 -0.137225
C3    C     C_R   0.599668 0.870523 0.554945 -0.156864
C4    C     C_R   0.398095 0.128804 0.445515 -0.153232
C5    C     C_R   0.467832 0.864050 0.457033 -0.017345
C6    C     C_R   0.535091 0.135889 0.539827 -0.019050
C7    C     C_R   0.466354 0.971384 0.471331 0.025150
C8    C     C_R   0.534647 0.028289 0.526654 0.024729
C9    C     C_R   0.927200 0.548528 0.608630 0.008966
C10   C     C_R   0.075063 0.463274 0.392384 -0.009010
C11   C     C_R   0.818556 0.564703 0.589453 0.189347
C12   C     C_R   0.478528 0.299452 0.500011 0.546976
C13   C     C_R   0.182041 0.442291 0.409117 0.187589
C14   C     C_R   0.865328 0.479236 0.453970 0.030617
C15   C     C_R   0.134859 0.518309 0.548287 0.025230
C16   C     C_R   0.428874 0.492783 0.667227 0.545005
C17   C     C_R   0.570883 0.503580 0.332422 0.545576
C18   C     C_R   0.984396 0.484562 0.462340 -0.007803
C19   C     C_R   0.014825 0.514866 0.541381 -0.006850
C20   C     C_R   0.387502 0.482292 0.761257 0.000247
C21   C     C_R   0.610347 0.497730 0.237556 -0.002753
C22   C     C_R   0.228683 0.473687 0.889803 -0.126488
C23   C     C_R   0.376948 0.539817 0.071438 -0.017694
C24   C     C_R   0.756769 0.461390 0.110431 -0.118091
C25   C     C_R   0.266405 0.473488 0.800358 -0.137110
C26   C     C_R   0.726086 0.483409 0.198475 -0.128383
C27   C     C_R   0.468656 0.480057 0.812505 -0.132407
C28   C     C_R   0.529952 0.499990 0.185835 -0.141669
C29   C     C_R   0.430247 0.469208 0.902406 0.011518
C30   C     C_R   0.562583 0.488161 0.095190 0.010447
C31   C     C_R   0.311838 0.479711 0.941550 0.021080
C32   C     C_R   0.673543 0.457116 0.058693 0.022210
C33   C     C_R   0.508643 0.457012 0.955220 0.015381
C34   C     C_R   0.606319 0.402070 0.926483 -0.011249
C35   C     C_R   0.483350 0.496529 0.041657 0.003998
C36   C     C_1   0.162072 0.517388 0.070622 0.160146
C37   C     C_1   0.800710 0.366535 0.943507 0.149723
C38   C     C_3   0.245789 0.365160 0.349328 -0.242613
C39   C     C_3   0.163282 0.261330 0.343646 -0.470742
C40   C     C_3   0.752375 0.643587 0.645612 -0.240196
C41   C     C_3   0.828346 0.752693 0.639464 -0.471199
C42   C     C_3   0.950412 0.567876 0.699288 -0.307419
C43   C     C_3   0.953448 0.466045 0.740789 -0.422428
C44   C     C_3   0.069186 0.487979 0.301512 -0.282846
C45   C     C_R   0.283369 0.508084 0.029178 0.010766
C46   C     C_3   0.065059 0.604642 0.296713 -0.422381
C47   C     C_3   0.371017 0.633124 0.133678 -0.275382
C48   C     C_3   0.348765 0.728837 0.092621 -0.426315
C49   C     C_3   0.606417 0.318139 0.854756 -0.266271
C50   C     C_3   0.496269 0.233072 0.875842 -0.417289
C51   C     C_1   0.603340 0.194310 0.597231 0.203068
C52   C     C_1   0.407297 0.806465 0.394834 0.203561
C53   C     C_R   0.694570 0.412679 0.974897 -0.005823
C54   C     C_R   0.468386 0.186181 0.497116 -0.004909
C55   C     C_R   0.532028 0.813575 0.501675 -0.004243
C56   C     C_R   0.601942 0.976439 0.566975 -0.138873
Cu1   Cu    Cu3+1 0.386820 0.492450 0.493500 0.940918
Cu2   Cu    Cu3+1 0.613180 0.507550 0.506500 0.941571
H1    H     H_    0.440323 0.507516 0.217517 0.122622
H2    H     H_    0.342805 0.982233 0.390753 0.127205
H3    H     H_    0.163920 0.549876 0.605078 0.130676
H4    H     H_    0.838683 0.445681 0.396648 0.123362
H5    H     H_    0.124417 0.228517 0.409237 0.160079
H6    H     H_    0.090567 0.271229 0.312931 0.156045
H7    H     H_    0.214537 0.205045 0.303708 0.134630
H8    H     H_    0.282558 0.396698 0.283650 0.114318
H9    H     H_    0.320085 0.345879 0.371763 0.206282
H10   H     H_    0.912150 0.754471 0.660225 0.152272
H11   H     H_    0.850727 0.780362 0.571770 0.160534
H12   H     H_    0.562449 0.493561 0.782943 0.118431
H13   H     H_    0.777868 0.807656 0.681890 0.131319
H14   H     H_    0.672066 0.653676 0.627462 0.210627
H15   H     H_    0.721306 0.618303 0.713673 0.106513
H16   H     H_    0.864710 0.415509 0.751004 0.174059
H17   H     H_    0.020300 0.422974 0.700267 0.156168
H18   H     H_    0.976698 0.483803 0.804219 0.157864
H19   H     H_    0.034310 0.623516 0.697081 0.126620
H20   H     H_    0.882328 0.604147 0.744906 0.148840
H21   H     H_    0.976461 0.621949 0.330427 0.153354
H22   H     H_    0.133526 0.652107 0.326873 0.177851
H23   H     H_    0.790846 0.482353 0.236646 0.135084
H24   H     H_    0.083056 0.630545 0.229297 0.175751
H25   H     H_    0.147854 0.471361 0.252661 0.151668
H26   H     H_    0.990954 0.439793 0.282901 0.142714
H27   H     H_    0.415040 0.746819 0.030484 0.156226
H28   H     H_    0.258045 0.716883 0.080911 0.162892
H29   H     H_    0.357505 0.797031 0.136962 0.151935
H30   H     H_    0.300889 0.612389 0.193109 0.156751
H31   H     H_    0.456630 0.659367 0.152447 0.167677
H32   H     H_    0.487018 0.200236 0.940529 0.154876
H33   H     H_    0.414522 0.263589 0.874859 0.167901
H34   H     H_    0.201513 0.472590 0.762095 0.129297
H35   H     H_    0.505212 0.169356 0.826794 0.151641
H36   H     H_    0.615792 0.350448 0.790597 0.166527
H37   H     H_    0.683401 0.277326 0.845157 0.167089
H38   H     H_    0.135662 0.475707 0.917494 0.147603
H39   H     H_    0.844318 0.442795 0.084226 0.164732
H40   H     H_    0.346632 0.166683 0.412562 0.121551
H41   H     H_    0.648039 0.832273 0.589876 0.120266
H42   H     H_    0.655328 0.016650 0.609474 0.129032
N1    N     N_R   0.216750 0.481110 0.483710 -0.236173
N2    N     N_R   0.783250 0.518890 0.516290 -0.235518
N3    N     N_1   0.063848 0.523126 0.101088 -0.365936
N4    N     N_1   0.884915 0.329096 0.919317 -0.332274
N5    N     N_1   0.658355 0.240774 0.642531 -0.327728
N6    N     N_1   0.359359 0.760546 0.345189 -0.337029
O1    O     O_R   0.419950 0.645670 0.495380 -0.481861
O2    O     O_R   0.580050 0.354330 0.504620 -0.480573
O3    O     O_R   0.611110 0.658410 0.506370 -0.525795
O4    O     O_R   0.388890 0.341590 0.493630 -0.523797
O5    O     O_R   0.350820 0.490050 0.621260 -0.516071
O6    O     O_R   0.649180 0.509950 0.378740 -0.513814
O7    O     O_R   0.541970 0.502800 0.632250 -0.524651
O8    O     O_R   0.458030 0.497200 0.367750 -0.520232

loop_
_geom_bond_atom_site_label_1
_geom_bond_atom_site_label_2
_ccdc_geom_bond_type
C30   C32   A    
C21   C26   A    
C23   C45   A    
C4    H40   S    
C27   C29   A    
Cu2   O3    S    
C39   H7    S    
C14   C18   A    
C2    C7    A    
C44   H25   S    
C16   O7    A    
C8    C56   A    
C12   O4    A    
C7    C8    A    
C15   C19   A    
C39   H6    S    
C9    C42   S    
C30   C35   A    
C36   N3    T    
Cu2   O6    S    
C41   H11   S    
C24   C26   A    
C46   H21   S    
C2    H2    S    
C14   N2    A    
C20   C25   A    
C14   H4    S    
C29   C33   A    
C40   H15   S    
C18   C19   A    
C1    O3    A    
C46   H24   S    
C3    C55   A    
C9    C19   A    
C38   H8    S    
C34   C49   S    
C22   C25   A    
C50   H32   S    
Cu2   O7    S    
C5    C52   S    
Cu2   N2    S    
C49   H36   S    
C51   N5    T    
C41   H13   S    
C37   C53   S    
C43   H16   S    
C52   N6    T    
C47   H31   S    
C6    C54   A    
C44   C46   S    
C17   O8    A    
C41   H10   S    
C43   H17   S    
C38   C39   S    
C23   C47   S    
C22   C31   A    
C10   C44   S    
C24   H39   S    
C12   O2    A    
C6    C8    A    
C49   H37   S    
C2    C4    A    
C24   C32   A    
C3    C56   A    
C47   C48   S    
C16   C20   S    
C33   C34   A    
C15   H3    S    
C48   H29   S    
C36   C45   S    
C50   H35   S    
C15   N1    A    
C9    C11   A    
C13   C38   S    
C27   H12   S    
C1    O1    A    
C40   C41   S    
Cu1   O1    S    
C21   C28   A    
C42   H20   S    
C26   H23   S    
C23   C35   A    
C6    C51   S    
C48   H28   S    
C42   C43   S    
C56   H42   S    
C13   N1    A    
C17   O6    A    
C32   C53   A    
C39   H5    S    
C5    C7    A    
C28   H1    S    
C43   H18   S    
C25   H34   S    
C40   H14   S    
C4    C54   A    
C48   H27   S    
C22   H38   S    
C5    C55   A    
C44   H26   S    
C10   C13   A    
C37   N4    T    
Cu1   O4    S    
Cu1   O8    S    
C20   C27   A    
Cu1   N1    S    
C47   H30   S    
C28   C30   A    
C1    C55   S    
C29   C31   A    
C46   H22   S    
Cu1   Cu2   S    
Cu1   O5    S    
C10   C18   A    
C33   C35   A    
C11   N2    A    
Cu2   O2    S    
C11   C40   S    
C17   C21   S    
C3    H41   S    
C50   H33   S    
C38   H9    S    
C34   C53   A    
C49   C50   S    
C31   C45   A    
C42   H19   S    
C12   C54   S    
C16   O5    A    
