data_mof_unit_16950.cif
_audit_creation_date              2012-12-10T17:28:33-0500
_audit_creation_method            fapswitch 2.2
_symmetry_space_group_name_H-M    P1
_symmetry_Int_Tables_number       1
_space_group_crystal_system       triclinic
_cell_length_a                    10.712206
_cell_length_b                    11.987377
_cell_length_c                    12.836647
_cell_angle_alpha                 93.623652
_cell_angle_beta                  90.252956
_cell_angle_gamma                 85.027839
_cell_volume                      1638.88289263

loop_
_atom_site_label
_atom_site_type_symbol
_atom_type_description
_atom_site_fract_x
_atom_site_fract_y
_atom_site_fract_z
_atom_type_partial_charge
C1    C     C_R   0.494771 0.522801 0.700262 0.900621
C2    C     C_R   0.503327 0.477371 0.299752 0.922954
C3    C     C_R   0.502898 0.461689 0.188518 -0.277390
C4    C     C_R   0.495320 0.538969 0.811557 -0.249046
C5    C     C_R   0.600764 0.611026 0.963179 0.767027
C6    C     C_R   0.397421 0.389852 0.036838 0.763630
C7    C     C_R   0.576994 0.611714 0.857623 -0.341226
C8    C     C_R   0.420919 0.389274 0.142435 -0.344999
C9    C     C_R   0.427334 0.471020 0.870999 0.474028
C10   C     C_R   0.570839 0.529992 0.129193 0.470879
C11   C     C_R   0.455252 0.464991 0.976668 -0.188418
C12   C     C_R   0.543153 0.535758 0.023413 -0.187173
C13   C     C_R   0.390255 0.955874 0.396664 -0.375231
C14   C     C_R   0.606504 0.043488 0.604242 -0.369979
C15   C     C_R   0.398680 0.838658 0.407578 0.677776
C16   C     C_R   0.596438 0.160772 0.595265 0.639739
C17   C     C_R   0.545927 0.857668 0.545086 -0.061777
C18   C     C_R   0.455313 0.142165 0.453462 -0.086670
C19   C     C_R   0.538711 0.974961 0.537346 0.057620
C20   C     C_R   0.460919 0.024625 0.461609 0.057528
C21   C     C_R   0.741157 0.500129 0.501152 0.848647
C22   C     C_R   0.261331 0.503750 0.515829 0.851865
C23   C     C_R   0.879685 0.379567 0.668309 0.436827
C24   C     C_R   0.094618 0.722203 0.516163 0.448555
C25   C     C_R   0.946173 0.291670 0.716495 -0.225233
C26   C     C_R   0.034532 0.799661 0.451707 -0.234972
C27   C     C_R   0.073609 0.268119 0.698105 0.661670
C28   C     C_R   0.931319 0.771229 0.392886 0.624377
C29   C     C_R   0.136946 0.338068 0.638236 -0.282700
C30   C     C_R   0.879915 0.670330 0.407280 -0.239435
C31   C     C_R   0.070795 0.427147 0.587952 -0.044232
C32   C     C_R   0.934859 0.594632 0.478401 -0.056570
C33   C     C_R   0.939254 0.436361 0.590910 -0.065528
C34   C     C_R   0.054345 0.611544 0.515378 -0.055235
C35   C     C_R   0.129095 0.514454 0.543338 -0.146738
C36   C     C_R   0.874101 0.506308 0.519309 -0.116340
H1    H     H_    0.328878 0.992810 0.338421 0.159039
H2    H     H_    0.665765 0.006397 0.663803 0.156617
H3    H     H_    0.900776 0.246317 0.773733 0.192756
H4    H     H_    0.067237 0.882344 0.448276 0.188351
H5    H     H_    0.237416 0.323841 0.638348 0.220046
H6    H     H_    0.796997 0.653739 0.363243 0.205062
H7    H     H_    0.370136 0.336137 0.189348 0.201098
H8    H     H_    0.627528 0.665045 0.810714 0.190169
H9    H     H_    0.396075 0.181564 0.395264 0.155457
H10   H     H_    0.606357 0.818308 0.602556 0.144997
N1    N     N_R   0.523130 0.207800 0.519340 -0.124699
N2    N     N_R   0.476870 0.792200 0.480660 -0.107586
O1    O     O_R   0.506170 0.421700 0.658830 -0.516176
O2    O     O_R   0.493830 0.578300 0.341170 -0.544759
O3    O     O_R   0.491330 0.609310 0.646410 -0.641310
O4    O     O_R   0.508670 0.390690 0.353590 -0.627572
O5    O     O_R   0.690650 0.406190 0.506220 -0.552706
O6    O     O_R   0.309350 0.593810 0.493780 -0.550400
O7    O     O_R   0.675800 0.593810 0.493800 -0.649757
O8    O     O_R   0.324200 0.406190 0.506200 -0.642655
Zn1   Zn    Zn3+2 0.509910 0.374730 0.508290 1.026694
Zn2   Zn    Zn3+2 0.490090 0.625270 0.491710 1.027337
F1    F     F_    0.875369 0.844924 0.327626 -0.614735
F2    F     F_    0.138465 0.184806 0.747583 -0.591546
O9    O     O_3   0.765365 0.418851 0.710541 -0.690481
H11   H     H_    0.754174 0.500796 0.702730 0.308783
O10   O     O_3   0.183191 0.760290 0.585008 -0.716808
H12   H     H_    0.195897 0.706755 0.640725 0.334104
O11   O     O_3   0.662716 0.592025 0.173350 -0.646575
H13   H     H_    0.698763 0.553271 0.233856 0.306610
O12   O     O_3   0.334383 0.410349 0.827052 -0.648999
H14   H     H_    0.297041 0.451597 0.768455 0.294713
F3    F     F_    0.682616 0.682062 0.004616 -0.576168
F4    F     F_    0.315639 0.318840 0.995259 -0.567597
O13   O     O_3   0.658369 0.229602 0.663353 -0.680036
H15   H     H_    0.700989 0.183967 0.716955 0.320455
O14   O     O_3   0.329003 0.769288 0.345635 -0.718806
H16   H     H_    0.276808 0.815241 0.297573 0.322230

loop_
_geom_bond_atom_site_label_1
_geom_bond_atom_site_label_2
_ccdc_geom_bond_type
C30   C32   A    
C27   C29   A    
O14   H16   S    
C19   C20   A    
C17   N2    A    
C18   N1    A    
C22   O6    A    
C21   C36   S    
C22   C35   S    
C32   C36   A    
C24   C26   A    
C27   F2    S    
C10   O11   S    
N1    Zn1   S    
C33   C36   A    
O1    Zn1   S    
O8    Zn1   S    
C34   C35   A    
C5    F3    S    
C2    O2    A    
C23   C33   A    
C8    H7    S    
C14   C16   A    
C13   H1    S    
C16   O13   S    
C15   N2    A    
C4    C7    A    
C10   C12   A    
C16   N1    A    
O12   H14   S    
O2    Zn2   S    
C17   H10   S    
C5    C12   A    
C3    C8    A    
C6    C11   A    
C21   O7    A    
O5    Zn1   S    
C6    C8    A    
C24   C34   A    
C32   C34   A    
C9    O12   S    
C14   H2    S    
C9    C11   A    
C31   C33   A    
O3    Zn2   S    
C7    H8    S    
C1    O3    A    
C2    O4    A    
C15   O14   S    
C24   O10   S    
C13   C15   A    
C31   C35   A    
C18   H9    S    
C5    C7    A    
O6    Zn2   S    
C28   F1    S    
C6    F4    S    
C13   C20   A    
C29   H5    S    
C14   C19   A    
C22   O8    A    
C11   C12   A    
N2    Zn2   S    
C25   C27   A    
C26   C28   A    
C1    C4    S    
C28   C30   A    
C2    C3    S    
O13   H15   S    
C29   C31   A    
C3    C10   A    
C25   H3    S    
C21   O5    A    
C26   H4    S    
C17   C19   A    
C18   C20   A    
C23   C25   A    
O9    H11   S    
O4    Zn1   S    
O10   H12   S    
C23   O9    S    
O11   H13   S    
O7    Zn2   S    
C30   H6    S    
C4    C9    A    
C1    O1    A    
