data_mof_unit_33151.cif
_audit_creation_date              2012-12-11T15:24:11-0500
_audit_creation_method            fapswitch 2.2
_symmetry_space_group_name_H-M    P1
_symmetry_Int_Tables_number       1
_space_group_crystal_system       triclinic
_cell_length_a                    8.260774
_cell_length_b                    14.449727
_cell_length_c                    19.024409
_cell_angle_alpha                 92.967949
_cell_angle_beta                  94.198644
_cell_angle_gamma                 91.262912
_cell_volume                      2260.97309164

loop_
_atom_site_label
_atom_site_type_symbol
_atom_type_description
_atom_site_fract_x
_atom_site_fract_y
_atom_site_fract_z
_atom_type_partial_charge
Ba1   Ba    Ba6+2 0.150350 0.545800 0.464500 1.649783
Ba2   Ba    Ba6+2 0.659830 0.454190 0.535450 1.640850
C1    C     C_3   0.439206 0.807146 0.198338 0.342081
C2    C     C_R   0.819667 0.801539 0.497964 0.095254
C3    C     C_R   0.668636 0.771570 0.466060 -0.256069
C4    C     C_3   0.881374 0.776870 0.217497 0.799647
C5    C     C_R   0.558535 0.834392 0.438582 0.039954
C6    C     C_R   0.602509 0.927488 0.437088 -0.084753
C7    C     C_R   0.758835 0.960036 0.463001 0.005275
C8    C     C_R   0.863997 0.898910 0.498960 -0.039603
C9    C     C_R   0.947313 0.094341 0.493103 -0.065007
C10   C     C_R   0.047907 0.033864 0.533503 -0.074092
C11   C     C_R   0.990684 0.192844 0.496690 0.059544
C12   C     C_3   0.419146 0.765721 0.270307 0.421927
C13   C     C_R   0.134883 0.223608 0.534586 -0.348069
C14   C     C_R   0.240749 0.162662 0.566935 -0.035034
C15   C     C_R   0.193336 0.069213 0.570730 0.353128
C16   C     C_3   0.873167 0.779538 0.136652 -0.236109
C17   C     C_R   0.811252 0.052064 0.451401 0.064261
C18   C     C_R   0.600300 0.544213 0.296759 -0.332196
C19   C     C_R   0.458176 0.492521 0.277283 0.083942
C20   C     C_R   0.401134 0.482562 0.206021 -0.182718
C21   C     C_R   0.492303 0.518408 0.153447 -0.072952
C22   C     C_R   0.647758 0.559379 0.173307 0.335977
C23   C     C_3   0.510711 0.737355 0.632666 0.299603
C24   C     C_R   0.697750 0.575774 0.245406 -0.060461
C25   C     C_R   0.442775 0.583126 0.034061 -0.046019
C26   C     C_R   0.396979 0.572074 0.961876 -0.089741
C27   C     C_R   0.335440 0.486376 0.931861 0.059801
C28   C     C_3   0.785287 0.348205 0.330117 0.316596
C29   C     C_R   0.317335 0.412441 0.976167 -0.096945
C30   C     C_R   0.364348 0.423290 0.048421 -0.108629
C31   C     C_R   0.429798 0.508444 0.077949 0.080043
C32   C     C_R   0.144347 0.426963 0.829898 -0.139680
C33   C     C_R   0.099504 0.417598 0.757443 -0.006411
C34   C     C_3   0.576292 0.831163 0.663069 0.247341
C35   C     C_R   0.341622 0.504273 0.733084 0.066425
C36   C     C_R   0.387694 0.513700 0.805543 -0.073055
C37   C     C_R   0.290065 0.474272 0.854726 -0.000471
C38   C     C_R   0.201523 0.453132 0.709375 -0.270822
C39   C     C_3   0.751335 0.322548 0.251752 -0.395482
C40   C     C_3   0.052078 0.697865 0.680943 0.311809
C41   C     C_3   0.137807 0.766894 0.738199 0.382738
C42   C     C_3   0.303777 0.264753 0.387643 0.306833
C43   C     C_3   0.275221 0.161575 0.368980 -0.405930
C44   C     C_3   0.953343 0.624108 0.714555 -0.295713
C45   C     C_3   0.963944 0.205783 0.751777 0.312145
C46   C     C_3   0.347232 0.776342 0.829225 0.213802
C47   C     C_3   0.016212 0.825468 0.777983 -0.380277
C48   C     C_3   0.278436 0.817497 0.154361 -0.388078
C49   C     C_3   0.682247 0.972727 0.639073 0.232735
C50   C     C_3   0.467866 0.970122 0.222529 0.193178
C51   C     C_3   0.906009 0.873042 0.318636 0.234430
C52   C     C_3   0.391145 0.112246 0.888977 0.123700
C53   C     C_3   0.231746 0.013784 0.679139 0.181073
C54   C     C_3   0.752144 0.089753 0.381885 -0.362194
C55   C     C_3   0.823879 0.501833 0.096038 0.165632
C56   C     C_3   0.915579 0.118699 0.787605 -0.362471
C57   C     C_3   0.434819 0.248601 0.734607 0.492882
C58   C     C_3   0.458619 0.220651 0.810784 0.305763
C59   C     C_R   0.007389 0.937694 0.534167 -0.034294
H1    H     H_    0.361613 0.695396 0.260986 0.005532
H2    H     H_    0.259927 0.123439 0.417210 0.062857
H3    H     H_    0.380278 0.132896 0.342767 0.103546
H4    H     H_    0.542638 0.758067 0.296415 -0.153700
H5    H     H_    0.502761 0.753273 0.167960 -0.004473
H6    H     H_    0.609826 0.700887 0.607100 0.015047
H7    H     H_    0.407872 0.747033 0.592957 0.039367
H8    H     H_    0.687265 0.819197 0.697586 0.026744
H9    H     H_    0.484577 0.862433 0.695924 0.027161
H10   H     H_    0.745309 0.779003 0.114309 0.084474
H11   H     H_    0.996388 0.186844 0.697275 -0.010849
H12   H     H_    0.663934 0.262703 0.244180 0.119128
H13   H     H_    0.070525 0.237562 0.783852 0.016144
H14   H     H_    0.015705 0.068791 0.788267 0.076703
H15   H     H_    0.888766 0.136876 0.842923 0.104437
H16   H     H_    0.805605 0.085626 0.759328 0.114933
H17   H     H_    0.302918 0.256894 0.721113 -0.192369
H18   H     H_    0.499322 0.316319 0.731055 0.008614
H19   H     H_    0.412991 0.277406 0.845305 -0.062011
H20   H     H_    0.590656 0.212768 0.824608 0.051504
H21   H     H_    0.632872 0.699066 0.465873 0.056680
H22   H     H_    0.514409 0.974238 0.414666 0.059831
H23   H     H_    0.699333 0.381241 0.223802 0.043336
H24   H     H_    0.169918 0.296333 0.535930 0.074152
H25   H     H_    0.087772 0.893297 0.563435 0.139466
H26   H     H_    0.497135 0.553297 0.823411 0.065241
H27   H     H_    0.408920 0.630864 0.929601 0.062769
H28   H     H_    0.490021 0.650003 0.055547 0.083622
H29   H     H_    0.757528 0.759358 0.232054 -0.100684
H30   H     H_    0.287399 0.445310 0.191550 0.101889
H31   H     H_    0.270631 0.345487 0.954601 0.061028
H32   H     H_    0.354236 0.364260 0.080791 0.060260
H33   H     H_    0.062859 0.400746 0.866727 0.061779
H34   H     H_    0.865961 0.303629 0.228149 0.121882
H35   H     H_    0.164563 0.448111 0.653523 0.062501
H36   H     H_    0.643168 0.551932 0.351919 0.080010
H37   H     H_    0.933431 0.843291 0.119799 0.085326
H38   H     H_    0.933764 0.719319 0.112523 0.109997
H39   H     H_    0.670307 0.364628 0.353423 0.013340
H40   H     H_    0.869997 0.409226 0.336833 0.078910
H41   H     H_    0.924889 0.566361 0.674741 0.127700
H42   H     H_    0.020899 0.597197 0.761226 0.092358
H43   H     H_    0.838728 0.653111 0.732071 0.115280
H44   H     H_    0.296464 0.791532 0.880890 0.028872
H45   H     H_    0.146217 0.663586 0.650970 0.017739
H46   H     H_    0.377642 0.842804 0.805648 -0.013238
H47   H     H_    0.462661 0.739765 0.839028 0.052996
H48   H     H_    0.939839 0.864911 0.740710 0.097426
H49   H     H_    0.938208 0.781171 0.808267 0.106796
H50   H     H_    0.081135 0.877568 0.815362 0.080860
H51   H     H_    0.301313 0.846983 0.103136 0.096322
H52   H     H_    0.196700 0.863252 0.182965 0.170932
H53   H     H_    0.218669 0.748224 0.143257 0.094703
H54   H     H_    0.805317 0.960296 0.663542 -0.025936
H55   H     H_    0.605867 0.006948 0.677989 0.086822
H56   H     H_    0.212587 0.814486 0.708923 0.017648
H57   H     H_    0.697753 0.021141 0.597035 0.118350
H58   H     H_    0.412259 0.966783 0.273579 0.065610
H59   H     H_    0.378028 0.990399 0.180189 0.030165
H60   H     H_    0.561562 0.026629 0.228907 0.055476
H61   H     H_    0.774253 0.873483 0.326040 -0.000577
H62   H     H_    0.962580 0.939173 0.341468 0.064098
H63   H     H_    0.963823 0.816262 0.347743 0.078788
H64   H     H_    0.339345 0.165280 0.924811 0.033806
H65   H     H_    0.520925 0.101213 0.905661 0.029914
H66   H     H_    0.323615 0.045894 0.893679 0.057741
H67   H     H_    0.190971 0.293979 0.406241 0.017329
H68   H     H_    0.114306 0.974796 0.678415 -0.012837
H69   H     H_    0.217685 0.085477 0.701143 0.070370
H70   H     H_    0.320173 0.980825 0.715758 0.082048
H71   H     H_    0.858415 0.112206 0.354310 0.135961
H72   H     H_    0.693754 0.035733 0.344507 0.070461
H73   H     H_    0.660972 0.143485 0.388853 0.150544
H74   H     H_    0.927531 0.522917 0.065995 0.065727
H75   H     H_    0.737055 0.460562 0.058932 0.035175
H76   H     H_    0.872689 0.457666 0.138436 0.046094
H77   H     H_    0.403154 0.273691 0.430107 0.061162
H78   H     H_    0.164320 0.150539 0.332595 0.123044
O1    O     O_2   0.108370 0.727470 0.525290 -0.480127
O2    O     O_2   0.767781 0.439583 0.751484 -0.492825
O3    O     O_3   0.832050 0.265237 0.749234 -0.589392
O4    O     O_3   0.865330 0.611210 0.531230 -0.484328
O5    O     O_3   0.438280 0.453360 0.418700 -0.499202
O6    O     O_2   0.627420 0.543410 0.667830 -0.459000
O7    O     O_3   0.455240 0.690043 0.689073 -0.666959
O8    O     O_2   0.577982 0.165976 0.558839 -0.477764
O9    O     O_3   0.498939 0.181083 0.689207 -0.588934
O10   O     O_3   0.346360 0.671710 0.401620 -0.476907
O11   O     O_2   0.218973 0.833566 0.439153 -0.486721
O12   O     O_3   0.346056 0.307937 0.327254 -0.639554
O13   O     O_3   0.945064 0.747144 0.637075 -0.675894
O14   O     O_3   0.320990 0.820600 0.312187 -0.603367
O15   O     O_2   0.182890 0.456530 0.332150 -0.443462
O16   O     O_3   0.933230 0.625130 0.368420 -0.486976
O17   O     O_2   0.014710 0.537563 0.250922 -0.473905
O18   O     O_3   0.237598 0.717127 0.786261 -0.656061
O19   O     O_3   0.608761 0.889706 0.608707 -0.662935
O20   O     O_3   0.544500 0.887062 0.203269 -0.640242
O21   O     O_3   0.930680 0.866029 0.246239 -0.649907
O22   O     O_3   0.372221 0.136840 0.818208 -0.660533
O23   O     O_3   0.997531 0.712366 0.239966 -0.604667
O24   O     O_3   0.290187 0.012486 0.611219 -0.636937
O25   O     O_3   0.751784 0.582686 0.122950 -0.675649
O26   O     O_2   0.701930 0.272470 0.474700 -0.467948
O27   O     O_3   0.944970 0.388780 0.468720 -0.488259
O28   O     O_3   0.463940 0.328280 0.598320 -0.484379
O29   O     O_3   0.855085 0.271904 0.361155 -0.651200
O30   O     O_3   0.372010 0.546630 0.581240 -0.483356
O31   O     O_3   0.877070 0.374860 0.631520 -0.463422
P1    P     P_3+3 0.937730 0.712710 0.546710 0.976373
P2    P     P_3+3 0.357970 0.428340 0.344000 0.985835
P3    P     P_3+3 0.905967 0.616077 0.275535 0.958990
P4    P     P_3+3 0.872570 0.287280 0.453240 0.980217
P5    P     P_3+3 0.896302 0.373715 0.723670 0.948895
P6    P     P_3+3 0.359680 0.791804 0.399950 0.987490
P7    P     P_3+3 0.445415 0.571093 0.669137 0.956534
P8    P     P_3+3 0.443999 0.208178 0.602156 1.001754

loop_
_geom_bond_atom_site_label_1
_geom_bond_atom_site_label_2
_ccdc_geom_bond_type
C17   C54   S    
O11   P6    D    
C3    H21   S    
C2    P1    S    
C6    H22   S    
Ba2   O5    S    
C23   H6    S    
C54   H72   S    
C56   H15   S    
C5    C6    A    
O23   P3    S    
C46   H47   S    
C25   C31   A    
Ba2   O6    S    
O29   P4    S    
C52   H65   S    
C45   O3    S    
C9    C17   A    
C26   C27   A    
C43   H3    S    
C22   C24   A    
C32   C33   A    
C35   C38   A    
C51   H61   S    
C36   C37   A    
C46   H46   S    
C13   C14   A    
C12   H1    S    
C28   H39   S    
C43   H78   S    
C49   H57   S    
Ba1   Ba2   S    
C40   C44   S    
Ba1   O16   S    
C15   O24   S    
C56   H16   S    
C53   O24   S    
C7    C17   A    
C42   H67   S    
C18   H36   S    
C4    O23   S    
C34   H9    S    
C6    C7    A    
C53   H68   S    
C10   C15   A    
C26   H27   S    
C42   H77   S    
C20   H30   S    
C55   H75   S    
Ba1   O10   S    
C23   O7    S    
C40   O13   S    
C7    C8    A    
Ba2   O27   S    
C34   O19   S    
C13   H24   S    
C57   O9    S    
O16   P3    S    
C50   O20   S    
C30   H32   S    
C57   C58   S    
C19   C20   A    
C1    O20   S    
Ba2   O4    S    
C22   O25   S    
C23   H7    S    
C38   H35   S    
C57   H17   S    
O30   P7    S    
C1    C48   S    
C14   P8    S    
C56   H14   S    
O31   P5    S    
C11   P4    S    
C4    C16   S    
C52   H64   S    
O17   P3    D    
O27   P4    S    
C42   O12   S    
O15   P2    D    
C32   C37   A    
C51   H62   S    
C57   H18   S    
C3    C5    A    
O13   P1    S    
C14   C15   A    
C23   C34   S    
C24   P3    S    
C21   C31   S    
O26   P4    D    
C4    H29   S    
C39   H23   S    
C44   H43   S    
Ba1   P1    S    
C49   H54   S    
O12   P2    S    
O7    P7    S    
C48   H53   S    
C35   C36   A    
Ba1   O4    S    
C44   H41   S    
C58   H20   S    
C46   O18   S    
C4    O21   S    
C46   H44   S    
O14   P6    S    
C21   C22   A    
C53   H69   S    
C5    P6    S    
C27   C37   S    
C48   H51   S    
C58   O22   S    
C55   H76   S    
C28   C39   S    
Ba1   O1    S    
Ba2   O26   S    
C54   H71   S    
C1    C12   S    
C8    C59   A    
Ba2   O31   S    
C50   H59   S    
C41   H56   S    
O1    P1    D    
C53   H70   S    
C11   C13   A    
C12   O14   S    
C50   H60   S    
C1    H5    S    
C40   C41   S    
C2    C8    A    
C34   H8    S    
C47   H48   S    
C44   H42   S    
C16   H10   S    
C58   H19   S    
C51   O21   S    
O9    P8    S    
C49   O19   S    
C29   C30   A    
C41   C47   S    
C42   C43   S    
C32   H33   S    
C45   H13   S    
C2    C3    A    
C41   O18   S    
C51   H63   S    
C54   H73   S    
C9    C10   A    
O3    P5    S    
O4    P1    S    
C19   P2    S    
C35   P7    S    
C52   H66   S    
O5    P2    S    
Ba1   P2    S    
C49   H55   S    
C47   H50   S    
C36   H26   S    
C48   H52   S    
C33   P5    S    
C30   C31   A    
O10   P6    S    
C33   C38   A    
C28   O29   S    
C27   C29   A    
Ba1   O5    S    
Ba2   P4    S    
C45   C56   S    
C10   C59   A    
C9    C11   A    
O8    P8    D    
C39   H34   S    
C55   O25   S    
C18   C24   A    
Ba1   O27   S    
C28   H40   S    
Ba1   O30   S    
C12   H4    S    
C43   H2    S    
C25   H28   S    
C52   O22   S    
Ba1   O15   S    
C45   H11   S    
C59   H25   S    
Ba2   O30   S    
C39   H12   S    
C40   H45   S    
C50   H58   S    
O28   P8    S    
C18   C19   A    
C29   H31   S    
C16   H38   S    
O6    P7    D    
C25   C26   A    
O2    P5    D    
C20   C21   A    
C55   H74   S    
C16   H37   S    
Ba2   O28   S    
C47   H49   S    
