data_mof_unit_10896.cif
_audit_creation_date              2012-12-10T18:01:11-0500
_audit_creation_method            fapswitch 2.2
_symmetry_space_group_name_H-M    P1
_symmetry_Int_Tables_number       1
_space_group_crystal_system       triclinic
_cell_length_a                    18.468351
_cell_length_b                    18.21761
_cell_length_c                    26.043391
_cell_angle_alpha                 90.40821
_cell_angle_beta                  89.819757
_cell_angle_gamma                 89.892964
_cell_volume                      8761.99707928

loop_
_atom_site_label
_atom_site_type_symbol
_atom_type_description
_atom_site_fract_x
_atom_site_fract_y
_atom_site_fract_z
_atom_type_partial_charge
C1    C     C_R   0.857396 0.137622 0.752916 0.873416
C2    C     C_R   0.197578 0.195450 0.247721 -0.242561
C3    C     C_R   0.227572 0.672614 0.233357 -0.203139
C4    C     C_2   0.841935 0.242239 0.338229 1.104013
C5    C     C_2   0.290113 0.093413 0.247611 1.080138
C6    C     C_2   0.214949 0.175652 0.652304 1.141621
C7    C     C_2   0.715692 0.103855 0.704214 1.123863
C8    C     C_2   0.222754 0.623729 0.810814 1.067314
C9    C     C_2   0.784362 0.605261 0.796527 1.119454
C10   C     C_2   0.766004 0.630505 0.177423 1.137827
C11   C     C_2   0.215621 0.604343 0.203217 1.130713
C12   C     C_2   0.059225 0.131272 0.055043 1.013029
C13   C     C_R   0.188742 0.205047 0.743519 -0.259989
C14   C     C_2   0.041357 0.135379 0.947764 1.058976
C15   C     C_2   0.457162 0.632481 0.552575 1.087194
C16   C     C_2   0.517761 0.639374 0.450333 1.085803
C17   C     C_R   0.793956 0.186425 0.760512 -0.272829
C18   C     C_R   0.308288 0.702055 0.756068 -0.284548
C19   C     C_R   0.706179 0.686177 0.739675 -0.281708
C20   C     C_R   0.690328 0.703271 0.243528 -0.249355
C21   C     C_R   0.293646 0.686342 0.260196 -0.267113
C22   C     C_R   0.756958 0.203000 0.208158 0.372915
C23   C     C_R   0.179827 0.271039 0.246666 0.365313
C24   C     C_R   0.188917 0.263326 0.779513 0.409096
C25   C     C_R   0.137675 0.142848 0.748059 0.817701
C26   C     C_R   0.797326 0.247800 0.794272 0.362927
C27   C     C_R   0.319843 0.770165 0.730942 0.358884
C28   C     C_R   0.702981 0.746876 0.705795 0.347929
C29   C     C_R   0.682506 0.768874 0.273155 0.415357
C30   C     C_R   0.296654 0.747435 0.294143 0.367093
C31   C     C_R   0.262963 0.819629 0.728077 -0.252108
C32   C     C_R   0.752786 0.803051 0.711638 -0.210310
C33   C     C_R   0.740511 0.816750 0.275843 -0.240253
C34   C     C_R   0.246892 0.803553 0.288359 -0.253730
C35   C     C_R   0.702497 0.256045 0.208752 -0.248433
C36   C     C_R   0.139860 0.140253 0.249845 0.916310
C37   C     C_R   0.235145 0.322363 0.246709 -0.274142
C38   C     C_R   0.248455 0.308687 0.782065 -0.277998
C39   C     C_R   0.747308 0.303803 0.788496 -0.259106
C40   C     C_R   0.201875 0.811239 0.758955 -0.207581
C41   C     C_R   0.813959 0.794303 0.742243 -0.195300
C42   C     C_R   0.798328 0.810710 0.241629 -0.203343
C43   C     C_R   0.185955 0.794414 0.257468 -0.195792
C44   C     C_R   0.695706 0.305215 0.249818 -0.172061
C45   C     C_R   0.307543 0.300847 0.247012 -0.174615
C46   C     C_R   0.301652 0.306756 0.743952 -0.190359
C47   C     C_R   0.860669 0.141010 0.250692 0.934832
C48   C     C_R   0.686122 0.294383 0.757794 -0.200396
C49   C     C_R   0.988579 0.936378 0.975120 0.255658
C50   C     C_R   0.011187 0.932880 0.025942 0.343928
C51   C     C_R   0.497308 0.432925 0.474142 0.254240
C52   C     C_R   0.515970 0.434822 0.525716 0.344010
C53   C     C_R   0.018656 0.998836 0.053779 -0.234382
C54   C     C_R   0.001280 0.001758 0.947555 -0.261460
C55   C     C_R   0.501327 0.500078 0.553432 -0.236170
C56   C     C_R   0.499040 0.500190 0.446909 -0.258127
C57   C     C_R   0.031336 0.065026 0.027604 -0.136571
C58   C     C_R   0.357307 0.637604 0.252867 0.863218
C59   C     C_R   0.024334 0.066062 0.974202 -0.150365
C60   C     C_R   0.487614 0.566189 0.526923 -0.184170
C61   C     C_R   0.500494 0.567714 0.474397 -0.180034
C62   C     C_R   0.141694 0.862250 0.752512 0.855948
C63   C     C_R   0.862623 0.857496 0.748057 0.906112
C64   C     C_R   0.858422 0.861891 0.247601 0.883177
C65   C     C_R   0.137360 0.857454 0.251813 0.904277
C66   C     C_R   0.638165 0.358835 0.248472 0.936528
C67   C     C_R   0.361246 0.359109 0.249182 0.918623
C68   C     C_R   0.359604 0.360474 0.748577 0.869353
C69   C     C_R   0.638620 0.642026 0.248596 0.823756
C70   C     C_R   0.637391 0.357412 0.751884 0.886649
C71   C     C_R   0.998595 0.000474 0.891282 0.873370
C72   C     C_R   0.006383 0.999592 0.109267 0.913449
C73   C     C_R   0.499361 0.500101 0.391057 0.887238
C74   C     C_R   0.500669 0.499845 0.609074 0.899066
C75   C     C_R   0.999627 0.995136 0.609007 1.113821
C76   C     C_R   0.000435 0.994227 0.390788 1.122767
C77   C     C_R   0.500148 0.498270 0.108894 1.099024
C78   C     C_R   0.499974 0.497644 0.890944 1.120262
C79   C     C_3   0.932197 0.946865 0.530509 0.157869
C80   C     C_R   0.642655 0.637468 0.747163 0.878358
C81   C     C_3   0.070500 0.955739 0.529065 0.168609
C82   C     C_3   0.068544 0.946697 0.468706 0.142824
C83   C     C_3   0.930847 0.952576 0.469847 0.136361
C84   C     C_3   0.438453 0.445671 0.031052 0.144545
C85   C     C_3   0.575806 0.471444 0.027827 0.161065
C86   C     C_3   0.571598 0.460083 0.968196 0.141212
C87   C     C_3   0.433480 0.451960 0.970728 0.147795
C88   C     C_3   0.988039 0.077759 0.530428 0.363923
C89   C     C_3   0.011317 0.077100 0.469321 0.345931
C90   C     C_3   0.481551 0.582456 0.031227 0.348112
C91   C     C_R   0.360831 0.641390 0.751112 0.825873
C92   C     C_3   0.498894 0.583745 0.968677 0.344095
C93   C     C_3   0.998016 0.993306 0.551273 -0.520522
C94   C     C_3   0.002236 0.992147 0.448287 -0.519665
C95   C     C_3   0.499639 0.498739 0.051312 -0.511992
C96   C     C_3   0.500411 0.497844 0.948325 -0.524180
C97   C     C_R   0.200450 0.754731 0.795782 0.367322
C98   C     C_R   0.829095 0.724302 0.763268 0.365641
C99   C     C_R   0.795895 0.757615 0.201929 0.348589
C100  C     C_R   0.170822 0.724228 0.236254 0.356961
C101  C     C_R   0.744219 0.304138 0.291038 0.388327
C102  C     C_R   0.804261 0.198066 0.250436 -0.240670
C103  C     C_R   0.326952 0.225803 0.244572 0.396854
C104  C     C_R   0.293604 0.259804 0.700356 0.375116
C105  C     C_R   0.671040 0.223976 0.736960 0.357229
C106  C     C_R   0.796487 0.247730 0.292432 -0.223549
C107  C     C_R   0.271332 0.172672 0.246816 -0.199103
C108  C     C_R   0.236738 0.208698 0.701148 -0.361286
C109  C     C_R   0.727750 0.172424 0.734046 -0.203845
C110  C     C_R   0.246055 0.694461 0.788187 -0.181247
C111  C     C_R   0.772361 0.672895 0.766319 -0.201793
C112  C     C_R   0.748964 0.698100 0.207671 -0.314902
H1    H     H_    0.882597 0.974277 0.544017 0.193937
H2    H     H_    0.745063 0.853175 0.690191 0.237198
H3    H     H_    0.738613 0.861863 0.303087 0.236496
H4    H     H_    0.254370 0.853823 0.310151 0.233040
H5    H     H_    0.664698 0.259208 0.177186 0.198128
H6    H     H_    0.221885 0.380335 0.247284 0.230903
H7    H     H_    0.250621 0.349475 0.812491 0.237277
H8    H     H_    0.754952 0.354323 0.809961 0.236888
H9    H     H_    0.955979 0.747731 0.563966 0.395757
H10   H     H_    0.099794 0.819800 0.634398 0.372324
H11   H     H_    0.183019 0.797630 0.418406 0.397004
H12   H     H_    0.109258 0.999681 0.534788 0.205137
H13   H     H_    0.888199 0.821232 0.360525 0.374792
H14   H     H_    0.476450 0.247193 0.062735 0.404601
H15   H     H_    0.618238 0.304277 0.096536 0.394493
H16   H     H_    0.690144 0.328198 0.902169 0.393549
H17   H     H_    0.386559 0.321110 0.862322 0.374041
H18   H     H_    0.781941 0.104577 0.522552 0.425208
H19   H     H_    0.041125 0.182767 0.647924 0.363189
H20   H     H_    0.217723 0.109624 0.478724 0.430742
H21   H     H_    0.022313 0.187759 0.369290 0.427718
H22   H     H_    0.273773 0.588679 0.032052 0.417504
H23   H     H_    0.117743 0.973606 0.454223 0.209707
H24   H     H_    0.538924 0.685825 0.148849 0.366056
H25   H     H_    0.700690 0.635868 0.964629 0.426042
H26   H     H_    0.427391 0.681739 0.853459 0.366768
H27   H     H_    0.163561 0.718044 0.931593 0.422345
H28   H     H_    0.980014 0.597187 0.790808 0.415297
H29   H     H_    0.835868 0.723315 0.065803 0.425006
H30   H     H_    0.019443 0.597292 0.209133 0.411057
H31   H     H_    0.815306 0.422783 0.394337 0.406499
H32   H     H_    0.477125 0.106340 0.201842 0.409217
H33   H     H_    0.365406 0.220758 0.567930 0.428360
H34   H     H_    0.888285 0.992738 0.461182 0.205505
H35   H     H_    0.520998 0.096303 0.709147 0.411032
H36   H     H_    0.841430 0.251252 0.415516 0.412571
H37   H     H_    0.343630 0.011521 0.282889 0.369082
H38   H     H_    0.268871 0.080956 0.664466 0.329887
H39   H     H_    0.695317 0.057424 0.635273 0.372305
H40   H     H_    0.153124 0.538752 0.807561 0.374169
H41   H     H_    0.804524 0.560956 0.865753 0.373195
H42   H     H_    0.853953 0.607232 0.220085 0.320593
H43   H     H_    0.194997 0.558608 0.134087 0.362283
H44   H     H_    0.837550 0.211282 0.113262 0.381546
H45   H     H_    0.387132 0.468138 0.045585 0.192602
H46   H     H_    0.084668 0.313800 0.164748 0.355415
H47   H     H_    0.057909 0.323626 0.738574 0.353396
H48   H     H_    0.811109 0.158396 0.885889 0.353528
H49   H     H_    0.454619 0.799452 0.782226 0.349679
H50   H     H_    0.683456 0.652857 0.615958 0.351660
H51   H     H_    0.514653 0.751967 0.254953 0.369915
H52   H     H_    0.309929 0.655700 0.384947 0.351922
H53   H     H_    0.843829 0.932123 0.930022 0.353423
H54   H     H_    0.138118 0.820673 0.099419 0.406441
H55   H     H_    0.356210 0.396844 0.431852 0.350188
H56   H     H_    0.608329 0.520853 0.032086 0.199731
H57   H     H_    0.649983 0.349965 0.609881 0.395905
H58   H     H_    0.046497 0.238698 0.072046 0.364597
H59   H     H_    0.006424 0.236805 0.928860 0.408054
H60   H     H_    0.369502 0.679422 0.585670 0.382452
H61   H     H_    0.485961 0.742602 0.434229 0.413509
H62   H     H_    0.617535 0.491074 0.952313 0.206639
H63   H     H_    0.387091 0.488284 0.963419 0.200731
H64   H     H_    0.268218 0.867275 0.703711 0.238159
O1    O     O_3   0.000000 0.000000 0.749970 -0.576885
O2    O     O_R   0.646190 0.585480 0.219360 -0.615325
O3    O     O_3   0.460230 0.645152 0.869072 -0.552302
O4    O     O_2   0.143766 0.841482 0.871169 -0.262497
O5    O     O_2   0.079198 0.727706 0.849102 -0.188483
O6    O     O_3   0.197483 0.718973 0.902075 -0.474235
O7    O     O_2   0.974102 0.733575 0.746991 -0.279823
O8    O     O_2   0.930811 0.720619 0.835876 -0.152162
O9    O     O_3   0.931446 0.606229 0.776071 -0.516644
O10   O     O_2   0.854547 0.846757 0.129732 -0.237248
O11   O     O_2   0.916931 0.730616 0.148891 -0.201706
O12   O     O_3   0.799960 0.727091 0.094028 -0.469005
O13   O     O_R   0.646190 0.585480 0.780640 -0.621954
O14   O     O_2   0.026073 0.733898 0.253419 -0.279859
O15   O     O_2   0.067762 0.720245 0.164129 -0.198601
O16   O     O_3   0.068462 0.606248 0.223163 -0.504325
O17   O     O_2   0.712446 0.445833 0.318440 -0.329400
O18   O     O_2   0.691798 0.349977 0.382093 -0.209105
O19   O     O_3   0.823847 0.391521 0.363630 -0.501125
O20   O     O_2   0.460132 0.256076 0.205150 -0.303116
O21   O     O_2   0.454416 0.189144 0.286279 -0.194591
O22   O     O_3   0.425040 0.119411 0.201562 -0.505950
O23   O     O_2   0.355598 0.345726 0.628075 -0.275140
O24   O     O_R   0.353810 0.585480 0.780640 -0.628597
O25   O     O_2   0.424950 0.239659 0.658412 -0.184755
O26   O     O_3   0.324534 0.217756 0.592526 -0.478263
O27   O     O_2   0.525853 0.234700 0.752309 -0.269206
O28   O     O_2   0.570508 0.217736 0.663825 -0.184347
O29   O     O_3   0.568798 0.105991 0.724935 -0.511225
O30   O     O_2   0.907231 0.250334 0.334582 -0.521624
O31   O     O_R   0.808410 0.236984 0.386247 -0.669788
O32   O     O_2   0.266240 0.052007 0.214613 -0.602328
O33   O     O_R   0.334891 0.066303 0.286309 -0.692559
O34   O     O_2   0.181223 0.213951 0.622480 -0.476991
O35   O     O_R   0.146170 0.914530 0.719320 -0.637606
O36   O     O_R   0.237254 0.105104 0.637675 -0.641365
O37   O     O_2   0.715514 0.044566 0.726003 -0.577849
O38   O     O_R   0.702995 0.107600 0.651416 -0.712591
O39   O     O_2   0.252073 0.600131 0.849365 -0.482750
O40   O     O_R   0.164981 0.585709 0.788665 -0.772728
O41   O     O_2   0.784846 0.545305 0.775046 -0.577552
O42   O     O_R   0.796778 0.610635 0.849334 -0.715386
O43   O     O_2   0.728478 0.613244 0.140788 -0.428408
O44   O     O_R   0.826435 0.587679 0.189297 -0.710912
O45   O     O_2   0.215555 0.544833 0.224711 -0.585946
O46   O     O_R   0.853830 0.914530 0.719320 -0.620779
O47   O     O_R   0.202628 0.608628 0.150478 -0.723260
O48   O     O_2   0.764477 0.064257 0.173462 -0.259856
O49   O     O_2   0.699564 0.151671 0.119452 -0.242277
O50   O     O_3   0.839905 0.158537 0.122095 -0.481465
O51   O     O_2   0.046219 0.264791 0.287257 -0.234288
O52   O     O_2   0.087360 0.385440 0.259361 -0.216499
O53   O     O_3   0.051420 0.290199 0.189538 -0.478719
O54   O     O_2   0.092001 0.247792 0.855079 -0.192249
O55   O     O_2   0.118372 0.373328 0.829033 -0.262878
O56   O     O_3   0.041451 0.292734 0.767484 -0.480863
O57   O     O_R   0.853830 0.914530 0.280680 -0.624947
O58   O     O_2   0.929382 0.277717 0.831561 -0.129597
O59   O     O_2   0.827422 0.308681 0.886881 -0.248387
O60   O     O_3   0.861592 0.171366 0.876827 -0.491254
O61   O     O_2   0.419612 0.764902 0.656138 -0.183218
O62   O     O_2   0.404748 0.882445 0.700500 -0.242516
O63   O     O_3   0.470381 0.778019 0.748956 -0.483004
O64   O     O_2   0.572641 0.782285 0.668745 -0.103810
O65   O     O_2   0.675956 0.804292 0.612593 -0.216450
O66   O     O_3   0.633772 0.670001 0.624079 -0.489189
O67   O     O_2   0.578625 0.752656 0.345809 -0.201707
O68   O     O_R   0.146170 0.914530 0.280680 -0.635301
O69   O     O_2   0.609088 0.877483 0.321752 -0.193694
O70   O     O_3   0.535174 0.801959 0.256489 -0.483662
O71   O     O_2   0.427147 0.778614 0.333082 -0.171010
O72   O     O_2   0.323369 0.805600 0.387876 -0.236236
O73   O     O_3   0.360247 0.669224 0.375825 -0.506220
O74   O     O_2   0.981977 0.809197 0.922335 -0.104684
O75   O     O_2   0.896416 0.824215 0.993367 -0.220827
O76   O     O_3   0.871622 0.895447 0.909729 -0.522639
O77   O     O_2   0.993959 0.804459 0.074676 -0.145776
O78   O     O_2   0.081805 0.806835 0.004239 -0.227792
O79   O     O_R   0.646170 0.414530 0.219320 -0.587255
O80   O     O_3   0.117457 0.868997 0.090169 -0.531624
O81   O     O_2   0.517966 0.309689 0.417821 -0.126656
O82   O     O_2   0.435049 0.300106 0.490736 -0.218740
O83   O     O_3   0.389890 0.367596 0.410197 -0.512635
O84   O     O_2   0.518606 0.308952 0.579201 -0.158540
O85   O     O_2   0.606325 0.320078 0.509006 -0.178512
O86   O     O_3   0.630200 0.393807 0.592496 -0.559718
O87   O     O_2   0.114234 0.126780 0.080882 -0.574807
O88   O     O_R   0.022338 0.198114 0.051548 -0.728328
O89   O     O_2   0.102676 0.146159 0.931813 -0.559296
O90   O     O_R   0.353830 0.414530 0.219320 -0.617204
O91   O     O_R   0.987784 0.189281 0.943756 -0.652011
O92   O     O_2   0.494094 0.687606 0.558114 -0.477455
O93   O     O_R   0.385804 0.630772 0.570522 -0.768746
O94   O     O_2   0.577612 0.648805 0.431315 -0.528659
O95   O     O_R   0.466905 0.696272 0.450780 -0.694428
O96   O     O_R   0.353830 0.414530 0.780680 -0.628837
O97   O     O_3   0.000000 0.000000 0.250030 -0.577516
O98   O     O_R   0.646170 0.414530 0.780680 -0.628464
O99   O     O_R   0.085450 0.146180 0.780600 -0.549558
O100  O     O_R   0.914550 0.146180 0.780600 -0.551687
O101  O     O_R   0.914550 0.146180 0.219400 -0.565137
O102  O     O_R   0.085450 0.146180 0.219400 -0.573814
O103  O     O_R   0.585450 0.646180 0.280600 -0.604993
O104  O     O_R   0.414550 0.646180 0.280600 -0.588310
O105  O     O_R   0.414550 0.646180 0.719400 -0.556523
O106  O     O_R   0.585450 0.646180 0.719400 -0.542959
O107  O     O_R   0.914560 0.853830 0.780620 -0.557357
O108  O     O_3   0.500000 0.500000 0.249970 -0.577168
O109  O     O_R   0.085440 0.853830 0.780620 -0.551676
O110  O     O_R   0.085440 0.853830 0.219380 -0.572764
O111  O     O_R   0.914560 0.853830 0.219380 -0.553225
O112  O     O_R   0.414560 0.353830 0.280620 -0.571454
O113  O     O_R   0.585440 0.353830 0.280620 -0.575587
O114  O     O_R   0.585440 0.353830 0.719380 -0.576400
O115  O     O_R   0.414560 0.353830 0.719380 -0.544642
O116  O     O_R   0.000000 0.060730 0.866830 -0.624549
O117  O     O_R   0.000000 0.060730 0.133170 -0.624194
O118  O     O_R   0.500000 0.560730 0.366830 -0.615553
O119  O     O_3   0.500000 0.500000 0.750030 -0.573431
O120  O     O_R   0.500000 0.560730 0.633170 -0.628179
O121  O     O_R   0.939250 0.000010 0.633130 -0.572200
O122  O     O_R   0.060750 0.000010 0.633130 -0.559877
O123  O     O_R   0.060750 0.000010 0.366870 -0.581351
O124  O     O_R   0.939250 0.000010 0.366870 -0.551582
O125  O     O_R   0.439250 0.500010 0.133130 -0.576109
O126  O     O_R   0.560750 0.500010 0.133130 -0.559963
O127  O     O_R   0.560750 0.500010 0.866870 -0.592321
O128  O     O_R   0.439250 0.500010 0.866870 -0.542496
O129  O     O_R   0.000000 0.939270 0.866820 -0.551308
O130  O     O_R   0.853810 0.085480 0.719360 -0.619146
O131  O     O_R   0.000000 0.939270 0.133180 -0.564358
O132  O     O_R   0.500000 0.439270 0.366820 -0.561853
O133  O     O_R   0.500000 0.439270 0.633180 -0.565746
O134  O     O_2   0.910915 0.865229 0.618561 -0.303718
O135  O     O_2   0.840281 0.832205 0.544380 -0.183822
O136  O     O_3   0.974682 0.792613 0.547305 -0.393405
O137  O     O_2   0.152588 0.825886 0.536854 -0.157205
O138  O     O_2   0.180213 0.926144 0.594387 -0.228948
O139  O     O_3   0.066612 0.849912 0.613383 -0.516198
O140  O     O_2   0.055758 0.794092 0.468522 -0.130976
O141  O     O_R   0.146190 0.085480 0.719360 -0.654288
O142  O     O_2   0.056671 0.852512 0.385043 -0.303237
O143  O     O_3   0.175988 0.846549 0.434535 -0.462712
O144  O     O_2   0.916186 0.799910 0.457231 -0.145327
O145  O     O_2   0.811811 0.877196 0.440833 -0.210694
O146  O     O_3   0.911578 0.867076 0.372629 -0.530052
O147  O     O_2   0.431657 0.361620 0.119402 -0.286961
O148  O     O_2   0.355438 0.325116 0.048902 -0.196111
O149  O     O_3   0.490969 0.292757 0.044928 -0.407972
O150  O     O_2   0.688707 0.369812 0.028819 -0.177998
O151  O     O_2   0.684543 0.458023 0.097507 -0.185054
O152  O     O_R   0.146190 0.085480 0.280640 -0.619305
O153  O     O_3   0.593044 0.351904 0.101157 -0.509948
O154  O     O_2   0.584434 0.307651 0.975806 -0.130650
O155  O     O_2   0.552623 0.354323 0.891662 -0.292760
O156  O     O_3   0.682377 0.373268 0.922950 -0.474859
O157  O     O_2   0.438689 0.300272 0.954607 -0.136652
O158  O     O_2   0.321411 0.361063 0.951009 -0.213809
O159  O     O_3   0.405915 0.369269 0.873584 -0.525541
O160  O     O_2   0.875055 0.108280 0.599557 -0.237081
O161  O     O_2   0.892450 0.196845 0.533798 -0.147011
O162  O     O_3   0.825883 0.077884 0.510940 -0.552901
O163  O     O_R   0.853810 0.085480 0.280640 -0.612556
O164  O     O_2   0.118635 0.115382 0.572182 -0.213125
O165  O     O_2   0.039460 0.218108 0.548930 -0.130008
O166  O     O_3   0.010041 0.146414 0.630178 -0.561760
O167  O     O_2   0.125056 0.107597 0.400117 -0.271467
O168  O     O_2   0.106556 0.196518 0.466256 -0.150928
O169  O     O_3   0.175485 0.078688 0.487558 -0.526701
O170  O     O_2   0.879808 0.116701 0.425494 -0.234145
O171  O     O_2   0.960617 0.217042 0.451500 -0.192976
O172  O     O_3   0.991097 0.143669 0.370063 -0.552516
O173  O     O_2   0.372174 0.607791 0.104601 -0.234818
O174  O     O_R   0.353810 0.585480 0.219360 -0.615653
O175  O     O_2   0.375558 0.692056 0.035621 -0.133488
O176  O     O_3   0.319101 0.565851 0.019160 -0.561503
O177  O     O_2   0.613886 0.638504 0.068508 -0.207475
O178  O     O_2   0.518164 0.727176 0.050486 -0.136079
O179  O     O_3   0.507549 0.649570 0.131220 -0.570429
O180  O     O_2   0.598392 0.627645 0.894273 -0.256104
O181  O     O_2   0.577953 0.713494 0.962669 -0.134676
O182  O     O_3   0.662045 0.604380 0.978999 -0.546363
O183  O     O_2   0.358414 0.608232 0.930450 -0.195651
O184  O     O_2   0.431087 0.716925 0.950358 -0.152103
S1    S     S_3+6 0.913792 0.858112 0.561160 0.141641
S2    S     S_3+6 0.042093 0.141404 0.569586 0.145204
S3    S     S_3+6 0.105197 0.115420 0.455726 0.086019
S4    S     S_3+6 0.957204 0.140296 0.430145 0.111829
S5    S     S_3+6 0.386335 0.612516 0.048028 0.110421
S6    S     S_3+6 0.533648 0.650957 0.069201 0.140110
S7    S     S_3+6 0.585087 0.632974 0.951047 0.103270
S8    S     S_3+6 0.433538 0.639189 0.930813 0.147135
S9    S     S_3+6 0.152293 0.762426 0.855236 0.118146
S10   S     S_3+6 0.918967 0.697515 0.781084 0.111916
S11   S     S_3+6 0.844570 0.767179 0.142926 0.123691
S12   S     S_3+6 0.119185 0.887008 0.567631 0.154551
S13   S     S_3+6 0.080731 0.697475 0.218660 0.096328
S14   S     S_3+6 0.740975 0.374893 0.339568 0.077418
S15   S     S_3+6 0.419382 0.198804 0.234748 0.094366
S16   S     S_3+6 0.351009 0.266733 0.644143 0.106627
S17   S     S_3+6 0.581397 0.196985 0.718969 0.102234
S18   S     S_3+6 0.763048 0.142123 0.154799 0.083486
S19   S     S_3+6 0.089402 0.304611 0.247328 0.107783
S20   S     S_3+6 0.109465 0.295637 0.810219 0.114937
S21   S     S_3+6 0.855534 0.253741 0.848371 0.109334
S22   S     S_3+6 0.404711 0.800535 0.707250 0.122806
S23   S     S_3+6 0.085665 0.857088 0.438745 0.141907
S24   S     S_3+6 0.644777 0.752918 0.651793 0.144929
S25   S     S_3+6 0.600360 0.800462 0.301617 0.138537
S26   S     S_3+6 0.353503 0.752541 0.348816 0.093310
S27   S     S_3+6 0.934501 0.863197 0.950426 0.154000
S28   S     S_3+6 0.050511 0.849886 0.048493 0.150949
S29   S     S_3+6 0.460828 0.349433 0.448497 0.152788
S30   S     S_3+6 0.567835 0.360926 0.551392 0.147273
S31   S     S_3+6 0.892764 0.872036 0.435625 0.155244
S32   S     S_3+6 0.428825 0.355274 0.061963 0.147055
S33   S     S_3+6 0.637630 0.411166 0.063451 0.155897
S34   S     S_3+6 0.594479 0.370417 0.939757 0.145505
S35   S     S_3+6 0.400353 0.368481 0.937837 0.156403
S36   S     S_3+6 0.894588 0.115866 0.543932 0.107802
Zn1   Zn    Zn3+2 0.086750 0.999990 0.706190 1.091662
Zn2   Zn    Zn3+2 0.000000 0.086770 0.206250 1.149878
Zn3   Zn    Zn3+2 0.500000 0.586770 0.293750 1.104122
Zn4   Zn    Zn3+2 0.500000 0.586770 0.706250 1.137495
Zn5   Zn    Zn3+2 0.000000 0.913230 0.793740 1.171647
Zn6   Zn    Zn3+2 0.000000 0.913230 0.206260 1.180908
Zn7   Zn    Zn3+2 0.500000 0.413230 0.293740 1.173684
Zn8   Zn    Zn3+2 0.500000 0.413230 0.706260 1.159847
Zn9   Zn    Zn3+2 0.913250 0.999990 0.706190 1.121983
Zn10  Zn    Zn3+2 0.913250 0.999990 0.293810 1.151345
Zn11  Zn    Zn3+2 0.086750 0.999990 0.293810 1.127891
Zn12  Zn    Zn3+2 0.586750 0.499990 0.206190 1.161703
Zn13  Zn    Zn3+2 0.413250 0.499990 0.206190 1.116728
Zn14  Zn    Zn3+2 0.413250 0.499990 0.793810 1.117285
Zn15  Zn    Zn3+2 0.586750 0.499990 0.793810 1.116957
Zn16  Zn    Zn3+2 0.000000 0.086770 0.793750 1.131555

loop_
_geom_bond_atom_site_label_1
_geom_bond_atom_site_label_2
_ccdc_geom_bond_type
C9    O42   S    
O126  Zn12  S    
O9    S10   S    
C82   C94   S    
O2    Zn12  S    
O97   Zn10  S    
C90   C95   S    
C25   O141  A    
C78   O128  A    
C14   C59   S    
C75   C93   S    
C50   S28   S    
H28   O9    S    
C68   O96   A    
C57   C59   A    
C39   H8    S    
C69   O103  A    
C29   C33   A    
C2    C36   S    
O11   S11   D    
O18   S14   D    
C89   C94   S    
O35   Zn1   S    
O8    S10   D    
C84   S32   S    
C76   C94   S    
O111  Zn6   S    
C3    C100  A    
C78   C96   S    
O139  S12   S    
O164  S2    D    
H59   O91   S    
C31   H64   S    
O144  S31   D    
O99   Zn16  S    
H15   O153  S    
O58   S21   D    
H55   O83   S    
O90   Zn13  S    
H24   O179  S    
O110  Zn6   S    
O140  S23   D    
O20   S15   D    
O85   S30   D    
C65   O68   A    
O82   S29   D    
C27   C31   A    
C51   C52   A    
C28   C32   A    
C15   O92   D    
C11   O47   S    
C86   S34   S    
O14   S13   D    
O131  Zn6   S    
C23   C37   A    
C28   S24   S    
C86   H62   S    
H38   O36   S    
O17   S14   D    
C69   O2    A    
C90   C92   S    
C48   C105  A    
O108  Zn3   S    
C38   H7    S    
O149  S32   S    
O156  S34   S    
O120  Zn4   S    
C99   S11   S    
O125  Zn13  S    
C41   C63   S    
C37   C45   A    
C42   C64   S    
C24   S20   S    
C16   O95   S    
O123  Zn11  S    
O116  Zn16  S    
C5    C107  S    
C56   C73   S    
O100  Zn16  S    
O68   Zn11  S    
O157  S35   D    
C48   C70   S    
C8    O40   S    
C17   C109  A    
C44   C101  A    
C19   C111  A    
O181  S7    D    
C75   O122  A    
O86   S30   S    
O46   Zn9   S    
O177  S6    D    
O55   S20   D    
O127  Zn15  S    
H9    O136  S    
O72   S26   D    
H52   O73   S    
C19   C80   S    
H17   O159  S    
C3    C11   S    
C7    C109  S    
C88   C89   S    
O150  S33   D    
H48   O60   S    
C68   O115  A    
C103  C107  A    
O83   S29   S    
C30   S26   S    
O143  S23   S    
O98   Zn15  S    
C47   O101  A    
O1    Zn1   S    
O159  S35   S    
O56   S20   S    
O7    S10   D    
C85   S33   S    
O26   S16   S    
C15   C60   S    
H43   O47   S    
C89   S3    S    
O151  S33   D    
C85   C86   S    
H40   O40   S    
H13   O146  S    
O135  S1    D    
C33   C42   A    
O80   S28   S    
O19   S14   S    
O24   Zn14  S    
C92   C96   S    
H35   O29   S    
C12   O88   S    
O162  S36   S    
H36   O31   S    
C103  S15   S    
C87   S35   S    
C32   C41   A    
O79   Zn12  S    
C58   O174  A    
O1    Zn5   S    
O65   S24   D    
C51   S29   S    
O103  Zn3   S    
C13   C108  A    
O106  Zn4   S    
H26   O3    S    
H46   O53   S    
C10   O43   D    
O137  S12   D    
C54   C59   A    
O15   S13   D    
O117  Zn2   S    
C30   C34   A    
O119  Zn14  S    
O148  S32   D    
C66   O113  A    
H61   O95   S    
O75   S27   D    
O179  S6    S    
C4    C106  S    
C73   O118  A    
C104  S16   S    
C84   C95   S    
O118  Zn3   S    
C46   C68   S    
C67   O112  A    
C8    C110  S    
O152  Zn11  S    
H30   O16   S    
H19   O166  S    
C19   C28   A    
O77   S28   D    
C36   O102  A    
O145  S31   D    
O147  S32   D    
O54   S20   D    
C12   C57   S    
O108  Zn12  S    
O132  Zn7   S    
C79   H1    S    
C71   O116  A    
C91   O24   A    
C14   O91   S    
O59   S21   D    
C9    O41   D    
C101  C106  A    
C105  C109  A    
O134  S1    D    
C34   C43   A    
C76   O123  A    
C16   O94   D    
C52   C55   A    
C77   O126  A    
C5    O33   S    
O176  S5    S    
O1    Zn16  S    
C1    C17   S    
O73   S26   S    
O63   S22   S    
C21   C58   S    
C55   C74   S    
C74   O133  A    
C85   C95   S    
O153  S33   S    
O62   S22   D    
H14   O149  S    
C91   O105  A    
C38   C46   A    
C7    O38   S    
C35   H5    S    
O71   S26   D    
O167  S3    D    
C49   C50   A    
C16   C61   S    
C2    C23   A    
O50   S18   S    
O97   Zn2   S    
O161  S36   D    
C80   O106  A    
C70   O98   A    
H53   O76   S    
C88   S2    S    
C80   O13   A    
C63   O46   A    
O48   S18   D    
C105  S17   S    
O112  Zn7   S    
C79   S1    S    
H10   O139  S    
O13   Zn15  S    
H37   O33   S    
O101  Zn2   S    
H33   O26   S    
C26   C39   A    
O64   S24   D    
C90   S6    S    
C97   S9    S    
O61   S22   D    
C31   C40   A    
C81   S12   S    
C82   H23   S    
C1    O100  A    
O113  Zn7   S    
C20   C112  A    
O114  Zn8   S    
C54   C71   S    
O76   S27   S    
C45   C67   S    
C92   S7    S    
C10   C112  S    
O3    S8    S    
H50   O66   S    
C72   O117  A    
C14   O89   D    
O163  Zn10  S    
C8    O39   D    
C55   C60   A    
C11   O45   D    
O182  S7    S    
O97   Zn11  S    
O23   S16   D    
C78   O127  A    
C82   S23   S    
C33   H3    S    
C63   O107  A    
C50   C53   A    
O6    S9    S    
O74   S27   D    
C43   C100  A    
O175  S5    D    
C40   C97   A    
O184  S8    D    
C67   O90   A    
C53   C57   A    
C100  S13   S    
C83   C94   S    
H11   O143  S    
O124  Zn10  S    
O119  Zn15  S    
C60   C61   A    
C75   O121  A    
O70   S25   S    
C83   H34   S    
C52   S30   S    
O1    Zn9   S    
C43   C65   S    
H31   O19   S    
O102  Zn2   S    
O25   S16   D    
C49   S27   S    
H27   O6    S    
C86   C96   S    
C101  S14   S    
C64   O111  A    
C58   O104  A    
O67   S25   D    
C27   S22   S    
C98   S10   S    
H42   O44   S    
C70   O114  A    
C104  C108  A    
O29   S17   S    
C87   H63   S    
C4    O31   S    
O84   S30   D    
O128  Zn14  S    
O108  Zn7   S    
C83   S31   S    
H25   O182  S    
O16   S13   S    
C18   C110  A    
O155  S34   D    
O49   S18   D    
H49   O63   S    
C47   O163  A    
C21   C30   A    
C90   S5    S    
O22   S15   S    
H47   O56   S    
O97   Zn6   S    
O170  S4    D    
C25   O99   A    
C5    O32   D    
C79   C83   S    
O57   Zn10  S    
C46   C104  A    
H57   O86   S    
C22   S18   S    
C18   C91   S    
O121  Zn9   S    
O119  Zn4   S    
O180  S7    D    
H16   O156  S    
C56   C61   A    
C65   O110  A    
H51   O70   S    
C53   C72   S    
C39   C48   A    
C9    C111  S    
O178  S6    D    
O69   S25   D    
C44   C66   S    
C84   C87   S    
O52   S19   D    
O158  S35   D    
C71   O129  A    
C81   C82   S    
C10   O44   S    
C22   C35   A    
O154  S34   D    
C17   C26   A    
H58   O88   S    
C79   C93   S    
O109  Zn5   S    
O142  S23   D    
H21   O172  S    
C6    O36   S    
O104  Zn3   S    
C34   H4    S    
C49   C54   A    
C2    C107  A    
C40   C62   S    
C51   C56   A    
H29   O12   S    
O12   S11   S    
C45   C103  A    
C72   O131  A    
O172  S4    S    
C37   H6    S    
H39   O38   S    
O119  Zn8   S    
C24   C38   A    
C62   O35   A    
O107  Zn5   S    
O4    S9    D    
O138  S12   D    
C13   C25   S    
O166  S2    S    
O81   S29   D    
O28   S17   D    
C89   S4    S    
C20   C29   A    
H18   O162  S    
C81   H12   S    
C76   O124  A    
O168  S3    D    
C77   O125  A    
O160  S36   D    
C77   C95   S    
O133  Zn8   S    
C36   O152  A    
C13   C24   A    
C12   O87   D    
O60   S21   S    
C81   C93   S    
H54   O80   S    
C87   C96   S    
O169  S3    S    
O122  Zn1   S    
O129  Zn5   S    
C35   C44   A    
H41   O42   S    
C7    O37   D    
O141  Zn1   S    
O5    S9    D    
O96   Zn14  S    
O108  Zn13  S    
C20   C69   S    
C3    C21   A    
O105  Zn4   S    
O165  S2    D    
H44   O50   S    
C88   C93   S    
C88   S36   S    
C98   C111  A    
C85   H56   S    
O171  S4    D    
O21   S15   D    
C29   S25   S    
C18   C27   A    
O53   S19   S    
H60   O93   S    
C84   H45   S    
C4    O30   D    
C6    O34   D    
O78   S28   D    
O66   S24   S    
C1    O130  A    
C22   C102  A    
C74   O120  A    
C62   O109  A    
C64   O57   A    
C15   O93   S    
C42   C99   A    
C97   C110  A    
O130  Zn9   S    
O183  S8    D    
O174  Zn13  S    
C99   C112  A    
C102  C106  A    
H22   O176  S    
O115  Zn8   S    
O10   S11   D    
O136  S1    S    
O146  S31   S    
H32   O22   S    
C66   O79   A    
O51   S19   D    
H20   O169  S    
C47   C102  S    
C6    C108  S    
C41   C98   A    
C92   S8    S    
C23   S19   S    
C32   H2    S    
O27   S17   D    
C73   O132  A    
O173  S5    D    
C26   S21   S    
