data_mof_unit_19673.cif
_audit_creation_date              2013-03-05T16:07:56-0500
_audit_creation_method            fapswitch 2.2
_symmetry_space_group_name_H-M    P1
_symmetry_Int_Tables_number       1
_space_group_crystal_system       triclinic
_cell_length_a                    6.939258
_cell_length_b                    14.604606
_cell_length_c                    15.962408
_cell_angle_alpha                 90.285127
_cell_angle_beta                  89.838545
_cell_angle_gamma                 90.092644
_cell_volume                      1617.68376625

loop_
_atom_site_label
_atom_site_type_symbol
_atom_site_description
_atom_site_fract_x
_atom_site_fract_y
_atom_site_fract_z
_atom_type_partial_charge
O1    O     O_R   0.494380 0.415640 0.412830 -0.602937
O2    O     O_R   0.823960 0.405540 0.586560 -0.566939
O3    O     O_R   0.994270 0.584360 0.587170 -0.585468
C1    C     C_R   0.654863 0.383790 0.615661 0.950690
O4    O     O_R   0.824090 0.404620 0.413450 -0.597103
O5    O     O_R   0.994400 0.583430 0.412820 -0.550526
C2    C     C_R   0.655351 0.382379 0.384519 1.011339
O6    O     O_R   0.494250 0.416570 0.587180 -0.612659
O7    O     O_3   0.660800 0.558670 0.500000 -0.251232
V1    V     V_3+5 0.935650 0.489120 0.500000 1.235908
O8    O     O_R   0.324110 0.594460 0.413440 -0.583083
C3    C     C_R   0.155170 0.614190 0.382700 1.014077
O9    O     O_R   0.323980 0.595380 0.586550 -0.597882
C4    C     C_R   0.154712 0.618097 0.615292 0.995869
V2    V     V_3+5 0.435660 0.510880 0.500000 1.224957
O10   O     O_3   0.160640 0.441330 0.500000 -0.291601
C5    C     C_3   0.932117 0.698265 0.718772 -0.323336
H1    H     H_    0.835828 0.720483 0.667034 0.175135
H2    H     H_    0.878006 0.630845 0.741163 0.190545
C6    C     C_3   0.919718 0.768674 0.791051 -0.322245
H3    H     H_    0.861082 0.734542 0.847916 0.162818
H4    H     H_    0.816535 0.823662 0.773687 0.192233
H5    H     H_    0.121431 0.806770 0.602671 0.224396
C7    C     C_3   0.211451 0.784019 0.656251 -0.436203
C8    C     C_3   0.271113 0.659748 0.760942 -0.309805
C9    C     C_3   0.142792 0.688361 0.685994 -0.044857
H6    H     H_    0.423902 0.652910 0.740423 0.157444
H7    H     H_    0.223869 0.592173 0.784315 0.242353
C10   C     C_3   0.121261 0.810433 0.810431 -0.077330
C11   C     C_3   0.199892 0.855393 0.728934 0.677246
C12   C     C_3   0.258145 0.730506 0.833549 -0.486589
H8    H     H_    0.205288 0.696140 0.891324 0.205698
H9    H     H_    0.405053 0.757310 0.847226 0.171750
H10   H     H_    0.362804 0.779634 0.633378 0.169180
H11   H     H_    0.346670 0.883395 0.740739 0.015658
C13   C     C_R   0.243014 0.825182 0.249537 0.119566
C14   C     C_R   0.117175 0.814101 0.181941 -0.218041
C15   C     C_R   0.990946 0.738577 0.183919 -0.258485
H12   H     H_    0.889565 0.728467 0.133175 0.161727
C16   C     C_R   0.003344 0.671555 0.247514 0.391300
C17   C     C_R   0.140109 0.681620 0.313509 -0.401159
C18   C     C_R   0.252667 0.761480 0.314001 0.112300
C19   C     C_3   0.466731 0.773266 0.320936 0.211370
C20   C     C_3   0.454548 0.843517 0.250902 -0.595805
H13   H     H_    0.549150 0.710914 0.304107 0.130553
H14   H     H_    0.528261 0.820929 0.192414 0.201855
H15   H     H_    0.487287 0.914930 0.270834 0.211991
C21   C     C_R   0.497625 0.317858 0.745234 0.090903
C22   C     C_R   0.647052 0.317359 0.685661 -0.245132
C23   C     C_R   0.796813 0.253400 0.697277 -0.066296
H16   H     H_    0.916987 0.251123 0.654082 0.125801
C24   C     C_R   0.787131 0.187708 0.761584 -0.136841
H17   H     H_    0.900865 0.137479 0.766532 0.159216
C25   C     C_R   0.625607 0.182941 0.815069 -0.223351
C26   C     C_R   0.485211 0.250327 0.806364 0.201608
C27   C     C_3   0.272769 0.240453 0.798122 -0.567833
C28   C     C_3   0.283554 0.317562 0.734391 0.174766
H18   H     H_    0.195135 0.257557 0.857169 0.263011
H19   H     H_    0.232813 0.173516 0.769637 0.178310
H20   H     H_    0.236917 0.298445 0.670060 0.077073
C29   C     C_R   0.501764 0.320101 0.253156 0.215731
C30   C     C_R   0.648072 0.316712 0.313407 -0.210770
C31   C     C_R   0.795346 0.251645 0.300613 -0.163786
H21   H     H_    0.914383 0.247527 0.344026 0.124971
C32   C     C_R   0.783572 0.186831 0.234937 -0.055125
H22   H     H_    0.894067 0.134864 0.229937 0.120659
C33   C     C_R   0.625045 0.185595 0.179645 -0.258939
C34   C     C_R   0.491410 0.256892 0.187691 0.112110
C35   C     C_3   0.276348 0.255891 0.190553 0.161811
C36   C     C_3   0.287985 0.325051 0.262474 -0.588539
H23   H     H_    0.215678 0.188257 0.208478 0.064741
H24   H     H_    0.238642 0.296882 0.323400 0.172629
H25   H     H_    0.230924 0.394160 0.247553 0.249686
O11   O     O_R   0.771490 0.080820 0.910070 -0.583711
O12   O     O_R   0.441590 0.092730 0.083780 -0.600241
O13   O     O_R   0.271350 0.913900 0.084390 -0.597440
C37   C     C_R   0.610660 0.115061 0.112693 0.972171
O14   O     O_R   0.441780 0.091820 0.910670 -0.589479
O15   O     O_R   0.271540 0.912980 0.910040 -0.613896
C38   C     C_R   0.611182 0.112866 0.881268 0.983377
O16   O     O_R   0.771300 0.081740 0.084420 -0.569031
O17   O     O_3   0.604960 0.938700 0.997240 -0.292525
V3    V     V_3+5 0.330090 0.008230 0.997220 1.198478
O18   O     O_R   0.941820 0.901930 0.910640 -0.598255
C39   C     C_R   0.110689 0.879941 0.881496 0.938119
O19   O     O_R   0.941630 0.902840 0.083750 -0.607482
C40   C     C_R   0.110208 0.880934 0.112572 0.962462
V4    V     V_3+5 0.830090 0.986410 0.997190 1.194932
O20   O     O_3   0.105080 0.055990 0.997200 -0.237116
N1    N     N_R   0.894463 0.588694 0.237434 0.216720
O21   O     O_R   0.913949 0.540768 0.169030 -0.356461
O22   O     O_R   0.750961 0.570838 0.287265 -0.422965
N2    N     N_R   0.527560 0.814047 0.400476 0.259874
O23   O     O_R   0.706367 0.838689 0.410095 -0.383294
O24   O     O_R   0.409815 0.819393 0.463921 -0.412654
N3    N     N_R   0.195852 0.401803 0.766291 0.244361
O25   O     O_R   0.062492 0.442132 0.723179 -0.435902
O26   O     O_R   0.238164 0.432790 0.840676 -0.372910
N4    N     N_R   0.191543 0.293972 0.114447 0.273292
O27   O     O_R   0.254907 0.370426 0.082923 -0.315411
O28   O     O_R   0.054292 0.249842 0.076317 -0.363925
F1    F     F_    0.083037 0.927845 0.705636 -0.712182

loop_
_geom_bond_atom_site_label_1
_geom_bond_atom_site_label_2
_geom_bond_distance
_ccdc_geom_bond_type
C29   C36   1.492318 S    
C8    C12   1.551459 S    
C21   C26   1.393239 A    
C15   C16   1.416559 A    
C26   C27   1.487128 S    
C31   C32   1.411405 A    
N2    O23   1.300667 A    
C17   C18   1.402654 A    
C13   C18   1.392476 A    
C33   C37   1.484105 S    
C1    O6    1.298007 A    
C21   C28   1.496026 S    
C8    H7    1.105713 S    
C30   C31   1.410387 A    
C11   H11   1.113164 S    
C5    C9    1.558057 S    
C13   C14   1.398598 A    
C14   C15   1.407812 A    
C7    C9    1.551561 S    
O5    C3    1.294256 A    
C15   H12   1.083747 S    
O19   V4    2.005917 S    
V2    O10   2.160464 S    
C5    C6    1.543975 S    
C27   C28   1.522973 S    
C35   H23   1.111578 S    
C19   N2    1.462728 S    
O8    V2    2.006035 S    
O14   V3    2.001851 S    
N4    O27   1.302321 A    
C24   C25   1.408899 A    
C34   C35   1.492995 S    
C32   C33   1.412332 A    
C28   N3    1.462102 S    
N3    O26   1.302704 A    
C23   C24   1.409933 A    
H5    C7    1.112925 S    
C12   H9    1.113222 S    
O1    V2    2.004058 S    
O7    V1    2.162322 S    
C10   C39   1.520193 S    
C20   H15   1.112178 S    
N2    O24   1.301572 A    
O11   C38   1.294056 A    
O9    C4    1.302666 A    
C35   C36   1.527564 S    
O13   V3    2.003560 S    
C20   H14   1.112159 S    
C5    H1    1.113672 S    
C25   C38   1.477787 S    
C6    C10   1.556093 S    
V3    O20   1.711149 S    
C33   C34   1.400634 A    
O18   C39   1.299763 A    
O4    C2    1.300060 A    
O19   C40   1.299296 A    
C28   H20   1.111694 S    
C8    C9    1.552721 S    
C7    H10   1.112795 S    
O2    C1    1.300293 A    
C19   C20   1.523734 S    
C2    C30   1.483281 S    
C10   C11   1.557088 S    
O12   C37   1.302357 A    
N1    O22   1.299648 A    
C12   H8    1.113131 S    
C37   O16   1.296089 A    
N3    O25   1.298568 A    
C11   F1    1.387039 S    
C36   H25   1.111960 S    
C23   H16   1.080996 S    
C4    C9    1.523743 S    
C19   H13   1.107647 S    
O13   C40   1.296972 A    
O3    C4    1.297170 A    
C35   N4    1.463985 S    
C21   C22   1.404961 A    
N4    O28   1.300120 A    
C6    H4    1.113383 S    
O17   V3    2.162308 S    
O6    V2    2.005756 S    
O9    V2    2.003078 S    
C13   C20   1.491887 S    
C18   C19   1.499447 S    
O2    V1    2.001872 S    
O15   C39   1.298164 A    
C24   H17   1.081692 S    
C3    C17   1.487398 S    
C25   C26   1.393633 A    
C16   C17   1.426772 A    
C6    H3    1.113431 S    
O1    C2    1.297941 A    
C14   C40   1.480662 S    
O18   V4    2.003036 S    
O5    V1    2.003486 S    
O8    C3    1.305328 A    
C8    H6    1.113293 S    
C27   H19   1.111171 S    
C1    C22   1.484251 S    
O11   V4    2.006111 S    
O7    V2    1.710090 S    
O4    V1    2.004223 S    
C10   C12   1.552699 S    
O3    V1    2.004596 S    
V1    O10   1.711200 S    
O15   V3    2.004708 S    
C29   C34   1.392818 A    
O12   V3    2.004172 S    
N1    O21   1.300874 A    
O17   V4    1.709553 S    
C5    H2    1.113477 S    
C27   H18   1.111845 S    
O14   C38   1.301444 A    
C32   H22   1.082233 S    
C29   C30   1.401554 A    
C7    C11   1.557801 S    
O16   V4    2.005724 S    
C31   H21   1.081648 S    
V4    O20   2.160484 S    
C22   C23   1.411680 A    
C36   H24   1.110817 S    
C16   N1    1.434222 S    
