data_mof_unit_65780.cif
_audit_creation_date              2012-12-10T18:19:57-0500
_audit_creation_method            fapswitch 2.2
_symmetry_space_group_name_H-M    P1
_symmetry_Int_Tables_number       1
_space_group_crystal_system       triclinic
_cell_length_a                    41.68537
_cell_length_b                    35.646499
_cell_length_c                    21.910019
_cell_angle_alpha                 90.534297
_cell_angle_beta                  121.215053
_cell_angle_gamma                 89.524344
_cell_volume                      27842.1532212

loop_
_atom_site_label
_atom_site_type_symbol
_atom_type_description
_atom_site_fract_x
_atom_site_fract_y
_atom_site_fract_z
_atom_type_partial_charge
C1    C     C_R   0.427616 0.500064 0.927499 0.790917
C2    C     C_R   0.572384 0.499937 0.072501 0.790919
C3    C     C_R   0.927616 0.000064 0.927499 0.790918
C4    C     C_R   0.072384 0.999937 0.072501 0.790920
C5    C     C_2   0.503887 0.497950 0.820049 -0.316710
C6    C     C_2   0.496108 0.502046 0.179945 -0.316707
C7    C     C_2   0.003887 0.997950 0.820050 -0.316710
C8    C     C_2   0.996108 0.002046 0.179944 -0.316708
C9    C     C_R   0.172853 0.500371 0.727681 0.180355
C10   C     C_R   0.827147 0.499826 0.272319 0.180356
C11   C     C_R   0.672853 0.000370 0.727681 0.180355
C12   C     C_R   0.327147 0.999826 0.272319 0.180356
C13   C     C_R   0.133621 0.500258 0.688333 -0.205550
C14   C     C_R   0.866379 0.499956 0.311667 -0.205549
C15   C     C_R   0.633621 0.000258 0.688333 -0.205550
C16   C     C_R   0.366379 0.999956 0.311667 -0.205549
C17   C     C_R   0.113811 0.500208 0.613279 -0.074426
C18   C     C_R   0.886188 0.499997 0.386721 -0.074427
C19   C     C_R   0.613811 0.000208 0.613279 -0.074426
C20   C     C_R   0.386188 0.999997 0.386721 -0.074427
C21   C     C_R   0.134046 0.500276 0.578165 -0.185216
C22   C     C_R   0.865954 0.499908 0.421834 -0.185217
C23   C     C_R   0.634046 0.000276 0.578165 -0.185216
C24   C     C_R   0.365954 0.999908 0.421834 -0.185216
C25   C     C_R   0.173235 0.500389 0.617309 -0.194954
C26   C     C_R   0.826765 0.499778 0.382690 -0.194955
C27   C     C_R   0.673235 0.000389 0.617309 -0.194953
C28   C     C_R   0.326765 0.999778 0.382690 -0.194955
C29   C     C_R   0.192776 0.500437 0.691990 0.092287
C30   C     C_R   0.807224 0.499734 0.308009 0.092287
C31   C     C_R   0.692776 0.000437 0.691990 0.092287
C32   C     C_R   0.307224 0.999734 0.308009 0.092287
C33   C     C_1   0.233139 0.500494 0.731250 -0.007409
C34   C     C_1   0.766861 0.499648 0.268749 -0.007408
C35   C     C_1   0.733139 0.000494 0.731250 -0.007409
C36   C     C_1   0.266861 0.999648 0.268749 -0.007408
C37   C     C_1   0.266931 0.500493 0.764681 -0.035714
C38   C     C_1   0.733069 0.499623 0.235318 -0.035715
C39   C     C_1   0.766931 0.000493 0.764681 -0.035714
C40   C     C_1   0.233069 0.999623 0.235318 -0.035714
C41   C     C_R   0.326935 0.466396 0.825379 -0.148439
C42   C     C_R   0.673170 0.465740 0.175010 -0.148117
C43   C     C_R   0.826935 0.966396 0.825379 -0.148439
C44   C     C_R   0.173170 0.965740 0.175011 -0.148117
C45   C     C_R   0.501213 0.499702 0.883564 0.856602
C46   C     C_R   0.498786 0.500291 0.116435 0.856598
C47   C     C_R   0.001213 0.999702 0.883564 0.856601
C48   C     C_R   0.998786 0.000291 0.116435 0.856598
C49   C     C_R   0.366128 0.466250 0.865265 -0.189883
C50   C     C_R   0.633968 0.465774 0.135115 -0.185965
C51   C     C_R   0.866128 0.966250 0.865265 -0.189883
C52   C     C_R   0.133968 0.965774 0.135115 -0.185965
C53   C     C_R   0.386125 0.500204 0.885485 -0.036805
C54   C     C_R   0.613875 0.499825 0.114514 -0.036808
C55   C     C_R   0.886125 0.000204 0.885485 -0.036805
C56   C     C_R   0.113875 0.999825 0.114514 -0.036808
C57   C     C_R   0.366056 0.534270 0.864921 -0.185979
C58   C     C_R   0.633848 0.533794 0.134697 -0.189899
C59   C     C_R   0.866056 0.034270 0.864921 -0.185979
C60   C     C_R   0.133848 0.033794 0.134697 -0.189899
C61   C     C_R   0.326855 0.534332 0.825026 -0.148104
C62   C     C_R   0.673041 0.533677 0.174583 -0.148426
C63   C     C_R   0.826855 0.034332 0.825026 -0.148104
C64   C     C_R   0.173041 0.033677 0.174583 -0.148426
C65   C     C_R   0.307246 0.500413 0.805179 0.141732
C66   C     C_R   0.692754 0.499673 0.194820 0.141732
C67   C     C_R   0.807246 0.000413 0.805179 0.141732
C68   C     C_R   0.192754 0.999673 0.194820 0.141732
C69   C     C_R   0.499629 0.692808 0.498350 0.143512
C70   C     C_R   0.999629 0.192808 0.498350 0.143512
C71   C     C_R   0.465760 0.633976 0.465040 -0.186755
C72   C     C_R   0.533763 0.633877 0.533332 -0.190620
C73   C     C_R   0.965760 0.133976 0.465039 -0.186754
C74   C     C_R   0.033763 0.133877 0.533333 -0.190620
C75   C     C_1   0.999578 0.266962 0.497935 -0.060288
C76   C     C_1   0.499578 0.766962 0.497935 -0.060288
C77   C     C_R   0.999650 0.307311 0.498236 0.143456
C78   C     C_R   0.499650 0.807311 0.498236 0.143457
C79   C     C_R   0.500064 0.427622 0.500111 0.789602
C80   C     C_R   0.000064 0.927622 0.500111 0.789601
C81   C     C_R   0.465711 0.673194 0.464533 -0.155045
C82   C     C_R   0.533632 0.673087 0.532744 -0.155829
C83   C     C_R   0.965711 0.173194 0.464532 -0.155046
C84   C     C_R   0.033632 0.173087 0.532745 -0.155829
C85   C     C_R   0.499697 0.501199 0.617337 0.856062
C86   C     C_R   0.500303 0.498783 0.382663 0.856059
C87   C     C_R   0.999697 0.001198 0.617337 0.856061
C88   C     C_R   0.000303 0.998783 0.382663 0.856059
C89   C     C_R   0.499936 0.572363 0.499889 0.789126
C90   C     C_R   0.999936 0.072363 0.499889 0.789126
C91   C     C_R   0.999985 0.427780 0.499741 0.792535
C92   C     C_R   0.499984 0.927779 0.499741 0.792534
C93   C     C_R   0.072303 0.500119 0.572086 0.806749
C94   C     C_R   0.927697 0.500088 0.427914 0.806751
C95   C     C_R   0.572303 0.000119 0.572086 0.806749
C96   C     C_R   0.427697 0.000088 0.427914 0.806751
C97   C     C_R   0.000015 0.572381 0.500259 0.792407
C98   C     C_R   0.500015 0.072381 0.500259 0.792407
C99   C     C_R   0.000260 0.673009 0.446258 -0.154539
C100  C     C_R   0.000323 0.673271 0.556854 -0.153939
C101  C     C_R   0.500254 0.173009 0.446253 -0.154540
C102  C     C_R   0.500329 0.173271 0.556860 -0.153939
C103  C     C_R   0.000138 0.633811 0.445720 -0.185587
C104  C     C_R   0.000201 0.634052 0.556453 -0.186189
C105  C     C_R   0.500132 0.133811 0.445714 -0.185587
C106  C     C_R   0.500206 0.134052 0.556458 -0.186189
C107  C     C_R   0.000106 0.613888 0.500837 -0.037771
C108  C     C_R   0.500106 0.113888 0.500837 -0.037771
C109  C     C_R   0.000355 0.692795 0.501783 0.143661
C110  C     C_R   0.500355 0.192795 0.501783 0.143661
C111  C     C_1   0.000427 0.733120 0.502089 -0.060326
C112  C     C_1   0.500427 0.233120 0.502089 -0.060326
C113  C     C_R   0.999895 0.386253 0.499168 -0.038018
C114  C     C_R   0.499895 0.886253 0.499168 -0.038017
C115  C     C_1   0.500439 0.266912 0.502036 -0.060889
C116  C     C_1   0.000439 0.766912 0.502036 -0.060889
C117  C     C_R   0.466367 0.326941 0.467305 -0.155906
C118  C     C_R   0.534296 0.326835 0.535455 -0.155124
C119  C     C_R   0.966367 0.826941 0.467297 -0.155905
C120  C     C_R   0.034296 0.826835 0.535463 -0.155125
C121  C     C_R   0.466235 0.366141 0.466708 -0.190808
C122  C     C_R   0.534246 0.366044 0.534940 -0.186937
C123  C     C_R   0.966235 0.866141 0.466700 -0.190808
C124  C     C_R   0.034246 0.866044 0.534948 -0.186937
C125  C     C_R   0.500191 0.386128 0.500548 -0.036433
C126  C     C_R   0.000191 0.886127 0.500548 -0.036432
C127  C     C_R   0.500375 0.307235 0.501672 0.143703
C128  C     C_R   0.000375 0.807235 0.501672 0.143704
C129  C     C_R   0.999775 0.327114 0.553782 -0.154405
C130  C     C_R   0.999649 0.326847 0.443135 -0.153798
C131  C     C_R   0.499775 0.827114 0.553783 -0.154406
C132  C     C_R   0.499649 0.826847 0.443134 -0.153798
C133  C     C_R   0.999896 0.366321 0.554313 -0.185474
C134  C     C_R   0.999770 0.366075 0.443531 -0.186086
C135  C     C_R   0.499896 0.866321 0.554314 -0.185473
C136  C     C_R   0.499770 0.866075 0.443530 -0.186085
C137  C     C_1   0.499566 0.733155 0.497989 -0.060831
C138  C     C_1   0.999566 0.233155 0.497989 -0.060831
C139  C     C_R   0.499810 0.613879 0.499458 -0.036584
C140  C     C_R   0.999810 0.113879 0.499458 -0.036584
C141  C     C_2   0.524602 0.520902 0.741207 -0.150796
C142  C     C_2   0.475400 0.479084 0.258793 -0.150806
C143  C     C_2   0.024601 0.020903 0.741206 -0.150795
C144  C     C_2   0.975400 0.979084 0.258793 -0.150807
C145  C     C_2   0.497968 0.503864 0.681799 -0.317947
C146  C     C_2   0.502032 0.496124 0.318200 -0.317931
C147  C     C_2   0.997968 0.003864 0.681799 -0.317944
C148  C     C_2   0.002032 0.996124 0.318200 -0.317931
C149  C     C_2   0.520941 0.524571 0.804371 -0.151180
C150  C     C_2   0.479062 0.475419 0.195631 -0.151162
C151  C     C_2   0.020941 0.024572 0.804370 -0.151180
C152  C     C_2   0.979063 0.975419 0.195631 -0.151162
Cu1   Cu    Cu3+1 0.500000 0.537250 0.000000 0.949748
Cu2   Cu    Cu3+1 0.000000 0.037250 0.000000 0.949748
Cu3   Cu    Cu3+1 0.500000 0.462730 0.000000 0.949776
Cu4   Cu    Cu3+1 0.000000 0.962730 0.000000 0.949776
Cu5   Cu    Cu3+1 0.537260 0.499990 0.537250 0.951792
Cu6   Cu    Cu3+1 0.462740 0.499990 0.462750 0.951795
Cu7   Cu    Cu3+1 0.037260 0.999990 0.537250 0.951792
Cu8   Cu    Cu3+1 0.962740 0.999990 0.462750 0.951795
Cu9   Cu    Cu3+1 1.000000 0.500090 0.438970 0.952312
Cu10  Cu    Cu3+1 1.000000 0.500090 0.561030 0.952310
Cu11  Cu    Cu3+1 0.500000 0.000090 0.438970 0.952312
Cu12  Cu    Cu3+1 0.500000 0.000090 0.561030 0.952310
H1    H     H_    0.439228 0.688208 0.437790 0.135631
H2    H     H_    0.560048 0.688014 0.559128 0.135071
H3    H     H_    0.939228 0.188208 0.437789 0.135632
H4    H     H_    0.060048 0.188014 0.559129 0.135071
H5    H     H_    0.311994 0.439984 0.810374 0.137438
H6    H     H_    0.688195 0.439261 0.190324 0.137773
H7    H     H_    0.811994 0.939984 0.810374 0.137438
H8    H     H_    0.188195 0.939261 0.190324 0.137773
H9    H     H_    0.380731 0.439560 0.880236 0.155107
H10   H     H_    0.619435 0.439159 0.120445 0.156080
H11   H     H_    0.880731 0.939560 0.880236 0.155107
H12   H     H_    0.119435 0.939158 0.120445 0.156080
H13   H     H_    0.380608 0.560875 0.879621 0.156072
H14   H     H_    0.619226 0.560473 0.119697 0.155097
H15   H     H_    0.880608 0.060875 0.879621 0.156071
H16   H     H_    0.119226 0.060473 0.119697 0.155097
H17   H     H_    0.311849 0.560822 0.809742 0.137778
H18   H     H_    0.687962 0.560099 0.189558 0.137443
H19   H     H_    0.811849 0.060822 0.809742 0.137778
H20   H     H_    0.187962 0.060099 0.189557 0.137443
H21   H     H_    0.439153 0.619432 0.438474 0.156318
H22   H     H_    0.560444 0.619262 0.560288 0.155301
H23   H     H_    0.939153 0.119432 0.438473 0.156318
H24   H     H_    0.060444 0.119262 0.560290 0.155301
H25   H     H_    0.000274 0.687878 0.403363 0.135076
H26   H     H_    0.000387 0.688352 0.600083 0.135124
H27   H     H_    0.500264 0.187878 0.403353 0.135077
H28   H     H_    0.500397 0.188352 0.600092 0.135124
H29   H     H_    0.000070 0.619152 0.402144 0.156549
H30   H     H_    0.000184 0.619568 0.599657 0.156125
H31   H     H_    0.500060 0.119152 0.402135 0.156550
H32   H     H_    0.500194 0.119568 0.599667 0.156125
H33   H     H_    0.439954 0.312010 0.440952 0.135100
H34   H     H_    0.560777 0.311819 0.562172 0.135659
H35   H     H_    0.939953 0.812010 0.440937 0.135099
H36   H     H_    0.060777 0.811819 0.562186 0.135660
H37   H     H_    0.439554 0.380758 0.439776 0.155332
H38   H     H_    0.560852 0.380590 0.561475 0.156349
H39   H     H_    0.939553 0.880757 0.439762 0.155331
H40   H     H_    0.060852 0.880590 0.561489 0.156349
H41   H     H_    0.999786 0.312251 0.596707 0.135043
H42   H     H_    0.999561 0.311768 0.399882 0.135091
H43   H     H_    0.499787 0.812250 0.596708 0.135043
H44   H     H_    0.499561 0.811768 0.399881 0.135090
H45   H     H_    0.548318 0.534073 0.742355 0.164142
H46   H     H_    0.451688 0.465905 0.257647 0.164128
H47   H     H_    0.048317 0.034075 0.742354 0.164140
H48   H     H_    0.951688 0.965905 0.257647 0.164128
H49   H     H_    0.999987 0.380983 0.597909 0.156426
H50   H     H_    0.999761 0.380559 0.400300 0.155998
H51   H     H_    0.499988 0.880983 0.597910 0.156426
H52   H     H_    0.499761 0.880559 0.400299 0.155997
H53   H     H_    0.472268 0.494382 0.677918 0.154526
H54   H     H_    0.527729 0.505614 0.322079 0.154525
H55   H     H_    0.972268 0.994380 0.677918 0.154524
H56   H     H_    0.027729 0.005614 0.322079 0.154525
H57   H     H_    0.534124 0.548287 0.840154 0.163332
H58   H     H_    0.465889 0.451698 0.159856 0.163326
H59   H     H_    0.034122 0.048288 0.840152 0.163333
H60   H     H_    0.965890 0.951698 0.159857 0.163327
H61   H     H_    0.494390 0.472248 0.788708 0.154901
H62   H     H_    0.505594 0.527752 0.211276 0.154892
H63   H     H_    0.994392 0.972247 0.788709 0.154901
H64   H     H_    0.005594 0.027752 0.211276 0.154893
H65   H     H_    0.118713 0.500211 0.716686 0.177657
H66   H     H_    0.881287 0.500019 0.283314 0.177658
H67   H     H_    0.618713 0.000211 0.716686 0.177657
H68   H     H_    0.381287 0.000019 0.283314 0.177657
H69   H     H_    0.119632 0.500244 0.520450 0.160491
H70   H     H_    0.880368 0.499932 0.479548 0.160491
H71   H     H_    0.619632 0.000244 0.520450 0.160491
H72   H     H_    0.380368 0.999933 0.479548 0.160492
H73   H     H_    0.188324 0.500431 0.589253 0.144095
H74   H     H_    0.811677 0.499716 0.410745 0.144095
H75   H     H_    0.688324 0.000431 0.589253 0.144094
H76   H     H_    0.311677 0.999716 0.410745 0.144095
O1    O     O_R   0.445630 0.531460 0.945630 -0.587122
O2    O     O_R   0.554370 0.531460 0.054370 -0.591192
O3    O     O_R   0.945630 0.031460 0.945630 -0.587122
O4    O     O_R   0.054370 0.031460 0.054370 -0.591192
O5    O     O_R   0.054370 0.500090 0.502830 -0.586832
O6    O     O_R   0.945630 0.500090 0.497170 -0.586831
O7    O     O_R   0.554370 0.000090 0.502830 -0.586832
O8    O     O_R   0.445630 0.000090 0.497170 -0.586830
O9    O     O_R   0.054360 0.500110 0.605880 -0.582877
O10   O     O_R   0.945640 0.500110 0.394120 -0.582878
O11   O     O_R   0.554360 0.000110 0.605880 -0.582877
O12   O     O_R   0.445640 0.000110 0.394120 -0.582879
O13   O     O_R   0.000010 0.554450 0.448450 -0.585639
O14   O     O_R   0.999990 0.554450 0.551550 -0.585585
O15   O     O_R   0.500010 0.054450 0.448450 -0.585639
O16   O     O_R   0.499990 0.054450 0.551550 -0.585585
O17   O     O_R   0.445610 0.468530 0.945600 -0.591277
O18   O     O_R   0.554390 0.468530 0.054400 -0.587203
O19   O     O_R   0.945610 0.968530 0.945600 -0.591276
O20   O     O_R   0.054390 0.968530 0.054400 -0.587203
O21   O     O_R   0.500010 0.531460 0.910980 -0.579060
O22   O     O_R   0.499990 0.531460 0.089020 -0.584847
O23   O     O_R   0.000010 0.031460 0.910980 -0.579060
O24   O     O_R   0.999990 0.031460 0.089020 -0.584847
O25   O     O_R   0.499990 0.468530 0.910950 -0.584909
O26   O     O_R   0.500010 0.468530 0.089050 -0.579117
O27   O     O_R   0.999990 0.968530 0.910950 -0.584909
O28   O     O_R   0.000010 0.968530 0.089050 -0.579117
O29   O     O_R   0.531450 0.445630 0.531430 -0.586910
O30   O     O_R   0.468550 0.445630 0.468570 -0.590989
O31   O     O_R   0.031450 0.945630 0.531430 -0.586910
O32   O     O_R   0.968550 0.945630 0.468570 -0.590989
O33   O     O_R   0.531450 0.499990 0.620480 -0.577520
O34   O     O_R   0.468550 0.499990 0.379520 -0.577517
O35   O     O_R   0.031450 0.999990 0.620480 -0.577520
O36   O     O_R   0.968550 0.999990 0.379520 -0.577518
O37   O     O_R   0.468510 0.499990 0.557540 -0.585430
O38   O     O_R   0.531490 0.499990 0.442460 -0.585431
O39   O     O_R   0.968510 0.999990 0.557540 -0.585430
O40   O     O_R   0.031490 0.999990 0.442460 -0.585430
O41   O     O_R   0.531470 0.554350 0.531480 -0.590891
O42   O     O_R   0.468530 0.554350 0.468520 -0.586802
O43   O     O_R   0.031470 0.054350 0.531480 -0.590891
O44   O     O_R   0.968530 0.054350 0.468520 -0.586802
O45   O     O_R   0.999980 0.445730 0.448470 -0.585534
O46   O     O_R   0.000020 0.445730 0.551530 -0.585591
O47   O     O_R   0.499980 0.945730 0.448470 -0.585534
O48   O     O_R   0.500020 0.945730 0.551530 -0.585591
I1    I     I_    0.200453 0.500423 0.840692 -0.381005
I2    I     I_    0.799547 0.499782 0.159308 -0.381009
I3    I     I_    0.700453 0.000423 0.840692 -0.381005
I4    I     I_    0.299547 0.999782 0.159308 -0.381010

loop_
_geom_bond_atom_site_label_1
_geom_bond_atom_site_label_2
_ccdc_geom_bond_type
C58   C62   A    
C27   C31   A    
C49   C53   A    
Cu5   Cu6   S    
C12   C32   A    
Cu1   O1    S    
C55   C59   A    
C14   C18   A    
Cu11  O7    S    
Cu11  Cu12  S    
C83   H3    S    
C45   O21   A    
C92   O48   A    
C30   C34   S    
C131  H43   S    
C98   O16   A    
Cu9   Cu10  S    
C8    H64   S    
C98   C108  S    
C10   I2    S    
Cu12  O16   S    
C76   C137  T    
C96   O8    A    
C15   C19   A    
C130  H42   S    
C89   O42   A    
C50   C54   A    
C87   C147  S    
C124  H40   S    
Cu2   O4    S    
C119  H35   S    
C143  C151  S    
C86   O34   A    
C124  C126  A    
Cu11  O12   S    
C8    C152  D    
C76   C78   S    
C106  H32   S    
Cu10  O9    S    
C131  C135  A    
C109  C111  S    
C147  H55   S    
Cu5   O33   S    
Cu9   O10   S    
Cu3   O17   S    
C146  H54   S    
C2    C54   S    
C132  C136  A    
C149  H57   S    
C48   O28   A    
C99   C109  A    
C136  H52   S    
C29   C33   S    
Cu9   O13   S    
C100  C104  A    
C115  C127  S    
C25   C29   A    
C105  H31   S    
C118  C122  A    
C57   C61   A    
C75   C77   S    
C142  C146  D    
C9    C13   A    
C69   C82   A    
C42   H6    S    
C80   C126  S    
C95   O7    A    
Cu5   O38   S    
C22   H70   S    
C5    C149  D    
C3    C55   S    
C117  C127  A    
C72   C139  A    
C21   H69   S    
C38   C66   S    
C57   H13   S    
C151  H59   S    
C116  C128  S    
C89   C139  S    
Cu11  O47   S    
C37   C65   S    
C25   H73   S    
C90   C140  S    
Cu7   O43   S    
C114  C135  A    
C117  H33   S    
C143  H47   S    
C111  C116  T    
Cu2   O23   S    
C23   C27   A    
Cu1   Cu3   S    
C91   C113  S    
C70   C84   A    
C52   H12   S    
Cu2   Cu4   S    
C74   C140  A    
C91   O45   A    
C144  C148  D    
C101  H27   S    
Cu4   O19   S    
C23   H71   S    
C119  C128  A    
C44   C52   A    
C45   O25   A    
C20   C96   S    
C11   C31   A    
C100  C109  A    
C4    O20   A    
C113  C133  A    
Cu1   O2    S    
C4    C56   S    
C101  C105  A    
Cu7   O40   S    
C150  H58   S    
Cu9   O5    S    
C130  C134  A    
Cu8   O39   S    
C11   C15   A    
C71   H21   S    
C92   O47   A    
Cu12  O8    S    
C86   C146  S    
C41   C49   A    
C98   O15   A    
C73   H23   S    
Cu9   O45   S    
Cu6   O34   S    
C1    O17   A    
C69   C137  S    
C105  C108  A    
C135  H51   S    
Cu8   O32   S    
C79   O30   A    
C63   H19   S    
C51   H11   S    
C62   C66   A    
C27   H75   S    
C12   C16   A    
C36   C40   T    
Cu12  O11   S    
C69   C81   A    
C93   O9    A    
C58   H14   S    
C99   C103  A    
C10   C14   A    
C95   O11   A    
C114  C136  A    
C99   H25   S    
Cu3   O18   S    
C43   H7    S    
C49   H9    S    
C34   C38   T    
C123  C126  A    
C78   C132  A    
C51   C55   A    
C47   O23   A    
C101  C110  A    
C41   H5    S    
C16   H68   S    
C90   O44   A    
C33   C37   T    
C56   C60   A    
C80   O32   A    
C142  H46   S    
C64   H20   S    
Cu10  O6    S    
C141  H45   S    
C19   C23   A    
C78   C131  A    
C44   H8    S    
C63   C67   A    
C121  C125  A    
C94   O10   A    
C81   H1    S    
C62   H18   S    
C88   O40   A    
C129  H41   S    
C26   H74   S    
C102  H28   S    
Cu7   Cu8   S    
Cu4   O28   S    
C28   C32   A    
C110  C112  S    
C16   C20   A    
Cu5   O29   S    
C1    C53   S    
C7    C151  D    
C5    C45   S    
C77   C129  A    
C104  C107  A    
Cu12  O48   S    
Cu11  O15   S    
Cu1   O22   S    
C94   O6    A    
C72   H22   S    
Cu3   O25   S    
C93   O5    A    
C13   H65   S    
C148  H56   S    
Cu8   O36   S    
Cu10  O46   S    
C43   C67   A    
C2    O18   A    
C42   C50   A    
C132  H44   S    
C119  C123  A    
C113  C134  A    
C152  H60   S    
C74   H24   S    
C40   C68   S    
C18   C94   S    
C19   C95   S    
C85   O37   A    
C10   C30   A    
C44   C68   A    
C17   C93   S    
C118  C127  A    
C96   O12   A    
C24   H72   S    
C87   O35   A    
C64   C68   A    
C32   C36   S    
C143  C147  D    
C144  H48   S    
Cu1   O21   S    
C46   O26   A    
C52   C56   A    
C106  C108  A    
Cu5   O41   S    
C54   C58   A    
C47   O27   A    
C2    O2    A    
C21   C25   A    
Cu2   O3    S    
C53   C57   A    
C129  C133  A    
C6    C46   S    
C15   H67   S    
C90   O43   A    
Cu8   O44   S    
C61   H17   S    
Cu10  O14   S    
C100  H26   S    
C60   H16   S    
C24   C28   A    
C74   C84   A    
Cu6   O37   S    
C75   C138  T    
Cu6   O30   S    
C87   O39   A    
C41   C65   A    
C120  C128  A    
C71   C139  A    
C46   O22   A    
C73   C140  A    
C117  C121  A    
C12   I4    S    
C39   C67   S    
C3    O3    A    
C59   C63   A    
C6    C150  D    
C134  H50   S    
C123  H39   S    
C60   C64   A    
C82   H2    S    
Cu7   O35   S    
C80   O31   A    
C122  C125  A    
C18   C22   A    
C88   O36   A    
C133  H49   S    
C141  C149  S    
C144  C152  S    
C89   O41   A    
C1    O1    A    
C8    C48   S    
C28   H76   S    
C9    I1    S    
C9    C29   A    
C88   C148  S    
C70   C138  S    
C142  C150  S    
C5    H61   S    
C70   C83   A    
Cu4   O27   S    
C7    H63   S    
C43   C51   A    
C102  C110  A    
C3    O19   A    
C35   C39   T    
C6    H62   S    
C11   I3    S    
C141  C145  D    
C120  H36   S    
C85   O33   A    
C102  C106  A    
C97   O13   A    
C31   C35   S    
C77   C130  A    
C86   O38   A    
C79   C125  S    
C20   C24   A    
C17   C21   A    
C14   H66   S    
Cu3   O26   S    
Cu2   O24   S    
C48   O24   A    
C121  H37   S    
C13   C17   A    
C97   C107  S    
C61   C65   A    
C122  H38   S    
Cu6   O42   S    
C145  H53   S    
C84   H4    S    
Cu7   O31   S    
C59   H15   S    
C22   C26   A    
C42   C66   A    
C104  H30   S    
C79   O29   A    
C91   O46   A    
C103  C107  A    
C50   H10   S    
C103  H29   S    
C71   C81   A    
C85   C145  S    
C92   C114  S    
C73   C83   A    
C4    O4    A    
C112  C115  T    
C72   C82   A    
C120  C124  A    
C7    C47   S    
C97   O14   A    
Cu4   O20   S    
C26   C30   A    
C118  H34   S    
