data_mof_unit_63096.cif
_audit_creation_date              2012-12-11T16:03:03-0500
_audit_creation_method            fapswitch 2.2
_symmetry_space_group_name_H-M    P1
_symmetry_Int_Tables_number       1
_space_group_crystal_system       triclinic
_cell_length_a                    6.979867
_cell_length_b                    23.164416
_cell_length_c                    25.081852
_cell_angle_alpha                 106.609684
_cell_angle_beta                  90.281286
_cell_angle_gamma                 89.971678
_cell_volume                      3886.08686507

loop_
_atom_site_label
_atom_site_type_symbol
_atom_type_description
_atom_site_fract_x
_atom_site_fract_y
_atom_site_fract_z
_atom_type_partial_charge
O1    O     O_R   0.494320 0.441930 0.440920 -0.520797
O2    O     O_R   0.820780 0.446390 0.546550 -0.539542
O3    O     O_R   0.994330 0.558070 0.559080 -0.519523
C1    C     C_R   0.652326 0.434192 0.563038 0.713204
O4    O     O_R   0.823820 0.435090 0.440550 -0.523331
O5    O     O_R   0.997390 0.546680 0.452330 -0.536397
C2    C     C_R   0.654727 0.416725 0.418644 0.717601
O6    O     O_R   0.491260 0.453320 0.547670 -0.535670
O7    O     O_3   0.661870 0.536630 0.503990 -0.360001
V1    V     V_3+5 0.935460 0.493210 0.499260 1.406522
O8    O     O_R   0.327300 0.553610 0.453450 -0.536983
C3    C     C_R   0.157405 0.565685 0.436858 0.691334
O9    O     O_R   0.324250 0.564910 0.559450 -0.523089
C4    C     C_R   0.155551 0.583253 0.581376 0.720714
V2    V     V_3+5 0.435850 0.506790 0.500740 1.408372
O10   O     O_3   0.159570 0.463370 0.496010 -0.360493
C5    C     C_1   0.145248 0.635302 0.633456 -0.207005
C6    C     C_1   0.133699 0.678072 0.676817 0.008728
C7    C     C_1   0.118395 0.728604 0.728343 0.007259
C8    C     C_1   0.105146 0.771178 0.771803 0.006826
C9    C     C_1   0.089808 0.821734 0.823307 0.006531
C10   C     C_1   0.078193 0.864543 0.866630 -0.208793
C11   C     C_R   0.239671 0.871536 0.117667 0.393571
C12   C     C_R   0.236147 0.843321 0.160683 0.124574
C13   C     C_R   0.062991 0.822049 0.175292 -0.148518
C14   C     C_R   0.896471 0.849802 0.163898 -0.201354
H1    H     H_    0.765222 0.840168 0.180845 0.205276
C15   C     C_R   0.905138 0.894420 0.135939 0.178916
C16   C     C_R   0.070363 0.899262 0.105313 -0.259682
N1    N     N_R   0.916446 0.777896 0.245478 -0.244683
N2    N     N_R   0.927880 0.743358 0.279923 -0.271587
C17   C     C_R   0.086381 0.709320 0.280980 0.508631
N3    N     N_R   0.230164 0.710030 0.244936 -0.277330
N4    N     N_R   0.218329 0.744186 0.210396 -0.263535
C18   C     C_R   0.062934 0.779632 0.210414 0.588088
C19   C     C_R   0.284444 0.650169 0.331565 -0.121050
H2    H     H_    0.411401 0.658585 0.310280 0.140075
C20   C     C_R   0.302878 0.616357 0.369695 -0.161177
H3    H     H_    0.442734 0.599228 0.376266 0.117542
C21   C     C_R   0.142044 0.603962 0.398144 -0.053258
C22   C     C_R   0.962958 0.627117 0.387960 -0.153356
H4    H     H_    0.835563 0.618725 0.409083 0.125406
C23   C     C_R   0.945004 0.661448 0.350374 -0.133593
H5    H     H_    0.804888 0.678294 0.343643 0.134963
C24   C     C_R   0.105128 0.673107 0.321322 0.023480
C25   C     C_R   0.473274 0.387557 0.627579 -0.155097
H6    H     H_    0.343264 0.410068 0.620804 0.137906
C26   C     C_R   0.468304 0.351942 0.664294 -0.205333
H7    H     H_    0.334770 0.348375 0.684903 0.195884
C27   C     C_R   0.633448 0.322012 0.674920 -0.081990
C28   C     C_R   0.804332 0.327590 0.646515 0.433880
C29   C     C_R   0.809355 0.364806 0.611047 -0.238393
H8    H     H_    0.943212 0.369204 0.590870 0.136225
C30   C     C_R   0.644398 0.394968 0.600897 -0.110940
N5    N     N_R   0.788017 0.269465 0.737301 -0.215439
N6    N     N_R   0.781492 0.235057 0.771697 -0.247281
C31   C     C_R   0.612184 0.213984 0.784938 0.530699
N7    N     N_R   0.448605 0.230644 0.763619 -0.261266
N8    N     N_R   0.455075 0.265293 0.729315 -0.295310
C32   C     C_R   0.625301 0.284866 0.714769 0.513151
C33   C     C_R   0.443109 0.177470 0.856876 -0.127954
H9    H     H_    0.325637 0.207550 0.855402 0.164371
C34   C     C_R   0.430704 0.141904 0.893502 -0.145133
H10   H     H_    0.303884 0.145183 0.918903 0.132963
C35   C     C_R   0.581553 0.103422 0.897961 -0.087551
C36   C     C_R   0.743041 0.100395 0.864048 -0.172677
H11   H     H_    0.858973 0.069847 0.865717 0.143425
C37   C     C_R   0.754954 0.134692 0.826258 0.181016
C38   C     C_R   0.604939 0.174870 0.822940 -0.020703
C39   C     C_1   0.643488 0.364658 0.366622 -0.209969
C40   C     C_1   0.632143 0.321836 0.323293 0.007057
C41   C     C_1   0.617607 0.271242 0.271797 0.008800
C42   C     C_1   0.605122 0.228627 0.228338 0.012973
C43   C     C_1   0.590585 0.178072 0.176815 0.021291
C44   C     C_1   0.579251 0.135315 0.133441 -0.189683
O11   O     O_R   0.731800 0.046750 0.952380 -0.538529
O12   O     O_R   0.399050 0.064920 0.059460 -0.523288
O13   O     O_R   0.225670 0.953300 0.047660 -0.508631
C45   C     C_R   0.568102 0.083336 0.081359 0.755076
O14   O     O_R   0.402270 0.053620 0.953470 -0.540136
O15   O     O_R   0.228900 0.941920 0.940910 -0.525534
C46   C     C_R   0.570882 0.065541 0.936818 0.691193
O16   O     O_R   0.728560 0.058130 0.059130 -0.515783
O17   O     O_3   0.561250 0.963410 0.996040 -0.357467
V3    V     V_3+5 0.287590 0.006790 0.000740 1.452477
O18   O     O_R   0.898990 0.935020 0.940500 -0.529554
C47   C     C_R   0.067756 0.916650 0.918649 0.698629
O19   O     O_R   0.895770 0.946320 0.046490 -0.523880
C48   C     C_R   0.064652 0.935710 0.064480 0.759787
V4    V     V_3+5 0.787210 0.993120 0.999190 1.450541
O20   O     O_3   0.063420 0.036580 0.003960 -0.366019
O21   O     O_3   0.411584 0.877386 0.092871 -0.542286
C49   C     C_3   0.427103 0.831689 0.041708 0.126864
H12   H     H_    0.518883 0.849487 0.013951 0.155729
H13   H     H_    0.287027 0.819613 0.019575 0.064543
C50   C     C_3   0.523639 0.775550 0.050250 -0.335755
H14   H     H_    0.663778 0.788245 0.071459 0.211051
H15   H     H_    0.432365 0.755972 0.076840 0.202330
C51   C     C_3   0.556631 0.727934 0.994856 -0.822150
H16   H     H_    0.417981 0.713854 0.973100 0.234505
H17   H     H_    0.626216 0.687857 0.002411 0.242985
H18   H     H_    0.651568 0.745926 0.967935 0.225925
O22   O     O_3   0.969536 0.297920 0.654038 -0.563143
C52   C     C_3   0.978108 0.242544 0.611802 0.064547
H19   H     H_    0.994883 0.250512 0.570300 0.112129
H20   H     H_    0.846173 0.215288 0.611635 0.124645
C53   C     C_3   0.150676 0.206776 0.622526 -0.240833
H21   H     H_    0.283953 0.232504 0.621202 0.197050
H22   H     H_    0.138225 0.200016 0.664509 0.259092
C54   C     C_3   0.163879 0.145441 0.579185 -0.800558
H23   H     H_    0.033827 0.118262 0.580491 0.245434
H24   H     H_    0.291134 0.120880 0.588107 0.246333
H25   H     H_    0.178885 0.151066 0.536879 0.229582
I1    I     I_    0.996812 0.117123 0.772697 -0.386846
I2    I     I_    0.426748 0.873157 0.229082 -0.274924
I3    I     I_    0.709299 0.967826 0.159818 -0.276919

loop_
_geom_bond_atom_site_label_1
_geom_bond_atom_site_label_2
_ccdc_geom_bond_type
C36   C37   A    
N5    N6    A    
C34   C35   A    
C22   H4    S    
C21   C22   A    
C49   H12   S    
C53   H22   S    
C17   C24   S    
C7    C8    T    
C1    O6    A    
C2    C39   S    
C52   H20   S    
C31   N7    A    
C14   H1    S    
N1    C18   A    
C11   C16   A    
C19   H2    S    
N4    C18   A    
O5    C3    A    
C20   H3    S    
C28   O22   S    
V2    O10   S    
C50   C51   S    
N6    C31   A    
C6    C7    S    
C42   C43   S    
C33   C34   A    
C54   H23   S    
C15   I3    S    
O8    V2    S    
N2    C17   A    
C37   C38   A    
C45   O16   A    
C50   H15   S    
C11   C12   A    
C39   C40   T    
O1    V2    S    
O7    V1    S    
N5    C32   A    
C26   C27   A    
C36   H11   S    
O12   V3    S    
N8    C32   A    
C49   H13   S    
C9    C10   T    
C22   C23   A    
C4    C5    S    
O17   V4    S    
C16   C48   S    
C52   H19   S    
C29   C30   A    
N3    N4    A    
O12   C45   A    
O13   C48   A    
V3    O20   S    
C25   C26   A    
C43   C44   T    
C28   C29   A    
C12   C13   A    
O14   C46   A    
O18   V4    S    
O11   C46   A    
O4    C2    A    
O18   C47   A    
C27   C28   A    
N7    N8    A    
C3    C21   S    
O2    C1    A    
C23   H5    S    
O14   V3    S    
C51   H16   S    
C53   H21   S    
C50   H14   S    
C25   C30   A    
C5    C6    T    
C19   C24   A    
C10   C47   S    
O17   V3    S    
C23   C24   A    
C54   H25   S    
O15   C47   A    
O3    C4    A    
C13   C18   S    
O13   V3    S    
C26   H7    S    
C51   H17   S    
O19   V4    S    
O6    V2    S    
O9    V2    S    
C53   C54   S    
V4    O20   S    
O2    V1    S    
C29   H8    S    
C33   C38   A    
O16   V4    S    
C25   H6    S    
C15   C16   A    
C1    C30   S    
C8    C9    S    
O1    C2    A    
C41   C42   T    
O5    V1    S    
O8    C3    A    
C49   C50   S    
C14   C15   A    
C27   C32   S    
C17   N3    A    
C19   C20   A    
C13   C14   A    
C40   C41   S    
O3    V1    S    
V1    O10   S    
C20   C21   A    
C35   C46   S    
N1    N2    A    
O21   C49   S    
O7    V2    S    
C33   H9    S    
C54   H24   S    
C34   H10   S    
O4    V1    S    
C51   H18   S    
O19   C48   A    
C12   I2    S    
C35   C36   A    
O11   V4    S    
O22   C52   S    
C11   O21   S    
C31   C38   S    
O9    C4    A    
C44   C45   S    
C52   C53   S    
O15   V3    S    
C37   I1    S    
