data_mof_unit_35220.cif
_audit_creation_date              2012-12-10T16:57:49-0500
_audit_creation_method            fapswitch 2.2
_symmetry_space_group_name_H-M    P1
_symmetry_Int_Tables_number       1
_space_group_crystal_system       triclinic
_cell_length_a                    7.878525
_cell_length_b                    8.563621
_cell_length_c                    19.017002
_cell_angle_alpha                 93.131567
_cell_angle_beta                  84.486248
_cell_angle_gamma                 93.195999
_cell_volume                      1273.56152463

loop_
_atom_site_label
_atom_site_type_symbol
_atom_type_description
_atom_site_fract_x
_atom_site_fract_y
_atom_site_fract_z
_atom_type_partial_charge
C1    C     C_R   0.544987 0.794199 0.498357 0.959446
C2    C     C_R   0.640442 0.400674 0.174888 -0.162032
C3    C     C_R   0.484671 0.397217 0.851316 0.085644
C4    C     C_R   0.483990 0.393302 0.145005 0.083251
C5    C     C_R   0.641423 0.407694 0.809653 -0.153330
C6    C     C_R   0.333128 0.423443 0.187844 -0.149426
C7    C     C_R   0.646840 0.445654 0.739500 -0.187012
C8    C     C_R   0.338862 0.461801 0.259399 -0.189600
C9    C     C_R   0.495500 0.472888 0.709952 -0.029079
C10   C     C_R   0.495420 0.469805 0.289143 -0.035208
C11   C     C_R   0.480319 0.368639 0.068569 0.293932
C12   C     C_R   0.455012 0.205799 0.501643 0.954965
C13   C     C_R   0.480730 0.370970 0.926692 0.294248
C14   C     C_2   0.016006 0.344525 0.430188 0.540785
C15   C     C_2   0.983966 0.655385 0.569844 0.544452
C16   C     C_2   0.568776 0.957533 0.497325 -0.358856
C17   C     C_2   0.431222 0.042478 0.502703 -0.356380
C18   C     C_R   0.499419 0.497178 0.634551 0.852325
C19   C     C_R   0.499440 0.495760 0.365359 0.851826
C20   C     C_R   0.338783 0.462763 0.751568 -0.169409
C21   C     C_R   0.646159 0.438984 0.246435 -0.162687
C22   C     C_R   0.333362 0.424824 0.821742 -0.161662
H1    H     H_    0.219972 0.481939 0.729803 0.170404
H2    H     H_    0.300807 0.992652 0.507935 0.197119
H3    H     H_    0.147694 0.320391 0.421456 0.098251
H4    H     H_    0.852273 0.679495 0.578578 0.098469
H5    H     H_    0.768446 0.442904 0.268270 0.176304
H6    H     H_    0.210783 0.418521 0.852820 0.154115
H7    H     H_    0.758953 0.378864 0.142991 0.155238
H8    H     H_    0.760312 0.388254 0.831267 0.150730
H9    H     H_    0.210763 0.419395 0.166100 0.150906
H10   H     H_    0.769359 0.451837 0.708334 0.157618
H11   H     H_    0.220423 0.483472 0.291394 0.157993
H12   H     H_    0.699191 0.007364 0.492096 0.197374
N1    N     N_R   0.627987 0.355862 0.956547 -0.173584
N2    N     N_R   0.332130 0.377534 0.038579 -0.173972
N3    N     N_R   0.627786 0.354736 0.026267 -0.170844
N4    N     N_R   0.332327 0.378646 0.968848 -0.170954
N5    N     N_2   0.950330 0.457950 0.481240 -0.160074
N6    N     N_2   0.049670 0.542050 0.518760 -0.161329
O1    O     O_R   0.389250 0.738570 0.504600 -0.570212
O2    O     O_2   0.081813 0.731071 0.606064 -0.586086
O3    O     O_R   0.610750 0.261430 0.495400 -0.571546
O4    O     O_R   0.678400 0.711620 0.492580 -0.666080
O5    O     O_R   0.321600 0.288380 0.507420 -0.668092
O6    O     O_R   0.355380 0.513500 0.607880 -0.576821
O7    O     O_R   0.644620 0.486500 0.392120 -0.577842
O8    O     O_R   0.644530 0.486550 0.595850 -0.670617
O9    O     O_R   0.355470 0.513450 0.404150 -0.668898
O10   O     O_2   0.918158 0.268835 0.393969 -0.591334
Zn1   Zn    Zn3+2 0.306930 0.517990 0.508030 0.974070
Zn2   Zn    Zn3+2 0.693070 0.482010 0.491970 0.973499

loop_
_geom_bond_atom_site_label_1
_geom_bond_atom_site_label_2
_ccdc_geom_bond_type
C12   C17   S    
C2    C4    A    
O7    Zn2   S    
N6    Zn1   S    
C19   O9    A    
C1    O4    A    
C3    C13   S    
C20   H1    S    
C10   C19   S    
C3    C5    A    
O4    Zn2   S    
C2    C21   A    
N2    N4    A    
N5    Zn2   S    
C21   H5    S    
C10   C21   A    
C1    C16   S    
C22   H6    S    
C4    C11   S    
C13   N4    A    
C14   O10   D    
C2    H7    S    
C6    C8    A    
C18   O6    A    
C1    O1    A    
C11   N2    A    
N1    N3    A    
C20   C22   A    
C13   N1    A    
C12   O3    A    
C5    C7    A    
C8    H11   S    
C14   H3    S    
C15   N6    S    
C19   O7    A    
O3    Zn2   S    
C17   H2    S    
O5    Zn1   S    
C7    C9    A    
C9    C18   S    
O8    Zn2   S    
C4    C6    A    
C5    H8    S    
N5    N6    D    
C11   N3    A    
C12   O5    A    
C15   H4    S    
C6    H9    S    
C7    H10   S    
C9    C20   A    
C3    C22   A    
C16   H12   S    
C14   N5    S    
O6    Zn1   S    
O1    Zn1   S    
C8    C10   A    
C15   O2    D    
C16   C17   D    
O9    Zn1   S    
C18   O8    A    
