data_mof_unit_34737.cif
_audit_creation_date              2012-12-10T17:02:17-0500
_audit_creation_method            fapswitch 2.2
_symmetry_space_group_name_H-M    P1
_symmetry_Int_Tables_number       1
_space_group_crystal_system       triclinic
_cell_length_a                    10.688594
_cell_length_b                    10.695961
_cell_length_c                    10.063789
_cell_angle_alpha                 89.72675
_cell_angle_beta                  90.231174
_cell_angle_gamma                 88.976439
_cell_volume                      1150.33407378

loop_
_atom_site_label
_atom_site_type_symbol
_atom_type_description
_atom_site_fract_x
_atom_site_fract_y
_atom_site_fract_z
_atom_type_partial_charge
C1    C     C_R   0.488019 0.263824 0.500160 0.854433
C2    C     C_2   0.463614 0.133612 0.501874 -0.235826
C3    C     C_2   0.554404 0.585317 0.924144 0.507628
C4    C     C_R   0.260605 0.501930 0.499830 0.844536
C5    C     C_2   0.570917 0.569865 0.072986 -0.050064
C6    C     C_R   0.504290 0.737303 0.499514 0.795735
C7    C     C_R   0.739354 0.487827 0.500328 0.843225
C8    C     C_R   0.149390 0.275238 0.587079 -0.172294
C9    C     C_R   0.096504 0.163392 0.624577 -0.200885
C10   C     C_R   0.968224 0.150994 0.618880 -0.076072
C11   C     C_R   0.890992 0.250750 0.577886 0.063734
C12   C     C_R   0.074409 0.378292 0.544299 0.090154
C13   C     C_R   0.942818 0.369077 0.542056 0.035696
C14   C     C_R   0.129050 0.489745 0.499988 -0.071395
C15   C     C_R   0.058886 0.590876 0.453261 -0.207889
C16   C     C_R   0.931226 0.585374 0.454458 -0.175224
C17   C     C_R   0.872790 0.477844 0.499916 -0.090345
C18   C     C_2   0.460321 0.933503 0.398343 -0.228503
C19   C     C_2   0.518989 0.869889 0.496196 0.300571
C20   C     C_2   0.465961 0.067690 0.390210 -0.125555
H1    H     H_    0.103293 0.675320 0.418538 0.145064
H2    H     H_    0.474031 0.111087 0.292863 0.172148
H3    H     H_    0.638680 0.743908 0.929194 0.306182
H4    H     H_    0.353301 0.413483 0.164081 0.380113
H5    H     H_    0.717034 0.276147 0.644048 0.225826
H6    H     H_    0.730234 0.247128 0.474502 0.191070
H7    H     H_    0.639464 0.863200 0.642204 0.359979
H8    H     H_    0.444470 0.090658 0.597619 0.194941
H9    H     H_    0.486453 0.415509 0.895015 0.187110
H10   H     H_    0.643715 0.623010 0.120991 0.090986
H11   H     H_    0.249833 0.279208 0.590933 0.143936
H12   H     H_    0.155498 0.085376 0.656274 0.150640
H13   H     H_    0.927892 0.062212 0.645851 0.162067
H14   H     H_    0.877207 0.666574 0.421056 0.149661
H15   H     H_    0.407397 0.886211 0.321606 0.139355
N1    N     N_2   0.501340 0.501330 0.852150 -0.171950
N2    N     N_2   0.501380 0.501360 0.147810 0.039447
N3    N     N_3   0.761644 0.224665 0.570097 -0.431680
O1    O     O_R   0.499980 0.319060 0.613040 -0.643695
O2    O     O_3   0.395327 0.460392 0.092690 -0.721310
O3    O     O_3   0.598979 0.927717 0.584593 -0.760982
O4    O     O_R   0.500020 0.319100 0.386900 -0.622491
O5    O     O_R   0.316750 0.499980 0.613090 -0.606895
O6    O     O_R   0.316790 0.500020 0.386950 -0.617189
O7    O     O_R   0.499980 0.680900 0.613100 -0.544616
O8    O     O_R   0.500020 0.680940 0.386960 -0.631188
O9    O     O_R   0.683210 0.499980 0.613050 -0.595381
O10   O     O_R   0.683250 0.500020 0.386910 -0.617526
O11   O     O_3   0.602460 0.688477 0.860996 -0.743845
Zn1   Zn    Zn3+2 0.499970 0.499970 0.650990 0.998276
Zn2   Zn    Zn3+2 0.500030 0.500030 0.349010 0.970286

loop_
_geom_bond_atom_site_label_1
_geom_bond_atom_site_label_2
_ccdc_geom_bond_type
C8    C9    A    
C11   N3    S    
O5    Zn1   S    
C6    O7    A    
C5    N2    D    
H5    N3    S    
O9    Zn1   S    
C4    O6    A    
C9    C10   A    
H7    O3    S    
C13   C17   A    
O4    Zn2   S    
C8    C12   A    
C7    O10   A    
C3    O11   S    
C6    C19   S    
C11   C13   A    
H9    N1    S    
C3    N1    D    
O7    Zn1   S    
O6    Zn2   S    
H4    O2    S    
C4    O5    A    
C12   C14   A    
C1    C2    S    
C10   H13   S    
C18   C20   S    
C4    C14   S    
N2    Zn2   S    
C7    O9    A    
H3    O11   S    
C10   C11   A    
C1    O1    A    
C2    C20   D    
N2    O2    S    
C19   O3    S    
C1    O4    A    
C15   H1    S    
O1    Zn1   S    
N1    Zn1   S    
C12   C13   A    
C5    H10   S    
C18   H15   S    
C14   C15   A    
C18   C19   D    
C2    H8    S    
C6    O8    A    
C9    H12   S    
C16   H14   S    
C8    H11   S    
O8    Zn2   S    
O10   Zn2   S    
H6    N3    S    
C15   C16   A    
C20   H2    S    
C16   C17   A    
C3    C5    S    
C7    C17   S    
