data_mof_unit_31174.cif
_audit_creation_date              2012-12-10T18:13:11-0500
_audit_creation_method            fapswitch 2.2
_symmetry_space_group_name_H-M    P1
_symmetry_Int_Tables_number       1
_space_group_crystal_system       triclinic
_cell_length_a                    18.223975
_cell_length_b                    18.563991
_cell_length_c                    26.039058
_cell_angle_alpha                 90.007898
_cell_angle_beta                  90.21778
_cell_angle_gamma                 89.998352
_cell_volume                      8809.20238278

loop_
_atom_site_label
_atom_site_type_symbol
_atom_type_description
_atom_site_fract_x
_atom_site_fract_y
_atom_site_fract_z
_atom_type_partial_charge
C1    C     C_R   0.858659 0.139490 0.250284 0.923774
C2    C     C_R   0.821574 0.265083 0.269481 0.574228
C3    C     C_R   0.259776 0.291984 0.296649 0.256613
C4    C     C_R   0.178867 0.264682 0.729737 0.576767
C5    C     C_R   0.203623 0.241149 0.294005 0.580296
C6    C     C_R   0.298058 0.742724 0.207042 0.575402
C7    C     C_R   0.295066 0.738028 0.789488 0.588094
C8    C     C_R   0.704764 0.738062 0.210556 0.579788
C9    C     C_R   0.702279 0.742444 0.793134 0.576102
C10   C     C_R   0.797261 0.189806 0.745484 -0.402900
C11   C     C_R   0.803616 0.197705 0.247790 -0.399991
C12   C     C_R   0.196372 0.197743 0.752252 -0.401819
C13   C     C_R   0.857852 0.137980 0.748579 0.933794
C14   C     C_R   0.202736 0.189839 0.254480 -0.402043
C15   C     C_R   0.297353 0.689774 0.245403 -0.400540
C16   C     C_R   0.303052 0.696252 0.745622 -0.391107
C17   C     C_R   0.696766 0.696376 0.254452 -0.390255
C18   C     C_R   0.702672 0.689794 0.754543 -0.401177
C19   C     C_R   0.740145 0.189763 0.781762 0.284527
C20   C     C_R   0.737371 0.190246 0.219503 0.163112
C21   C     C_R   0.262103 0.190808 0.781212 0.163324
C22   C     C_R   0.259696 0.189941 0.218073 0.283566
C23   C     C_R   0.238626 0.687877 0.280367 0.271435
C24   C     C_R   0.142148 0.137993 0.251413 0.932528
C25   C     C_R   0.263196 0.713720 0.699797 0.174739
C26   C     C_R   0.736675 0.713837 0.300242 0.176336
C27   C     C_R   0.761086 0.688227 0.719295 0.272798
C28   C     C_R   0.198899 0.751024 0.288232 0.284170
C29   C     C_R   0.220405 0.777496 0.699326 0.314465
C30   C     C_R   0.779530 0.777567 0.300654 0.311873
C31   C     C_R   0.800735 0.751445 0.711552 0.284443
C32   C     C_R   0.701220 0.253427 0.789146 0.283711
C33   C     C_R   0.696381 0.252111 0.208417 0.304709
C34   C     C_R   0.302970 0.252838 0.792045 0.299822
C35   C     C_R   0.141341 0.139497 0.749735 0.927474
C36   C     C_R   0.298592 0.253629 0.210749 0.282954
C37   C     C_R   0.195073 0.802013 0.247553 -0.425154
C38   C     C_R   0.206758 0.813699 0.746094 -0.387696
C39   C     C_R   0.793346 0.813590 0.253829 -0.398431
C40   C     C_R   0.804896 0.802081 0.752429 -0.425108
C41   C     C_R   0.695457 0.302493 0.747545 -0.425453
C42   C     C_R   0.705728 0.313590 0.239894 -0.406357
C43   C     C_R   0.294135 0.313753 0.759976 -0.402972
C44   C     C_R   0.304538 0.302521 0.252443 -0.425734
C45   C     C_R   0.066355 0.010342 0.025657 0.223778
C46   C     C_R   0.359625 0.640018 0.748651 0.931450
C47   C     C_R   0.065219 0.991185 0.974123 0.286913
C48   C     C_R   0.934528 0.993318 0.025821 0.248286
C49   C     C_R   0.933876 0.011984 0.974221 0.231122
C50   C     C_R   0.566100 0.508010 0.525836 0.288363
C51   C     C_R   0.565980 0.489031 0.474141 0.284851
C52   C     C_R   0.433731 0.490157 0.525796 0.214471
C53   C     C_R   0.433965 0.509114 0.474091 0.298164
C54   C     C_R   0.999559 0.001937 0.946372 -0.367400
C55   C     C_R   0.000452 0.002343 0.053553 -0.395279
C56   C     C_R   0.499995 0.499291 0.446374 -0.365682
C57   C     C_R   0.357898 0.637984 0.248577 0.929985
C58   C     C_R   0.499920 0.499287 0.553586 -0.379559
C59   C     C_R   0.140239 0.859889 0.249569 0.942446
C60   C     C_R   0.142457 0.861908 0.749466 0.928633
C61   C     C_R   0.857588 0.861863 0.250497 0.951429
C62   C     C_R   0.859764 0.859899 0.750434 0.942841
C63   C     C_R   0.640279 0.359978 0.749542 0.949206
C64   C     C_R   0.643455 0.363571 0.246799 0.917099
C65   C     C_R   0.356523 0.363604 0.753176 0.923825
C66   C     C_R   0.359725 0.359980 0.250458 0.951190
C67   C     C_R   0.000110 0.000859 0.109746 0.921306
C68   C     C_R   0.642110 0.637994 0.751413 0.931481
C69   C     C_R   0.999906 0.000609 0.890234 0.904615
C70   C     C_R   0.499931 0.499842 0.609747 0.950073
C71   C     C_R   0.500052 0.499849 0.390238 0.974993
C72   C     C_R   0.000003 0.999833 0.389709 0.923250
C73   C     C_R   0.999998 0.999827 0.610291 0.924778
C74   C     C_R   0.499911 0.499834 0.889709 0.916610
C75   C     C_R   0.499907 0.499829 0.110290 0.916570
C76   C     C_R   0.999995 0.061475 0.474027 -0.278738
C77   C     C_R   0.999973 0.061472 0.525988 -0.279263
C78   C     C_R   0.500958 0.561475 0.974029 -0.273964
C79   C     C_R   0.640317 0.640053 0.251388 0.933755
C80   C     C_R   0.500944 0.561473 0.025990 -0.273867
C81   C     C_R   0.000029 0.998421 0.445395 -0.238605
C82   C     C_R   0.999977 0.998414 0.554605 -0.239342
C83   C     C_R   0.499504 0.498430 0.945395 -0.233409
C84   C     C_R   0.499486 0.498424 0.054603 -0.233587
C85   C     C_R   0.000077 0.932604 0.473018 0.587110
C86   C     C_R   0.999975 0.932601 0.526968 0.587054
C87   C     C_R   0.497625 0.432630 0.973010 0.585998
C88   C     C_R   0.497607 0.432628 0.026965 0.585768
C89   C     C_3   0.999930 0.141590 0.529577 1.113061
C90   C     C_R   0.796544 0.241261 0.706069 0.579212
C91   C     C_3   0.999975 0.141593 0.470457 1.112091
C92   C     C_3   0.503556 0.641557 0.029587 1.106665
C93   C     C_3   0.503582 0.641558 0.970465 1.106993
C94   C     C_R   0.241731 0.793198 0.204115 0.259105
C95   C     C_R   0.253584 0.800065 0.788953 0.234097
C96   C     C_R   0.746597 0.799887 0.210932 0.243963
C97   C     C_R   0.758579 0.792974 0.796012 0.258353
C98   C     C_R   0.740405 0.292098 0.703409 0.257470
C99   C     C_R   0.773346 0.323211 0.265894 0.267193
C100  C     C_R   0.227000 0.322862 0.733233 0.279435
F1    F     F_    0.000286 0.868052 0.448464 -0.524425
F2    F     F_    0.440903 0.670591 0.948541 -0.552165
F3    F     F_    0.568009 0.666583 0.051510 -0.555481
F4    F     F_    0.568061 0.666575 0.948918 -0.557265
F5    F     F_    0.848116 0.239464 0.668546 -0.509385
F6    F     F_    0.885903 0.274236 0.295194 -0.524301
F7    F     F_    0.115164 0.273292 0.703182 -0.522374
F8    F     F_    0.152241 0.239175 0.331650 -0.509036
F9    F     F_    0.351343 0.742900 0.170684 -0.517173
F10   F     F_    0.328844 0.718195 0.834106 -0.525522
F11   F     F_    0.671378 0.717789 0.165896 -0.526493
F12   F     F_    0.999813 0.868049 0.551509 -0.524416
F13   F     F_    0.649356 0.742230 0.829749 -0.516484
F14   F     F_    0.495790 0.368100 0.948439 -0.533086
F15   F     F_    0.495721 0.368101 0.051514 -0.533313
F16   F     F_    0.936289 0.168596 0.551131 -0.553267
F17   F     F_    0.936373 0.168607 0.448530 -0.572053
F18   F     F_    0.063512 0.168646 0.551510 -0.568095
F19   F     F_    0.063596 0.168644 0.448909 -0.551978
F20   F     F_    0.440851 0.670580 0.051154 -0.554232
H1    H     H_    0.275915 0.835359 0.068386 0.423803
H2    H     H_    0.774630 0.103320 0.140387 0.369945
H3    H     H_    0.223074 0.105814 0.860637 0.368608
H4    H     H_    0.321860 0.004111 0.227685 0.405051
H5    H     H_    0.187239 0.498132 0.269302 0.404251
H6    H     H_    0.362094 0.694955 0.614003 0.366618
H7    H     H_    0.637929 0.694682 0.386136 0.365998
H8    H     H_    0.814510 0.499084 0.729829 0.404571
H9    H     H_    0.187516 0.729419 0.428082 0.420056
H10   H     H_    0.247613 0.830763 0.564937 0.404244
H11   H     H_    0.752329 0.830942 0.435025 0.403943
H12   H     H_    0.376714 0.883872 0.881355 0.421668
H13   H     H_    0.810916 0.731200 0.571554 0.418959
H14   H     H_    0.700560 0.239197 0.929434 0.408277
H15   H     H_    0.656124 0.208928 0.073290 0.419573
H16   H     H_    0.341508 0.211846 0.927731 0.420088
H17   H     H_    0.298742 0.239991 0.070428 0.408626
H18   H     H_    0.094368 0.151737 0.070226 0.338298
H19   H     H_    0.108724 0.876893 0.880397 0.377471
H20   H     H_    0.933922 0.846946 0.065264 0.362023
H21   H     H_    0.907537 0.152364 0.927521 0.337280
H22   H     H_    0.656895 0.655380 0.591039 0.411510
H23   H     H_    0.629043 0.880350 0.113428 0.419199
H24   H     H_    0.661907 0.354208 0.396676 0.400867
H25   H     H_    0.413901 0.349010 0.572177 0.349282
H26   H     H_    0.342712 0.654274 0.405323 0.412640
H27   H     H_    0.725647 0.834315 0.932048 0.422942
H28   H     H_    0.770001 0.331036 0.566681 0.423736
H29   H     H_    0.907533 0.460851 0.304810 0.409059
H30   H     H_    0.093955 0.459408 0.690350 0.408420
H31   H     H_    0.231443 0.330081 0.433659 0.424058
H32   H     H_    0.679313 0.003293 0.772335 0.404916
O1    O     O_3   0.000000 0.000010 0.249960 -0.605140
O2    O     O_R   0.414520 0.646190 0.219700 -0.569072
O3    O     O_3   0.785992 0.541082 0.742072 -0.535124
O4    O     O_2   0.174809 0.846483 0.364550 -0.288536
O5    O     O_2   0.084888 0.749138 0.354084 -0.141695
O6    O     O_3   0.211270 0.718762 0.394784 -0.500775
O7    O     O_2   0.127599 0.796274 0.619588 -0.150282
O8    O     O_2   0.193913 0.903072 0.649477 -0.304329
O9    O     O_3   0.266371 0.809318 0.597251 -0.513942
O10   O     O_2   0.872357 0.796508 0.380360 -0.149917
O11   O     O_2   0.805924 0.903214 0.350441 -0.308465
O12   O     O_3   0.733584 0.809441 0.402722 -0.514166
O13   O     O_R   0.585480 0.646190 0.780300 -0.569078
O14   O     O_2   0.824242 0.847665 0.635655 -0.289695
O15   O     O_2   0.914175 0.750158 0.645198 -0.141191
O16   O     O_3   0.787412 0.720272 0.604893 -0.501864
O17   O     O_2   0.681475 0.353535 0.862975 -0.293826
O18   O     O_2   0.592659 0.254378 0.859251 -0.135327
O19   O     O_3   0.722759 0.228227 0.895661 -0.461508
O20   O     O_2   0.569986 0.236336 0.155057 -0.141086
O21   O     O_2   0.651781 0.334241 0.128585 -0.261201
O22   O     O_3   0.687755 0.204511 0.104149 -0.498949
O23   O     O_2   0.428763 0.238368 0.846327 -0.138449
O24   O     O_R   0.585480 0.646190 0.219700 -0.565928
O25   O     O_2   0.346179 0.336301 0.871510 -0.261479
O26   O     O_3   0.310451 0.206693 0.896645 -0.500175
O27   O     O_2   0.318063 0.354043 0.137121 -0.292892
O28   O     O_2   0.406905 0.254888 0.140451 -0.132707
O29   O     O_3   0.276683 0.228858 0.104217 -0.462583
O30   O     O_2   0.191260 0.995599 0.078495 -0.100633
O31   O     O_2   0.192564 0.081443 0.007481 -0.218631
O32   O     O_3   0.125061 0.118477 0.090875 -0.501903
O33   O     O_2   0.188006 0.976629 0.919402 -0.176492
O34   O     O_2   0.176824 0.900295 0.995330 -0.171933
O35   O     O_R   0.085460 0.853840 0.280340 -0.585978
O36   O     O_3   0.096639 0.867055 0.916723 -0.508134
O37   O     O_2   0.809010 0.982452 0.077768 -0.140073
O38   O     O_2   0.824176 0.900662 0.004976 -0.205379
O39   O     O_3   0.899836 0.874467 0.087385 -0.502790
O40   O     O_2   0.808573 0.997221 0.921930 -0.099257
O41   O     O_2   0.808674 0.085279 0.991586 -0.220078
O42   O     O_3   0.876076 0.119013 0.907518 -0.502450
O43   O     O_2   0.692741 0.501131 0.577690 -0.117692
O44   O     O_2   0.686203 0.588425 0.507443 -0.195602
O45   O     O_3   0.617295 0.618918 0.591633 -0.555393
O46   O     O_R   0.085460 0.853840 0.719660 -0.584026
O47   O     O_2   0.691969 0.495491 0.420793 -0.105486
O48   O     O_2   0.687159 0.408919 0.491597 -0.223363
O49   O     O_3   0.616166 0.377863 0.408281 -0.552592
O50   O     O_2   0.307650 0.499030 0.578718 -0.071794
O51   O     O_2   0.310743 0.412040 0.508411 -0.213636
O52   O     O_3   0.380189 0.380111 0.592060 -0.511095
O53   O     O_2   0.307376 0.503362 0.422156 -0.121167
O54   O     O_2   0.314854 0.591250 0.492039 -0.192403
O55   O     O_3   0.384280 0.620142 0.407843 -0.561009
O56   O     O_R   0.914540 0.853840 0.280340 -0.589358
O57   O     O_R   0.914540 0.853840 0.719660 -0.586425
O58   O     O_R   0.585460 0.353840 0.780340 -0.581793
O59   O     O_R   0.585460 0.353840 0.219660 -0.583796
O60   O     O_R   0.414540 0.353840 0.780340 -0.587803
O61   O     O_3   0.000000 0.000010 0.750040 -0.600160
O62   O     O_R   0.414540 0.353840 0.219660 -0.581220
O63   O     O_R   0.853820 0.914550 0.219610 -0.567564
O64   O     O_R   0.853820 0.914550 0.780390 -0.575208
O65   O     O_R   0.146180 0.914550 0.219610 -0.574590
O66   O     O_R   0.146180 0.914550 0.780390 -0.601746
O67   O     O_R   0.353820 0.414550 0.719610 -0.564795
O68   O     O_R   0.353820 0.414550 0.280390 -0.579278
O69   O     O_R   0.646180 0.414550 0.719610 -0.578597
O70   O     O_R   0.646180 0.414550 0.280390 -0.580903
O71   O     O_R   0.146170 0.085440 0.219600 -0.570288
O72   O     O_3   0.500000 0.500010 0.749960 -0.612573
O73   O     O_R   0.146170 0.085440 0.780400 -0.626429
O74   O     O_R   0.853830 0.085440 0.219600 -0.633491
O75   O     O_R   0.853830 0.085440 0.780400 -0.568808
O76   O     O_R   0.646170 0.585440 0.719600 -0.575524
O77   O     O_R   0.646170 0.585440 0.280400 -0.566118
O78   O     O_R   0.353830 0.585440 0.719600 -0.566922
O79   O     O_R   0.353830 0.585440 0.280400 -0.578310
O80   O     O_R   0.939270 0.999980 0.134160 -0.595511
O81   O     O_R   0.939270 0.999980 0.865840 -0.550720
O82   O     O_R   0.060730 0.999980 0.134160 -0.558572
O83   O     O_3   0.500000 0.500010 0.250040 -0.610725
O84   O     O_R   0.060730 0.999980 0.865840 -0.644551
O85   O     O_R   0.439270 0.499980 0.634160 -0.564185
O86   O     O_R   0.439270 0.499980 0.365840 -0.566964
O87   O     O_R   0.560730 0.499980 0.634160 -0.563142
O88   O     O_R   0.560730 0.499980 0.365840 -0.568445
O89   O     O_R   0.000000 0.060760 0.365760 -0.589784
O90   O     O_R   0.000000 0.060760 0.634240 -0.588918
O91   O     O_R   0.500000 0.560760 0.865760 -0.583523
O92   O     O_R   0.500000 0.560760 0.134240 -0.583432
O93   O     O_R   0.000000 0.939310 0.365770 -0.549511
O94   O     O_R   0.914520 0.146190 0.280300 -0.550218
O95   O     O_R   0.000000 0.939310 0.634230 -0.548470
O96   O     O_R   0.500000 0.439310 0.865770 -0.553701
O97   O     O_R   0.500000 0.439310 0.134230 -0.553786
O98   O     O_2   0.153224 0.848440 0.130474 -0.274344
O99   O     O_2   0.265112 0.915735 0.153027 -0.199267
O100  O     O_3   0.277283 0.800694 0.097287 -0.383213
O101  O     O_2   0.258218 0.937218 0.829164 -0.152470
O102  O     O_2   0.239583 0.834706 0.887814 -0.184257
O103  O     O_3   0.367830 0.855875 0.849541 -0.417340
O104  O     O_2   0.743213 0.936165 0.169226 -0.145700
O105  O     O_R   0.914520 0.146190 0.719700 -0.562780
O106  O     O_2   0.766835 0.832541 0.112502 -0.153417
O107  O     O_3   0.635797 0.853540 0.145998 -0.420218
O108  O     O_2   0.847638 0.847943 0.869459 -0.270123
O109  O     O_2   0.735522 0.915251 0.847578 -0.200206
O110  O     O_3   0.723909 0.799882 0.903007 -0.383801
O111  O     O_2   0.649673 0.346571 0.630757 -0.290341
O112  O     O_2   0.762846 0.413350 0.650560 -0.192185
O113  O     O_3   0.772081 0.296985 0.595929 -0.386751
O114  O     O_2   0.776853 0.467293 0.253177 -0.274282
O115  O     O_2   0.774838 0.420709 0.341513 -0.184883
O116  O     O_R   0.085480 0.146190 0.280300 -0.562796
O117  O     O_3   0.896198 0.412775 0.290293 -0.416637
O118  O     O_2   0.222334 0.467057 0.744604 -0.281610
O119  O     O_2   0.228293 0.418953 0.656748 -0.135826
O120  O     O_3   0.104786 0.411587 0.705463 -0.419642
O121  O     O_2   0.350953 0.346117 0.369164 -0.284183
O122  O     O_2   0.237691 0.413028 0.349910 -0.192032
O123  O     O_3   0.228749 0.296373 0.404226 -0.386559
O124  O     O_2   0.738154 0.087344 0.854620 -0.096736
O125  O     O_2   0.620765 0.117768 0.814416 -0.200260
O126  O     O_3   0.713173 0.042185 0.761660 -0.539207
O127  O     O_R   0.085480 0.146190 0.719700 -0.548575
O128  O     O_2   0.718109 0.050261 0.244900 -0.228619
O129  O     O_2   0.616225 0.110286 0.202142 -0.155899
O130  O     O_3   0.728677 0.076431 0.146842 -0.372981
O131  O     O_2   0.282742 0.050985 0.756563 -0.221739
O132  O     O_2   0.382791 0.111190 0.801252 -0.154524
O133  O     O_3   0.268136 0.077411 0.854382 -0.371195
O134  O     O_2   0.261337 0.087670 0.145066 -0.095830
O135  O     O_2   0.378943 0.118153 0.184932 -0.199949
O136  O     O_3   0.286963 0.042365 0.237901 -0.538471
O137  O     O_2   0.235258 0.582427 0.350955 -0.141556
O138  O     O_R   0.414520 0.646190 0.780300 -0.566252
O139  O     O_2   0.118896 0.613009 0.309301 -0.202590
O140  O     O_3   0.214247 0.540890 0.256731 -0.535786
O141  O     O_2   0.235766 0.580824 0.664261 -0.145698
O142  O     O_2   0.210166 0.675753 0.603642 -0.136190
O143  O     O_3   0.346426 0.645094 0.621823 -0.497478
O144  O     O_2   0.764410 0.580934 0.335641 -0.141769
O145  O     O_2   0.789930 0.675849 0.396319 -0.135586
O146  O     O_3   0.653719 0.644870 0.378263 -0.498262
O147  O     O_2   0.763441 0.583397 0.648192 -0.137633
O148  O     O_2   0.880429 0.613728 0.689079 -0.203755
S1    S     S_3+6 0.232725 0.842057 0.145490 0.167742
S2    S     S_3+6 0.698405 0.104671 0.204367 0.179522
S3    S     S_3+6 0.300732 0.105494 0.797422 0.183191
S4    S     S_3+6 0.298215 0.108482 0.194401 0.168718
S5    S     S_3+6 0.200134 0.604930 0.301374 0.156465
S6    S     S_3+6 0.261348 0.653276 0.645978 0.182726
S7    S     S_3+6 0.738714 0.653312 0.354015 0.183845
S8    S     S_3+6 0.799331 0.605506 0.697602 0.157852
S9    S     S_3+6 0.164969 0.768194 0.351367 0.141545
S10   S     S_3+6 0.199532 0.823221 0.640534 0.123122
S11   S     S_3+6 0.800388 0.823370 0.359420 0.120912
S12   S     S_3+6 0.276562 0.860135 0.839775 0.181898
S13   S     S_3+6 0.834134 0.769235 0.648367 0.141257
S14   S     S_3+6 0.672003 0.274344 0.852764 0.143627
S15   S     S_3+6 0.648783 0.258138 0.148281 0.150564
S16   S     S_3+6 0.349773 0.259914 0.852420 0.150541
S17   S     S_3+6 0.327582 0.274810 0.147128 0.145167
S18   S     S_3+6 0.147001 0.051248 0.050407 0.158272
S19   S     S_3+6 0.135402 0.933778 0.951422 0.170698
S20   S     S_3+6 0.863169 0.937564 0.048606 0.168797
S21   S     S_3+6 0.853641 0.053228 0.949034 0.159731
S22   S     S_3+6 0.644060 0.554081 0.550519 0.163027
S23   S     S_3+6 0.726256 0.858693 0.158843 0.206670
S24   S     S_3+6 0.643816 0.443097 0.448863 0.159074
S25   S     S_3+6 0.354939 0.445596 0.550966 0.177089
S26   S     S_3+6 0.356630 0.555976 0.449170 0.161582
S27   S     S_3+6 0.768024 0.841551 0.854748 0.167662
S28   S     S_3+6 0.729623 0.339777 0.644426 0.164117
S29   S     S_3+6 0.803998 0.408726 0.288329 0.160875
S30   S     S_3+6 0.196881 0.407819 0.709398 0.172652
S31   S     S_3+6 0.270918 0.339406 0.355724 0.164495
S32   S     S_3+6 0.701566 0.108208 0.805195 0.167988
Zn1   Zn    Zn3+2 0.000000 0.913260 0.293350 1.145263
Zn2   Zn    Zn3+2 0.413230 0.500000 0.293420 1.129957
Zn3   Zn    Zn3+2 0.586770 0.500000 0.706580 1.128993
Zn4   Zn    Zn3+2 0.586770 0.500000 0.293420 1.136623
Zn5   Zn    Zn3+2 0.000000 0.086780 0.293330 1.141410
Zn6   Zn    Zn3+2 0.000000 0.086780 0.706670 1.145690
Zn7   Zn    Zn3+2 0.500000 0.586780 0.793330 1.133296
Zn8   Zn    Zn3+2 0.500000 0.586780 0.206670 1.133735
Zn9   Zn    Zn3+2 0.000000 0.913260 0.706650 1.141526
Zn10  Zn    Zn3+2 0.500000 0.413260 0.793350 1.138868
Zn11  Zn    Zn3+2 0.500000 0.413260 0.206650 1.141934
Zn12  Zn    Zn3+2 0.913230 0.000000 0.206580 1.104544
Zn13  Zn    Zn3+2 0.913230 0.000000 0.793420 1.130802
Zn14  Zn    Zn3+2 0.086770 0.000000 0.206580 1.132757
Zn15  Zn    Zn3+2 0.086770 0.000000 0.793420 1.066927
Zn16  Zn    Zn3+2 0.413230 0.500000 0.706580 1.145970

loop_
_geom_bond_atom_site_label_1
_geom_bond_atom_site_label_2
_ccdc_geom_bond_type
C15   C57   S    
C73   C82   S    
O102  S12   D    
C74   C83   S    
C87   C88   A    
O132  S3    D    
O12   S11   S    
C99   S29   S    
C77   C89   S    
C69   O84   A    
O114  S29   D    
O137  S5    D    
C36   S17   S    
O87   Zn3   S    
O72   Zn10  S    
O64   Zn13  S    
O124  S32   D    
O13   Zn7   S    
C6    C94   A    
C28   S9    S    
C70   O85   A    
C4    C12   A    
H18   O32   S    
O148  S8    D    
C60   O46   A    
O18   S14   D    
C77   C82   A    
O72   Zn7   S    
O25   S16   D    
C19   C32   A    
O60   Zn10  S    
C45   C47   A    
C25   C29   A    
C39   C61   S    
C4    F7    S    
C11   C20   A    
O112  S28   D    
O20   S15   D    
C27   C31   A    
O83   Zn11  S    
O80   Zn12  S    
O115  S29   D    
C8    F11   S    
O45   S22   S    
C58   C70   S    
O19   S14   S    
C3    C5    A    
O72   Zn16  S    
O29   S17   S    
C96   S23   S    
C20   S2    S    
C21   S3    S    
H28   O113  S    
C80   C92   S    
C22   S4    S    
O48   S24   D    
O104  S23   D    
C98   S28   S    
O86   Zn2   S    
O1    Zn5   S    
C52   C58   A    
O142  S6    D    
C20   C33   A    
O81   Zn13  S    
C47   S19   S    
C36   C44   A    
C29   S10   S    
C41   C63   S    
C63   O58   A    
O69   Zn3   S    
C48   S20   S    
C42   C64   S    
C16   C25   A    
C35   O73   A    
O84   Zn15  S    
O1    Zn12  S    
C84   C88   A    
C90   F5    S    
H26   O55   S    
C13   O75   A    
C68   O76   A    
C73   O95   A    
C6    F9    S    
C22   C36   A    
C57   O2    A    
C8    C17   A    
C71   O88   A    
H7    O146  S    
H11   O12   S    
O32   S18   S    
O130  S2    S    
C61   O56   A    
O143  S6    S    
O140  S5    S    
C1    O74   A    
C85   C86   A    
C50   S22   S    
O125  S32   D    
C33   C42   A    
O97   Zn11  S    
C78   C80   A    
C75   C84   S    
H17   O29   S    
C18   C68   S    
O39   S20   S    
C27   S8    S    
C14   C24   S    
C13   O105  A    
C79   O77   A    
O46   Zn9   S    
O57   Zn9   S    
C73   O90   A    
C29   C38   A    
C32   C41   A    
C59   O35   A    
C89   C91   S    
C30   S11   S    
C97   S27   S    
O91   Zn7   S    
O146  S7    S    
O55   S26   S    
O1    Zn14  S    
C2    C11   A    
H9    O6    S    
O17   S14   D    
C51   S24   S    
O110  S27   S    
C3    C44   A    
C71   O86   A    
H23   O107  S    
O106  S23   D    
H13   O16   S    
C65   O67   A    
C2    F6    S    
C60   O66   A    
C74   O96   A    
O61   Zn6   S    
C64   O70   A    
C23   C28   A    
C12   C35   S    
C37   C59   S    
C49   S21   S    
C38   C60   S    
O117  S29   S    
C2    C99   A    
C26   C30   A    
O135  S4    D    
H22   O45   S    
C91   F19   S    
O138  Zn7   S    
O96   Zn10  S    
H19   O36   S    
O71   Zn14  S    
C52   C53   A    
C53   C56   A    
O67   Zn16  S    
O61   Zn13  S    
O62   Zn11  S    
O30   S18   D    
C79   O24   A    
O107  S23   S    
C34   C43   A    
O37   S20   D    
O33   S19   D    
O100  S1    S    
C7    F10   S    
C9    F13   S    
C92   F3    S    
C88   F15   S    
O123  S31   S    
C92   F20   S    
O89   Zn5   S    
C33   S15   S    
O85   Zn16  S    
C34   S16   S    
O141  S6    D    
C28   C37   A    
O99   S1    D    
C30   C39   A    
O41   S21   D    
C76   C91   S    
H24   O49   S    
C9    C18   A    
C45   C55   A    
O9    S10   S    
H20   O39   S    
O2    Zn8   S    
C61   O63   A    
H31   O123  S    
O129  S2    D    
O145  S7    D    
O108  S27   D    
C81   C85   A    
C48   C55   A    
C83   C87   A    
O4    S9    D    
C67   O82   A    
O127  Zn6   S    
O61   Zn9   S    
C63   O69   A    
O126  S32   S    
C80   C84   A    
O26   S16   S    
O83   Zn4   S    
O133  S3    S    
O118  S30   D    
O134  S4    D    
O95   Zn9   S    
O52   S25   S    
O7    S10   D    
C24   O71   A    
O42   S21   S    
C31   C40   A    
C65   O60   A    
C66   O68   A    
C75   O92   A    
O65   Zn14  S    
C78   C83   A    
C8    C96   A    
O59   Zn11  S    
C91   F17   S    
O22   S15   S    
C72   C81   S    
O61   Zn15  S    
O92   Zn8   S    
C24   O116  A    
O101  S12   D    
C46   O78   A    
O36   S19   S    
C50   C58   A    
H15   O22   S    
C43   C100  A    
C16   C46   S    
C40   C97   A    
O72   Zn3   S    
C21   C34   A    
O105  Zn6   S    
C82   C86   A    
C72   O93   A    
C66   O62   A    
O79   Zn2   S    
C10   C19   A    
C43   C65   S    
C56   C71   S    
C50   C51   A    
O10   S11   D    
H2    O130  S    
C5    C14   A    
O5    S9    D    
C47   C54   A    
C74   O91   A    
H4    O136  S    
O8    S10   D    
C7    C16   A    
O82   Zn14  S    
C67   O80   A    
C59   O65   A    
O6    S9    S    
O49   S24   S    
C94   S1    S    
H30   O120  S    
O98   S1    D    
C45   S18   S    
O111  S28   D    
H6    O143  S    
C25   S6    S    
O83   Zn2   S    
C9    C97   A    
O58   Zn10  S    
O75   Zn13  S    
H1    O100  S    
C93   F2    S    
H25   O52   S    
O144  S7    D    
C3    S31   S    
O128  S2    D    
H29   O117  S    
C14   C22   A    
C54   C69   S    
C100  S30   S    
C92   C93   S    
O116  Zn5   S    
O70   Zn4   S    
O3    S8    S    
C10   C90   A    
O44   S22   D    
O16   S13   S    
C75   O97   A    
C5    F8    S    
O122  S31   D    
C44   C66   S    
C1    C11   S    
O50   S25   D    
O40   S21   D    
O66   Zn15  S    
C35   O127  A    
O94   Zn5   S    
O120  S30   S    
C17   C26   A    
O93   Zn1   S    
C1    O94   A    
C57   O79   A    
O147  S8    D    
C78   C93   S    
C49   C54   A    
H16   O26   S    
C17   C79   S    
C40   C62   S    
C51   C56   A    
C46   O138  A    
O74   Zn12  S    
C87   F14   S    
C69   O81   A    
H3    O133  S    
H8    O3    S    
C6    C15   A    
C23   S5    S    
O139  S5    D    
O73   Zn15  S    
C64   O59   A    
O113  S28   S    
C32   S14   S    
O43   S22   D    
H12   O103  S    
C68   O13   A    
C31   S13   S    
C15   C23   A    
O56   Zn1   S    
C89   F16   S    
C26   S7    S    
O136  S4    S    
O1    Zn1   S    
C93   F4    S    
O76   Zn3   S    
O28   S17   D    
O51   S25   D    
C95   S12   S    
O15   S13   D    
O31   S18   D    
C76   C77   A    
O88   Zn4   S    
O38   S20   D    
O54   S26   D    
O23   S16   D    
C12   C21   A    
C38   C95   A    
C86   F12   S    
O77   Zn4   S    
O63   Zn12  S    
H27   O110  S    
H32   O126  S    
H10   O9    S    
C19   S32   S    
H14   O19   S    
C4    C100  A    
C70   O87   A    
C85   F1    S    
O131  S3    D    
C48   C49   A    
C52   S25   S    
C62   O64   A    
C72   O89   A    
C18   C27   A    
O24   Zn8   S    
C10   C13   S    
O27   S17   D    
C76   C81   A    
C55   C67   S    
O14   S13   D    
C7    C95   A    
O53   S26   D    
O78   Zn16  S    
O90   Zn6   S    
O109  S27   D    
C42   C99   A    
O103  S12   S    
O35   Zn1   S    
O47   S24   D    
C53   S26   S    
C62   O57   A    
C37   C94   A    
H21   O42   S    
C39   C96   A    
H5    O140  S    
O68   Zn2   S    
O119  S30   D    
C89   F18   S    
O34   S19   D    
O121  S31   D    
C41   C98   A    
O21   S15   D    
O83   Zn8   S    
O11   S11   D    
C90   C98   A    
