data_mof_unit_63057.cif
_audit_creation_date              2012-12-10T18:19:39-0500
_audit_creation_method            fapswitch 2.2
_symmetry_space_group_name_H-M    P1
_symmetry_Int_Tables_number       1
_space_group_crystal_system       triclinic
_cell_length_a                    39.002149
_cell_length_b                    32.229712
_cell_length_c                    21.803977
_cell_angle_alpha                 89.971226
_cell_angle_beta                  124.260796
_cell_angle_gamma                 90.033179
_cell_volume                      22652.4343601

loop_
_atom_site_label
_atom_site_type_symbol
_atom_type_description
_atom_site_fract_x
_atom_site_fract_y
_atom_site_fract_z
_atom_type_partial_charge
C1    C     C_R   0.920466 0.999977 0.420974 0.815596
C2    C     C_R   0.079534 0.999988 0.579011 0.815303
C3    C     C_R   0.420464 0.499972 0.420531 0.817928
C4    C     C_R   0.579535 0.499986 0.578975 0.815515
C5    C     C_R   0.999617 0.000529 0.813842 -0.121535
C6    C     C_R   0.000339 0.000475 0.186068 -0.120778
C7    C     C_R   0.499435 0.500440 0.813687 -0.118970
C8    C     C_R   0.500382 0.500551 0.186157 -0.121447
C9    C     C_R   0.975222 0.971231 0.757405 0.156960
C10   C     C_R   0.024221 0.970777 0.241989 0.156926
C11   C     C_R   0.474363 0.471588 0.756791 0.153687
C12   C     C_R   0.524758 0.471249 0.242608 0.156714
C13   C     C_R   0.972639 0.972970 0.690525 0.104277
C14   C     C_R   0.026952 0.972554 0.308999 0.104046
C15   C     C_R   0.471348 0.473499 0.689469 0.119289
C16   C     C_R   0.527340 0.472974 0.309484 0.104431
C17   C     C_R   0.999301 0.000389 0.685366 -0.124194
C18   C     C_R   0.000743 0.000381 0.314630 -0.124788
C19   C     C_R   0.498618 0.500350 0.684717 -0.110809
C20   C     C_R   0.500730 0.500427 0.314662 -0.123914
C21   C     C_R   0.025231 0.028492 0.743476 0.185074
C22   C     C_R   0.975109 0.028746 0.256779 0.185354
C23   C     C_R   0.525054 0.528080 0.743206 0.179431
C24   C     C_R   0.474834 0.528550 0.256554 0.185183
C25   C     C_R   0.914691 0.939978 0.752433 0.481622
C26   C     C_R   0.083874 0.938051 0.245905 0.480488
C27   C     C_R   0.413509 0.442551 0.753223 0.504751
C28   C     C_R   0.585359 0.440080 0.247818 0.481752
C29   C     C_R   0.895486 0.906142 0.762278 -0.068388
C30   C     C_R   0.102217 0.903713 0.235336 -0.066429
C31   C     C_R   0.393344 0.409440 0.762482 -0.071865
C32   C     C_R   0.604548 0.406332 0.237798 -0.065403
C33   C     C_R   0.916810 0.868152 0.788458 0.497335
C34   C     C_R   0.080000 0.866205 0.208602 0.494517
C35   C     C_R   0.413147 0.370592 0.786236 0.492838
C36   C     C_R   0.583129 0.368409 0.211086 0.493001
C37   C     C_R   0.957248 0.864116 0.805579 -0.091270
C38   C     C_R   0.039510 0.863151 0.191581 -0.094241
C39   C     C_R   0.452820 0.364826 0.800613 -0.082607
C40   C     C_R   0.542636 0.364342 0.193701 -0.095217
C41   C     C_R   0.976754 0.898782 0.798855 0.457626
C42   C     C_R   0.020888 0.898321 0.199062 0.459495
C43   C     C_R   0.473121 0.398572 0.793384 0.454074
C44   C     C_R   0.523189 0.398901 0.200791 0.458469
C45   C     C_R   0.000022 0.000056 0.619064 0.822921
C46   C     C_R   0.000041 0.000064 0.380982 0.822880
C47   C     C_R   0.499451 0.500024 0.618505 0.830737
C48   C     C_R   0.499997 0.500072 0.380954 0.821292
C49   C     C_R   0.955241 0.936332 0.770637 -0.193334
C50   C     C_R   0.043307 0.935380 0.227915 -0.194543
C51   C     C_R   0.453567 0.437336 0.769655 -0.223108
C52   C     C_R   0.544765 0.436399 0.229406 -0.192936
C53   C     C_R   0.727923 0.968979 0.198237 0.517753
C54   C     C_R   0.272044 0.968803 0.801346 0.517680
C55   C     C_R   0.227912 0.468812 0.198513 0.517755
C56   C     C_R   0.772033 0.468503 0.800642 0.517856
C57   C     C_R   0.706262 0.999954 0.207939 -0.166716
C58   C     C_R   0.293738 0.999926 0.791972 -0.166672
C59   C     C_R   0.206284 0.499794 0.208285 -0.165924
C60   C     C_R   0.793738 0.499845 0.791781 -0.166559
C61   C     C_R   0.727955 0.030508 0.262211 0.520208
C62   C     C_R   0.272079 0.030618 0.737956 0.520273
C63   C     C_R   0.228016 0.530221 0.262815 0.517733
C64   C     C_R   0.772093 0.530717 0.738138 0.520042
C65   C     C_R   0.771652 0.030504 0.307452 0.006642
C66   C     C_R   0.228384 0.030616 0.692672 0.006722
C67   C     C_R   0.271714 0.530136 0.308103 0.008636
C68   C     C_R   0.728399 0.530700 0.692768 0.006907
C69   C     C_R   0.793599 0.999348 0.297168 -0.071630
C70   C     C_R   0.206401 0.999328 0.702667 -0.071859
C71   C     C_R   0.293621 0.499073 0.297541 -0.071936
C72   C     C_R   0.706401 0.499223 0.702319 -0.071859
C73   C     C_R   0.771594 0.968301 0.242427 -0.003998
C74   C     C_R   0.228372 0.968122 0.757107 -0.004019
C75   C     C_R   0.271584 0.468056 0.242758 -0.004516
C76   C     C_R   0.728360 0.467801 0.756306 -0.004508
C77   C     C_1   0.661434 0.000094 0.162394 0.174504
C78   C     C_1   0.338566 0.000074 0.837568 0.174414
C79   C     C_1   0.161449 0.500033 0.162588 0.173475
C80   C     C_1   0.838566 0.500022 0.837482 0.174279
C81   C     C_1   0.838570 0.999517 0.341894 -0.002815
C82   C     C_1   0.161430 0.999530 0.657986 -0.002665
C83   C     C_1   0.338584 0.499367 0.341903 -0.005000
C84   C     C_1   0.661429 0.499475 0.657717 -0.002793
C85   C     C_1   0.875977 0.999795 0.378120 -0.170047
C86   C     C_1   0.124023 0.999824 0.621811 -0.169943
C87   C     C_1   0.375980 0.499751 0.377827 -0.170910
C88   C     C_1   0.624023 0.499806 0.621649 -0.170204
C89   C     C_R   0.075479 0.119850 0.713442 0.520281
C90   C     C_R   0.925367 0.120280 0.287380 0.520086
C91   C     C_R   0.576007 0.619133 0.714111 0.520014
C92   C     C_R   0.424944 0.619934 0.287166 0.519684
C93   C     C_1   0.623971 0.000097 0.124448 -0.120199
C94   C     C_1   0.376029 0.000084 0.875542 -0.120320
C95   C     C_1   0.123983 0.500082 0.124519 -0.121658
C96   C     C_1   0.876029 0.500057 0.875519 -0.120543
C97   C     C_R   0.999995 0.920453 0.999956 0.793200
C98   C     C_R   0.499987 0.420451 0.999781 0.795379
C99   C     C_R   0.999916 0.999769 0.880951 0.818734
C100  C     C_R   0.000076 0.999756 0.119024 0.818332
C101  C     C_R   0.499893 0.499737 0.880940 0.819865
C102  C     C_R   0.500083 0.499789 0.119048 0.819487
C103  C     C_R   0.000006 0.079546 0.000005 0.782207
C104  C     C_R   0.500006 0.579546 0.000003 0.783236
C105  C     C_R   0.500000 0.920697 0.000013 0.817665
C106  C     C_R   1.000000 0.420697 0.000013 0.817957
C107  C     C_R   0.579367 0.000043 0.079461 0.801314
C108  C     C_R   0.420633 0.000039 0.920538 0.801249
C109  C     C_R   0.079371 0.500051 0.079472 0.800645
C110  C     C_R   0.920633 0.500035 0.920536 0.801561
C111  C     C_R   0.499990 0.079411 0.999965 0.816436
C112  C     C_R   0.000016 0.579412 0.000007 0.815663
C113  C     C_R   0.465371 0.228518 0.988167 0.008252
C114  C     C_R   0.534057 0.228460 0.008769 0.007320
C115  C     C_R   0.963686 0.728481 0.979906 0.003313
C116  C     C_R   0.036445 0.728514 0.019985 0.002212
C117  C     C_R   0.499760 0.206476 0.998762 -0.061396
C118  C     C_R   0.000096 0.706485 0.000130 -0.061788
C119  C     C_R   0.035953 0.772186 0.019489 0.536017
C120  C     C_R   0.964068 0.772148 0.979769 0.526930
C121  C     C_R   0.533645 0.272131 0.008485 0.530621
C122  C     C_R   0.465713 0.272180 0.987768 0.520861
C123  C     C_R   0.045806 0.095052 0.712519 0.414216
C124  C     C_R   0.954886 0.095401 0.288022 0.414146
C125  C     C_R   0.546117 0.594483 0.712750 0.415147
C126  C     C_R   0.454482 0.595132 0.287729 0.414579
C127  C     C_R   0.999976 0.793799 0.999436 -0.234856
C128  C     C_R   0.499695 0.293792 0.998092 -0.226692
C129  C     C_1   0.499856 0.161454 0.999372 0.023760
C130  C     C_1   0.000078 0.661459 0.000077 0.023196
C131  C     C_1   0.999993 0.838557 0.999628 0.162338
C132  C     C_1   0.499834 0.338552 0.998535 0.159645
C133  C     C_1   0.999989 0.875960 0.999783 -0.115102
C134  C     C_1   0.499933 0.375956 0.999119 -0.111139
C135  C     C_1   0.499927 0.123996 0.999766 -0.169164
C136  C     C_1   0.000051 0.623999 0.000031 -0.171694
C137  C     C_R   0.513631 0.771835 0.960692 0.021822
C138  C     C_R   0.486416 0.771778 0.039453 0.021931
C139  C     C_R   0.014180 0.271834 0.961560 0.021875
C140  C     C_R   0.985871 0.271777 0.038591 0.021994
C141  C     C_R   0.500020 0.793493 0.000072 -0.107328
C142  C     C_R   0.000022 0.293492 0.000074 -0.107305
C143  C     C_R   0.986136 0.227850 0.037881 0.548617
C144  C     C_R   0.013922 0.227906 0.962262 0.548749
C145  C     C_R   0.486670 0.727851 0.038724 0.548492
C146  C     C_R   0.513385 0.727907 0.961411 0.548628
C147  C     C_R   0.000030 0.206420 0.000068 -0.177931
C148  C     C_R   0.500028 0.706421 0.000064 -0.178108
C149  C     C_1   0.500011 0.838641 0.000064 -0.004019
C150  C     C_1   0.000012 0.338640 0.000066 -0.003934
C151  C     C_R   0.055879 0.054488 0.740827 -0.258766
C152  C     C_R   0.944600 0.054897 0.259503 -0.258068
C153  C     C_R   0.555884 0.553818 0.740638 -0.259045
C154  C     C_R   0.444269 0.554607 0.259282 -0.258744
C155  C     C_1   0.000027 0.161562 0.000051 0.188607
C156  C     C_1   0.500026 0.661563 0.000048 0.188612
C157  C     C_1   0.000020 0.124113 0.000032 -0.125511
C158  C     C_1   0.500020 0.624113 0.000029 -0.125210
C159  C     C_1   0.500005 0.876106 0.000047 -0.162561
C160  C     C_1   0.000005 0.376106 0.000048 -0.162473
C161  C     C_R   0.095741 0.038817 0.769148 0.456767
C162  C     C_R   0.904672 0.039381 0.231178 0.456933
C163  C     C_R   0.595650 0.537889 0.768922 0.457342
C164  C     C_R   0.404387 0.539000 0.231083 0.455924
C165  C     C_R   0.126104 0.064155 0.772334 -0.147721
C166  C     C_R   0.874464 0.064803 0.228261 -0.147683
C167  C     C_R   0.626231 0.563075 0.772542 -0.148010
C168  C     C_R   0.374160 0.564347 0.228263 -0.147494
C169  C     C_R   0.115551 0.104731 0.743691 0.407937
C170  C     C_R   0.885240 0.105302 0.257192 0.408594
C171  C     C_R   0.615994 0.603768 0.744396 0.407240
C172  C     C_R   0.384867 0.604863 0.257125 0.408576
C173  C     C_R   0.023576 0.030387 0.806215 0.094192
C174  C     C_R   0.976784 0.030628 0.194060 0.093729
C175  C     C_R   0.523626 0.530004 0.806151 0.093341
C176  C     C_R   0.476460 0.530422 0.193780 0.094496
Cu1   Cu    Cu3+1 0.000000 0.041020 0.500000 1.086132
Cu2   Cu    Cu3+1 0.500000 0.541020 0.500000 1.084878
Cu3   Cu    Cu3+1 1.000000 0.958990 0.500000 0.974572
Cu4   Cu    Cu3+1 0.500000 0.458990 0.500000 0.982951
Cu5   Cu    Cu3+1 0.041030 0.999980 0.040990 1.022742
Cu6   Cu    Cu3+1 0.958970 0.999980 0.959010 1.022450
Cu7   Cu    Cu3+1 0.541030 0.499980 0.040990 1.020571
Cu8   Cu    Cu3+1 0.458970 0.499980 0.959010 1.021458
Cu9   Cu    Cu3+1 0.500010 0.000050 0.061790 1.008128
Cu10  Cu    Cu3+1 0.499990 0.000050 0.938210 1.007905
Cu11  Cu    Cu3+1 0.000010 0.500050 0.061790 1.006258
Cu12  Cu    Cu3+1 0.999990 0.500050 0.938210 1.008783
O1    O     O_R   0.940150 0.034650 0.440170 -0.577261
O2    O     O_R   0.059850 0.034650 0.559830 -0.577309
O3    O     O_R   0.440150 0.534650 0.440170 -0.580535
O4    O     O_R   0.559850 0.534650 0.559830 -0.577589
O5    O     O_R   0.559850 0.000040 0.112000 -0.569530
O6    O     O_R   0.440150 0.000040 0.888000 -0.569639
O7    O     O_R   0.059850 0.500040 0.112000 -0.570210
O8    O     O_R   0.940150 0.500040 0.888000 -0.569500
O9    O     O_R   0.559860 0.999980 0.007620 -0.571435
O10   O     O_R   0.440140 0.999980 0.992380 -0.571487
O11   O     O_R   0.059860 0.499980 0.007620 -0.571171
O12   O     O_R   0.940140 0.499980 0.992380 -0.571521
O13   O     O_R   0.499990 0.059890 0.052110 -0.574586
O14   O     O_R   0.500010 0.059890 0.947890 -0.574917
O15   O     O_R   0.999990 0.559890 0.052110 -0.575944
O16   O     O_R   0.000010 0.559890 0.947890 -0.573724
O17   O     O_R   0.940170 0.965370 0.440140 -0.581034
O18   O     O_R   0.059830 0.965370 0.559860 -0.581043
O19   O     O_R   0.440170 0.465370 0.440140 -0.576805
O20   O     O_R   0.559830 0.465370 0.559860 -0.579092
O21   O     O_R   0.000000 0.034650 0.590170 -0.562061
O22   O     O_R   0.000000 0.034650 0.409830 -0.562574
O23   O     O_R   0.500000 0.534650 0.590170 -0.562822
O24   O     O_R   0.500000 0.534650 0.409830 -0.562589
O25   O     O_R   0.000010 0.965370 0.590140 -0.579430
O26   O     O_R   0.999990 0.965370 0.409860 -0.579577
O27   O     O_R   0.500010 0.465370 0.590140 -0.586440
O28   O     O_R   0.499990 0.465370 0.409860 -0.580254
O29   O     O_R   0.034640 0.940140 0.034570 -0.574873
O30   O     O_R   0.965360 0.940140 0.965430 -0.575116
O31   O     O_R   0.534640 0.440140 0.034570 -0.576008
O32   O     O_R   0.465360 0.440140 0.965430 -0.575712
O33   O     O_R   0.034650 0.999980 0.944430 -0.577203
O34   O     O_R   0.965350 0.999980 0.055570 -0.576852
O35   O     O_R   0.534650 0.499980 0.944430 -0.579229
O36   O     O_R   0.465350 0.499980 0.055570 -0.576918
O37   O     O_R   0.965370 0.000000 0.875180 -0.553536
O38   O     O_R   0.034630 0.000000 0.124820 -0.552630
O39   O     O_R   0.465370 0.500000 0.875180 -0.551298
O40   O     O_R   0.534630 0.500000 0.124820 -0.554073
O41   O     O_R   0.034650 0.059830 0.034650 -0.574253
O42   O     O_R   0.965350 0.059830 0.965350 -0.573841
O43   O     O_R   0.534650 0.559830 0.034650 -0.574021
O44   O     O_R   0.465350 0.559830 0.965350 -0.573748
O45   O     O_R   0.500020 0.940200 0.052240 -0.574838
O46   O     O_R   0.499980 0.940200 0.947760 -0.574814
O47   O     O_R   0.000020 0.440200 0.052240 -0.574723
O48   O     O_R   0.999980 0.440200 0.947760 -0.574646
F1    F     F_    0.144260 0.130041 0.746593 -0.608668
F2    F     F_    0.856701 0.130670 0.254670 -0.608153
F3    F     F_    0.644943 0.628962 0.747876 -0.609696
F4    F     F_    0.356299 0.630153 0.254674 -0.608843
F5    F     F_    0.897744 0.834853 0.795135 -0.625795
F6    F     F_    0.098226 0.832429 0.201192 -0.628867
F7    F     F_    0.393287 0.338128 0.793109 -0.630576
F8    F     F_    0.602133 0.335203 0.204075 -0.633177
C177  C     C_3   0.979233 0.822731 0.828642 -0.265198
C178  C     C_3   0.980105 0.803245 0.765755 -0.760153
H1    H     H_    0.947994 0.799011 0.715989 0.249701
H2    H     H_    0.997740 0.823046 0.750987 0.284796
H3    H     H_    0.995408 0.772426 0.783581 0.236651
H4    H     H_    0.011493 0.826840 0.878035 0.244451
H5    H     H_    0.963567 0.800690 0.844416 0.234530
C179  C     C_3   0.016465 0.822315 0.167497 -0.260085
C180  C     C_3   0.014647 0.803030 0.229551 -0.764169
H6    H     H_    0.046519 0.797985 0.279550 0.248462
H7    H     H_    0.997358 0.823365 0.244299 0.286542
H8    H     H_    0.998521 0.772621 0.210872 0.235019
H9    H     H_    0.984449 0.827182 0.117788 0.248791
H10   H     H_    0.031774 0.799760 0.151832 0.234138
C181  C     C_3   0.473284 0.322669 0.822121 -0.265611
C182  C     C_3   0.471235 0.302102 0.757124 -0.744848
H11   H     H_    0.438406 0.298276 0.709612 0.251869
H12   H     H_    0.487938 0.320992 0.739226 0.285093
H13   H     H_    0.485981 0.271004 0.774281 0.231630
H14   H     H_    0.506219 0.325866 0.869557 0.252113
H15   H     H_    0.458019 0.301797 0.840417 0.234186
C183  C     C_3   0.520472 0.323054 0.169734 -0.259216
C184  C     C_3   0.519677 0.302898 0.232261 -0.758134
H16   H     H_    0.551815 0.298243 0.281695 0.250310
H17   H     H_    0.502324 0.322492 0.247872 0.284082
H18   H     H_    0.504108 0.272222 0.213608 0.234260
H19   H     H_    0.488182 0.327501 0.120682 0.256720
H20   H     H_    0.535914 0.301298 0.153105 0.233540
F9    F     F_    0.016147 0.895571 0.816796 -0.630315
F10   F     F_    0.981445 0.896090 0.181150 -0.629664
F11   F     F_    0.511676 0.393574 0.808083 -0.627501
F12   F     F_    0.483764 0.395645 0.182691 -0.628711
C185  C     C_3   0.794123 0.933883 0.231331 -0.304803
C186  C     C_3   0.807516 0.899670 0.288981 -0.758267
H21   H     H_    0.829225 0.912023 0.345909 0.247047
H22   H     H_    0.779983 0.886195 0.284571 0.266969
H23   H     H_    0.823507 0.874696 0.279201 0.244135
H24   H     H_    0.774004 0.919981 0.175169 0.255791
H25   H     H_    0.821705 0.946285 0.234717 0.205893
C187  C     C_3   0.205808 0.933525 0.767803 -0.304922
C188  C     C_3   0.192416 0.899544 0.709798 -0.758683
H26   H     H_    0.170730 0.912080 0.652998 0.247095
H27   H     H_    0.219952 0.886197 0.714104 0.266874
H28   H     H_    0.176399 0.874432 0.719284 0.244029
H29   H     H_    0.225902 0.919438 0.823820 0.255709
H30   H     H_    0.178219 0.945790 0.764502 0.205711
C189  C     C_3   0.294087 0.433572 0.231743 -0.304643
C190  C     C_3   0.307728 0.399563 0.289829 -0.758047
H31   H     H_    0.329523 0.412099 0.346585 0.246446
H32   H     H_    0.280311 0.386103 0.285850 0.266340
H33   H     H_    0.323698 0.374535 0.280114 0.245086
H34   H     H_    0.273891 0.419464 0.175778 0.256154
H35   H     H_    0.321551 0.445960 0.234713 0.206107
C191  C     C_3   0.705786 0.432941 0.766374 -0.304945
C192  C     C_3   0.692416 0.399315 0.707791 -0.756777
H36   H     H_    0.670739 0.412125 0.651205 0.246928
H37   H     H_    0.719962 0.386161 0.711897 0.266686
H38   H     H_    0.676395 0.373997 0.716821 0.244773
H39   H     H_    0.725865 0.418570 0.822147 0.255950
H40   H     H_    0.678184 0.445003 0.763241 0.205695
F13   F     F_    0.706313 0.939130 0.146127 -0.652427
F14   F     F_    0.293622 0.938813 0.853181 -0.652582
F15   F     F_    0.206266 0.439034 0.146269 -0.652416
F16   F     F_    0.793600 0.438324 0.852068 -0.652477
F17   F     F_    0.706355 0.060437 0.270614 -0.650163
F18   F     F_    0.293713 0.060678 0.729846 -0.650301
F19   F     F_    0.206459 0.560114 0.271405 -0.654047
F20   F     F_    0.793737 0.560968 0.730480 -0.650794
C193  C     C_3   0.794268 0.063461 0.367004 -0.357043
C194  C     C_3   0.811236 0.097706 0.342724 -0.661731
H41   H     H_    0.835865 0.085445 0.337013 0.261314
H42   H     H_    0.785943 0.111193 0.288961 0.271469
H43   H     H_    0.824925 0.122679 0.385147 0.256087
H44   H     H_    0.773308 0.077866 0.380264 0.260211
H45   H     H_    0.820033 0.049218 0.419474 0.203501
C195  C     C_3   0.205809 0.063714 0.633367 -0.357953
C196  C     C_3   0.188856 0.097803 0.657876 -0.659988
H46   H     H_    0.164207 0.085424 0.663460 0.261611
H47   H     H_    0.214149 0.111181 0.711750 0.271949
H48   H     H_    0.175195 0.122884 0.615641 0.256003
H49   H     H_    0.226793 0.078244 0.620242 0.260241
H50   H     H_    0.180040 0.049572 0.580781 0.203653
C197  C     C_3   0.294388 0.562888 0.368030 -0.359637
C198  C     C_3   0.311248 0.597379 0.343997 -0.663419
H51   H     H_    0.335754 0.585293 0.337793 0.262311
H52   H     H_    0.285870 0.611070 0.290533 0.270980
H53   H     H_    0.325062 0.622152 0.386792 0.254869
H54   H     H_    0.273483 0.577067 0.381623 0.258988
H55   H     H_    0.320222 0.548504 0.420274 0.202681
C199  C     C_3   0.705845 0.563979 0.633819 -0.358922
C200  C     C_3   0.688875 0.597862 0.658657 -0.658509
H56   H     H_    0.664202 0.585329 0.664030 0.262263
H57   H     H_    0.714150 0.611085 0.712705 0.272290
H58   H     H_    0.675242 0.623091 0.616708 0.255666
H59   H     H_    0.726847 0.578673 0.620890 0.260166
H60   H     H_    0.680087 0.549971 0.581067 0.203852
F21   F     F_    0.929583 0.793753 0.961415 -0.620818
F22   F     F_    0.070717 0.793828 0.039473 -0.619034
F23   F     F_    0.433137 0.293812 0.978317 -0.628672
F24   F     F_    0.566176 0.293720 0.017593 -0.627557
C201  C     C_3   0.428436 0.206045 0.978362 -0.296263
C202  C     C_3   0.437079 0.193547 0.053359 -0.779706
H61   H     H_    0.463977 0.172098 0.082914 0.250986
H62   H     H_    0.443711 0.221499 0.088199 0.265537
H63   H     H_    0.409490 0.177563 0.044871 0.247332
H64   H     H_    0.400331 0.225984 0.949097 0.262305
H65   H     H_    0.420674 0.178105 0.943010 0.197663
C203  C     C_3   0.571027 0.205898 0.018942 -0.297102
C204  C     C_3   0.562227 0.192518 0.944224 -0.780359
H66   H     H_    0.535488 0.170821 0.915642 0.251032
H67   H     H_    0.555278 0.220065 0.908339 0.266428
H68   H     H_    0.589865 0.176527 0.952983 0.247484
H69   H     H_    0.599020 0.226022 0.047271 0.262323
H70   H     H_    0.579047 0.178361 0.055299 0.198315
C205  C     C_3   0.924454 0.705936 0.959408 -0.294958
C206  C     C_3   0.926672 0.692772 0.028803 -0.777561
H71   H     H_    0.952972 0.671132 0.062878 0.249499
H72   H     H_    0.930685 0.720420 0.062687 0.266801
H73   H     H_    0.897456 0.676786 0.012426 0.247878
H74   H     H_    0.896766 0.726009 0.925190 0.263435
H75   H     H_    0.919320 0.678299 0.924759 0.197923
C207  C     C_3   0.076046 0.705993 0.042630 -0.327852
C208  C     C_3   0.099882 0.692590 0.123775 -0.719290
H76   H     H_    0.108112 0.720135 0.160172 0.283978
H77   H     H_    0.081034 0.670920 0.132940 0.243488
H78   H     H_    0.128901 0.676560 0.139205 0.248074
H79   H     H_    0.068953 0.678468 0.006675 0.192662
H80   H     H_    0.096505 0.726145 0.035018 0.255813
F25   F     F_    0.026973 0.205149 0.926741 -0.660849
F26   F     F_    0.973087 0.205040 0.073394 -0.661108
F27   F     F_    0.525933 0.705150 0.925097 -0.660560
F28   F     F_    0.474123 0.705041 0.075030 -0.660904
F29   F     F_    0.065615 0.159063 0.686261 -0.543491
F30   F     F_    0.935445 0.159423 0.314827 -0.543582
F31   F     F_    0.566448 0.658455 0.687403 -0.543953
F32   F     F_    0.434956 0.659094 0.314547 -0.544092
C209  C     C_3   0.527852 0.797348 0.919547 -0.376042
C210  C     C_3   0.542440 0.773911 0.877283 -0.610248
H81   H     H_    0.570062 0.754641 0.915805 0.282794
H82   H     H_    0.516949 0.754635 0.832582 0.290778
H83   H     H_    0.551619 0.796639 0.850703 0.217134
H84   H     H_    0.501795 0.817745 0.878920 0.210595
H85   H     H_    0.553825 0.817741 0.960459 0.211221
C211  C     C_3   0.472193 0.797232 0.080606 -0.375883
C212  C     C_3   0.457624 0.773733 0.122889 -0.610573
H86   H     H_    0.430004 0.754446 0.084377 0.282553
H87   H     H_    0.483125 0.754464 0.167578 0.290950
H88   H     H_    0.448449 0.796422 0.149486 0.217152
H89   H     H_    0.498244 0.817647 0.121222 0.210690
H90   H     H_    0.446209 0.817607 0.039696 0.211090
C213  C     C_3   0.028973 0.297347 0.921318 -0.375650
C214  C     C_3   0.044153 0.273909 0.879990 -0.610438
H91   H     H_    0.071659 0.254639 0.919025 0.282502
H92   H     H_    0.018863 0.254634 0.834913 0.291003
H93   H     H_    0.053704 0.296637 0.853998 0.217309
H94   H     H_    0.003066 0.317742 0.880253 0.210795
H95   H     H_    0.054788 0.317742 0.962658 0.211159
C215  C     C_3   0.971075 0.297231 0.078839 -0.375639
C216  C     C_3   0.955915 0.273732 0.120187 -0.610545
H96   H     H_    0.928410 0.254445 0.081163 0.282467
H97   H     H_    0.981214 0.254464 0.165254 0.291017
H98   H     H_    0.946367 0.296421 0.146196 0.217307
H99   H     H_    0.996975 0.317644 0.119893 0.210726
H100  H     H_    0.945249 0.317609 0.037501 0.211180
F33   F     F_    0.007327 0.110526 0.684565 -0.584979
F34   F     F_    0.993436 0.110719 0.316009 -0.585436
F35   F     F_    0.507742 0.610217 0.684888 -0.584863
F36   F     F_    0.492980 0.610546 0.315559 -0.585076
F37   F     F_    0.105403 0.999516 0.796408 -0.637422
F38   F     F_    0.894805 0.000134 0.203714 -0.637088
F39   F     F_    0.605028 0.498507 0.795831 -0.636683
F40   F     F_    0.394576 0.499749 0.203633 -0.637265
C217  C     C_3   0.169879 0.048376 0.808971 -0.258858
C218  C     C_3   0.193657 0.051170 0.893241 -0.739144
H101  H     H_    0.194861 0.083857 0.910509 0.259838
H102  H     H_    0.178597 0.031705 0.913752 0.274857
H103  H     H_    0.225864 0.039881 0.918779 0.234949
H104  H     H_    0.169298 0.015633 0.792885 0.218477
H105  H     H_    0.186882 0.066401 0.790703 0.230169
C219  C     C_3   0.830624 0.049185 0.191650 -0.259051
C220  C     C_3   0.806828 0.052032 0.107378 -0.739092
H106  H     H_    0.805739 0.084718 0.090160 0.259648
H107  H     H_    0.821797 0.032515 0.086797 0.275257
H108  H     H_    0.774583 0.040842 0.081858 0.234929
H109  H     H_    0.831074 0.016448 0.207692 0.218412
H110  H     H_    0.813709 0.067289 0.209968 0.230328
C221  C     C_3   0.669914 0.547029 0.809194 -0.258541
C222  C     C_3   0.693668 0.549749 0.893466 -0.739403
H111  H     H_    0.695026 0.582441 0.910842 0.259925
H112  H     H_    0.678486 0.530382 0.913856 0.274543
H113  H     H_    0.725822 0.538293 0.919013 0.235023
H114  H     H_    0.669154 0.514271 0.793010 0.218776
H115  H     H_    0.687039 0.564913 0.791017 0.229863
C223  C     C_3   0.330357 0.548657 0.191775 -0.258474
C224  C     C_3   0.306358 0.551933 0.107528 -0.739758
H116  H     H_    0.305202 0.584733 0.090766 0.260042
H117  H     H_    0.321223 0.532678 0.086436 0.274329
H118  H     H_    0.274141 0.540678 0.082094 0.235065
H119  H     H_    0.330862 0.515806 0.207331 0.218937
H120  H     H_    0.313577 0.566493 0.210669 0.230035
C225  C     C_3   0.045624 0.065394 0.862817 -0.357131
C226  C     C_3   0.091347 0.055809 0.921224 -0.703103
H121  H     H_    0.095825 0.022917 0.939257 0.280477
H122  H     H_    0.110409 0.062327 0.899298 0.238542
H123  H     H_    0.102840 0.075983 0.970411 0.236356
H124  H     H_    0.043217 0.095000 0.834674 0.235118
H125  H     H_    0.029896 0.072138 0.891139 0.196309
C227  C     C_3   0.955110 0.065841 0.137768 -0.357663
C228  C     C_3   0.909285 0.056708 0.079295 -0.702919
H126  H     H_    0.904474 0.023887 0.060834 0.280518
H127  H     H_    0.890311 0.063318 0.101353 0.238353
H128  H     H_    0.897975 0.077062 0.030363 0.236692
H129  H     H_    0.957838 0.095426 0.166181 0.235866
H130  H     H_    0.970894 0.072399 0.109473 0.195751
C229  C     C_3   0.546112 0.564816 0.863040 -0.355727
C230  C     C_3   0.591745 0.554749 0.921265 -0.704155
H131  H     H_    0.595925 0.521757 0.938675 0.280462
H132  H     H_    0.610861 0.561280 0.899454 0.238426
H133  H     H_    0.603429 0.574650 0.970834 0.236106
H134  H     H_    0.543999 0.594425 0.835148 0.234452
H135  H     H_    0.530502 0.571811 0.891486 0.196813
C231  C     C_3   0.454431 0.565424 0.137148 -0.357151
C232  C     C_3   0.408699 0.555833 0.078775 -0.703263
H136  H     H_    0.404206 0.522958 0.060685 0.280663
H137  H     H_    0.389662 0.562285 0.100761 0.238907
H138  H     H_    0.397190 0.576052 0.029615 0.235945
H139  H     H_    0.456861 0.595032 0.165266 0.235093
H140  H     H_    0.470152 0.572161 0.108798 0.196219
C233  C     C_3   0.939349 0.947914 0.623453 -0.377698
C234  C     C_3   0.953048 0.903466 0.623146 -0.713027
H141  H     H_    0.986544 0.901983 0.645282 0.284491
H142  H     H_    0.946952 0.882906 0.656709 0.232863
H143  H     H_    0.934924 0.891320 0.565486 0.224594
H144  H     H_    0.910254 0.947074 0.621375 0.216081
H145  H     H_    0.930095 0.963546 0.570871 0.189221
C235  C     C_3   0.059925 0.947033 0.375655 -0.377305
C236  C     C_3   0.045601 0.902776 0.375443 -0.713419
H146  H     H_    0.012111 0.901762 0.353471 0.284419
H147  H     H_    0.051300 0.882135 0.341474 0.232312
H148  H     H_    0.063629 0.890369 0.432933 0.224561
H149  H     H_    0.088945 0.945783 0.377516 0.216534
H150  H     H_    0.069505 0.962542 0.428489 0.189674
C237  C     C_3   0.437395 0.448896 0.622073 -0.371754
C238  C     C_3   0.402749 0.477549 0.565031 -0.788448
H151  H     H_    0.387484 0.492622 0.589511 0.290164
H152  H     H_    0.414962 0.501998 0.546459 0.236270
H153  H     H_    0.379156 0.459230 0.515885 0.233454
H154  H     H_    0.449955 0.430504 0.596218 0.227563
H155  H     H_    0.422604 0.425186 0.636723 0.198177
C239  C     C_3   0.560558 0.447838 0.376510 -0.378147
C240  C     C_3   0.546758 0.403390 0.376633 -0.711917
H156  H     H_    0.513293 0.401969 0.354748 0.284429
H157  H     H_    0.552656 0.382904 0.342757 0.233065
H158  H     H_    0.564961 0.391106 0.434208 0.224745
H159  H     H_    0.589671 0.446991 0.378656 0.216328
H160  H     H_    0.569820 0.463401 0.429131 0.189361
F41   F     F_    0.893991 0.976441 0.725040 -0.646026
F42   F     F_    0.105445 0.974043 0.273846 -0.646203
F43   F     F_    0.394218 0.479844 0.728101 -0.644783
F44   F     F_    0.606103 0.476506 0.275527 -0.646355
C241  C     C_3   0.851936 0.910459 0.743048 -0.256271
C242  C     C_3   0.820124 0.907649 0.659353 -0.748012
H161  H     H_    0.824921 0.932993 0.630387 0.275565
H162  H     H_    0.822754 0.877262 0.638281 0.257461
H163  H     H_    0.788378 0.910507 0.646682 0.240767
H164  H     H_    0.845094 0.885872 0.770437 0.250000
H165  H     H_    0.848622 0.940660 0.763812 0.221498
C243  C     C_3   0.145799 0.906978 0.254360 -0.254783
C244  C     C_3   0.177654 0.903504 0.337952 -0.750202
H166  H     H_    0.173537 0.928999 0.367508 0.275747
H167  H     H_    0.174354 0.873219 0.358502 0.257031
H168  H     H_    0.209414 0.905601 0.350469 0.240855
H169  H     H_    0.151968 0.882188 0.226375 0.250582
H170  H     H_    0.149782 0.937057 0.234105 0.221663
C245  C     C_3   0.350432 0.415530 0.745485 -0.258769
C246  C     C_3   0.317718 0.414608 0.661968 -0.747396
H171  H     H_    0.323129 0.439981 0.633871 0.276664
H172  H     H_    0.318574 0.384330 0.638526 0.257349
H173  H     H_    0.286450 0.418751 0.650938 0.240101
H174  H     H_    0.342989 0.391000 0.772082 0.249761
H175  H     H_    0.348896 0.445650 0.768645 0.219675
C247  C     C_3   0.648156 0.410685 0.257304 -0.257661
C248  C     C_3   0.679858 0.407718 0.341020 -0.747414
H176  H     H_    0.675032 0.432979 0.370040 0.275537
H177  H     H_    0.677133 0.377272 0.361859 0.257481
H178  H     H_    0.711648 0.410600 0.353890 0.240647
H179  H     H_    0.655043 0.386185 0.229889 0.249147
H180  H     H_    0.651559 0.440948 0.236776 0.221401

loop_
_geom_bond_atom_site_label_1
_geom_bond_atom_site_label_2
_ccdc_geom_bond_type
Cu9   O45   S    
C229  C230  S    
C103  O41   A    
C98   O32   A    
C220  H106  S    
C240  H156  S    
C177  H4    S    
C235  C236  S    
C102  O36   A    
C193  H44   S    
C119  F22   S    
C187  C188  S    
C216  H97   S    
C161  F37   S    
C55   C59   A    
C26   C50   A    
C139  C142  A    
C30   C243  S    
C138  C145  A    
C211  H90   S    
C239  H160  S    
C37   C177  S    
Cu10  O14   S    
C167  C221  S    
C9    C13   A    
C226  H123  S    
C15   C237  S    
C54   C74   A    
C11   C15   A    
C199  H59   S    
C113  C122  A    
C12   C16   A    
C151  C161  A    
C70   C74   A    
C45   O25   A    
C195  H50   S    
C147  C155  S    
C71   C83   S    
C217  H104  S    
Cu7   O31   S    
C103  O42   A    
C170  F2    S    
C187  H30   S    
C241  H164  S    
C177  C178  S    
C41   C49   A    
C204  H67   S    
C24   C154  S    
C4    O20   A    
C63   C67   A    
C25   C29   A    
C219  H109  S    
C179  H10   S    
C84   C88   T    
C137  C146  A    
C164  C168  A    
C121  C128  A    
C95   C109  S    
C200  H57   S    
C62   C66   A    
C124  F34   S    
C103  C157  S    
C167  C171  A    
C6    C174  A    
C73   C185  S    
C194  H41   S    
C46   O22   A    
C17   C21   A    
C25   F41   S    
C228  H128  S    
C219  H110  S    
Cu7   Cu8   S    
C235  H150  S    
C225  H125  S    
C16   C20   A    
C115  C118  A    
C203  C204  S    
Cu2   O24   S    
C72   C84   S    
C215  H100  S    
C126  C154  A    
C165  C217  S    
C222  H111  S    
C44   F12   S    
C230  H132  S    
C143  C147  A    
C21   C173  A    
C23   C153  S    
C209  C210  S    
C220  H108  S    
C109  O11   A    
C191  C192  S    
C112  O16   A    
C227  H130  S    
C24   C176  A    
C145  C148  A    
C41   F9    S    
C233  H144  S    
C65   C69   A    
C226  H122  S    
C91   C125  A    
Cu4   O27   S    
C2    O2    A    
C214  H92   S    
C138  C141  A    
Cu4   O20   S    
Cu6   O37   S    
C57   C61   A    
C59   C63   A    
C91   C171  A    
Cu11  O12   S    
C101  O39   A    
C3    O19   A    
C156  C158  T    
C89   C169  A    
C188  H27   S    
C234  H141  S    
C66   C70   A    
C92   C172  A    
Cu3   O26   S    
C190  H32   S    
C238  H151  S    
C116  C118  A    
C208  H78   S    
C225  C226  S    
C70   C82   S    
C127  C131  S    
C200  H56   S    
C42   F10   S    
C61   C65   A    
Cu8   O32   S    
C43   F11   S    
C246  H172  S    
C196  H46   S    
C207  H80   S    
C205  C206  S    
C97   O30   A    
C55   F15   S    
C207  H79   S    
C161  C165  A    
C6    C100  S    
C179  C180  S    
C248  H178  S    
C76   C191  S    
C185  H24   S    
Cu3   O17   S    
C178  H2    S    
C35   F7    S    
C29   C33   A    
C33   F5    S    
C140  C143  A    
C97   C133  S    
C111  C135  S    
C111  O13   A    
C193  C194  S    
C120  C127  A    
C174  C227  S    
C217  H105  S    
C106  O48   A    
C153  C163  A    
C64   C68   A    
C154  C164  A    
C78   C94   T    
C168  C223  S    
C183  H19   S    
C224  H117  S    
C180  H6    S    
C184  H18   S    
C65   C193  S    
C123  F33   S    
C201  H64   S    
C114  C203  S    
C207  C208  S    
C209  H84   S    
Cu6   O42   S    
C222  H113  S    
C38   C179  S    
C211  C212  S    
Cu1   Cu3   S    
C212  H88   S    
Cu10  O9    S    
C205  H74   S    
C2    O18   A    
C117  C129  S    
C67   C71   A    
C55   C75   A    
C44   C52   A    
C175  C229  S    
C185  C186  S    
C108  O10   A    
C89   F29   S    
C112  C136  S    
C144  C147  A    
C162  F38   S    
C173  C225  S    
C206  H71   S    
C27   C51   A    
C225  H124  S    
C218  H102  S    
C30   C34   A    
C110  O12   A    
C48   O24   A    
C9    C49   S    
C10   C14   A    
C199  C200  S    
C104  O43   A    
C191  H40   S    
C145  F28   S    
C13   C233  S    
Cu12  O16   S    
C238  H153  S    
C45   O21   A    
C125  F35   S    
C244  H167  S    
C53   F13   S    
Cu1   O22   S    
C5    C9    A    
C116  C207  S    
C218  H103  S    
Cu2   O4    S    
C213  H94   S    
C202  H62   S    
C221  C222  S    
C168  C172  A    
C8    C12   A    
C196  H48   S    
C102  O40   A    
C236  H146  S    
C100  O38   A    
C42   C50   A    
C113  C117  A    
C172  F4    S    
C14   C235  S    
C219  C220  S    
C166  C170  A    
C192  H37   S    
Cu5   O29   S    
C163  F39   S    
C164  F40   S    
C108  O6    A    
Cu7   O43   S    
C202  H63   S    
C215  C216  S    
C178  H1    S    
C213  H95   S    
Cu1   O2    S    
C18   C22   A    
C5    C173  A    
Cu10  O6    S    
C137  C209  S    
C104  C158  S    
C198  H51   S    
C180  H8    S    
C184  H16   S    
C8    C176  A    
C26   C30   A    
C4    C88   S    
C62   F18   S    
Cu8   O39   S    
C13   C17   A    
C237  H155  S    
C90   F30   S    
C242  H163  S    
C109  O7    A    
C240  H158  S    
C224  H118  S    
C191  H39   S    
C21   C151  S    
C37   C41   A    
C192  H38   S    
C40   C183  S    
C114  C117  A    
C199  H60   S    
C40   C44   A    
Cu7   O35   S    
C7    C101  S    
C237  C238  S    
C186  H21   S    
C206  H73   S    
C81   C85   T    
Cu10  O46   S    
C178  H3    S    
C1    O1    A    
C58   C62   A    
C83   C87   T    
C99   O33   A    
C210  H81   S    
C27   F43   S    
C155  C157  T    
C105  O46   A    
C4    O4    A    
C204  H66   S    
Cu5   Cu6   S    
C15   C19   A    
C75   C189  S    
C150  C160  T    
C140  C142  A    
C243  H170  S    
C182  H13   S    
C28   F44   S    
C23   C175  A    
C194  H42   S    
C231  H139  S    
Cu11  O15   S    
C236  H148  S    
Cu9   O13   S    
C228  H127  S    
C223  C224  S    
C120  F21   S    
C162  C166  A    
C114  C121  A    
C115  C205  S    
C146  F27   S    
C60   C80   S    
C5    C99   S    
C186  H23   S    
C47   O27   A    
C143  F26   S    
C69   C73   A    
C237  H154  S    
Cu4   O19   S    
C67   C197  S    
C221  H115  S    
Cu11  O7    S    
C194  H43   S    
C222  H112  S    
C177  H5    S    
C74   C187  S    
C169  F1    S    
C98   O31   A    
C165  C169  A    
C220  H107  S    
C198  H53   S    
C18   C46   S    
C12   C52   S    
C176  C231  S    
C179  H9    S    
C193  H45   S    
C146  C148  A    
C123  C151  A    
Cu6   O34   S    
C36   F8    S    
C57   C77   S    
Cu4   O28   S    
C216  H98   S    
C214  H91   S    
C181  H14   S    
C59   C79   S    
C107  O9    A    
C53   C57   A    
C182  H11   S    
C210  H83   S    
C211  H89   S    
C82   C86   T    
Cu5   O33   S    
C239  H159  S    
C33   C37   A    
C56   C60   A    
C35   C39   A    
C224  H116  S    
C79   C95   T    
C188  H26   S    
C118  C130  S    
C247  H180  S    
C234  H142  S    
C28   C32   A    
Cu3   O25   S    
C182  H12   S    
C238  H152  S    
C208  H77   S    
C195  H49   S    
C99   O37   A    
C39   C181  S    
C132  C134  T    
C113  C201  S    
C126  F36   S    
C187  H29   S    
C241  H165  S    
C27   C31   A    
C110  O8    A    
C31   C35   A    
C10   C50   S    
C121  F24   S    
C32   C36   A    
C197  H55   S    
C204  H68   S    
C234  H143  S    
C31   C245  S    
C248  H177  S    
C137  C141  A    
C20   C48   S    
C90   C124  A    
C247  H179  S    
C17   C45   S    
C92   C126  A    
Cu7   O40   S    
C6    C10   A    
C200  H58   S    
Cu2   Cu4   S    
C213  C214  S    
C221  H114  S    
Cu5   O38   S    
C229  H134  S    
C142  C150  S    
C189  H34   S    
C242  H161  S    
C16   C239  S    
Cu11  Cu12  S    
C183  H20   S    
C235  H149  S    
C166  C219  S    
C184  H17   S    
C43   C51   A    
Cu9   Cu10  S    
C105  C159  S    
C96   C110  S    
C106  C160  S    
C77   C93   T    
Cu2   O23   S    
C19   C47   S    
C122  C128  A    
C25   C49   A    
C69   C81   S    
C58   C78   S    
C215  H99   S    
C26   F42   S    
C245  H175  S    
C232  H138  S    
C230  H131  S    
C212  H87   S    
C229  H135  S    
C148  C156  S    
C112  O15   A    
C227  H129  S    
C152  C162  A    
C66   C195  S    
C233  H145  S    
C71   C75   A    
C48   O28   A    
C226  H121  S    
C56   C76   A    
C186  H22   S    
C34   F6    S    
C14   C18   A    
C19   C23   A    
C216  H96   S    
C214  H93   S    
C72   C76   A    
C206  H72   S    
C217  C218  S    
C141  C149  S    
C245  C246  S    
C144  F25   S    
C227  C228  S    
C7    C11   A    
C94   C108  S    
C241  C242  S    
C190  H31   S    
C205  H75   S    
C38   C42   A    
C188  H28   S    
C197  H54   S    
C104  O44   A    
C248  H176  S    
C244  H166  S    
Cu1   O21   S    
C32   C247  S    
C20   C24   A    
Cu5   O41   S    
C246  H171  S    
C196  H47   S    
C7    C175  A    
C100  O34   A    
Cu9   O10   S    
C80   C96   T    
C1    O17   A    
C124  C152  A    
Cu12  O48   S    
C68   C72   A    
C223  H119  S    
C101  O35   A    
C189  C190  S    
C185  H25   S    
Cu3   O18   S    
C129  C135  T    
C243  H169  S    
C243  C244  S    
C130  C136  T    
C128  C132  S    
C111  O14   A    
C22   C174  A    
C125  C153  A    
C60   C64   A    
C1    C85   S    
C245  H174  S    
C22   C152  S    
Cu1   O1    S    
C106  O47   A    
C3    C87   S    
C203  H70   S    
C36   C40   A    
C122  F23   S    
Cu8   O44   S    
C198  H52   S    
C56   F16   S    
C242  H162  S    
C180  H7    S    
C192  H36   S    
C39   C43   A    
C89   C123  A    
Cu12  O11   S    
C46   O26   A    
C233  C234  S    
C201  H65   S    
C163  C167  A    
C181  H15   S    
C3    O3    A    
C208  H76   S    
C139  C144  A    
C209  H85   S    
C61   F17   S    
C232  H136  S    
C230  H133  S    
C90   C170  A    
C240  H157  S    
C223  H120  S    
C149  C159  T    
Cu6   O30   S    
C92   F32   S    
C138  C211  S    
C63   F19   S    
C181  C182  S    
C64   F20   S    
C107  O5    A    
C218  H101  S    
C54   C58   A    
Cu8   O36   S    
C239  C240  S    
C210  H82   S    
C232  H137  S    
C34   C38   A    
C105  O45   A    
C190  H33   S    
C53   C73   A    
C54   F14   S    
Cu9   O5    S    
C131  C133  T    
C98   C134  S    
C231  C232  S    
C116  C119  A    
C244  H168  S    
C195  C196  S    
C91   F31   S    
C93   C107  S    
C197  C198  S    
Cu2   O3    S    
C28   C52   A    
C202  H61   S    
C212  H86   S    
C171  F3    S    
C246  H173  S    
C231  H140  S    
C236  H147  S    
C47   O23   A    
C2    C86   S    
C97   O29   A    
C68   C199  S    
C228  H126  S    
C189  H35   S    
C11   C51   S    
C183  C184  S    
Cu12  O8    S    
C115  C120  A    
C140  C215  S    
C139  C213  S    
C247  C248  S    
C201  C202  S    
C203  H69   S    
C8    C102  S    
Cu11  O47   S    
C119  C127  A    
C29   C241  S    
