data_mof_unit_40565.cif
_audit_creation_date              2012-12-10T17:11:30-0500
_audit_creation_method            fapswitch 2.2
_symmetry_space_group_name_H-M    P1
_symmetry_Int_Tables_number       1
_space_group_crystal_system       triclinic
_cell_length_a                    15.00148
_cell_length_b                    12.981119
_cell_length_c                    11.785199
_cell_angle_alpha                 99.355731
_cell_angle_beta                  92.403272
_cell_angle_gamma                 92.517046
_cell_volume                      2259.48478265

loop_
_atom_site_label
_atom_site_type_symbol
_atom_type_description
_atom_site_fract_x
_atom_site_fract_y
_atom_site_fract_z
_atom_type_partial_charge
C1    C     C_R   0.499965 0.299470 0.478579 0.814935
C2    C     C_R   0.500035 0.700530 0.521421 0.814935
C3    C     C_R   0.036498 0.375255 0.321246 -0.216959
C4    C     C_R   0.963502 0.624743 0.678754 -0.216958
C5    C     C_R   0.499986 0.814074 0.534869 -0.066112
C6    C     C_R   0.500015 0.185927 0.465131 -0.066108
C7    C     C_R   0.473888 0.015461 0.346622 -0.000986
C8    C     C_R   0.526116 0.984539 0.653378 -0.000984
C9    C     C_R   0.478804 0.124047 0.357766 -0.242487
C10   C     C_R   0.521199 0.875953 0.642233 -0.242489
C11   C     C_R   0.521132 0.139386 0.560443 -0.276146
C12   C     C_R   0.478871 0.860614 0.439557 -0.276143
C13   C     C_R   0.512291 0.031375 0.554037 0.103236
C14   C     C_R   0.487713 0.968625 0.445962 0.103240
C15   C     C_R   0.407501 0.409837 0.029462 -0.336043
C16   C     C_R   0.592498 0.590164 0.970538 -0.336045
C17   C     C_R   0.417500 0.417487 0.149053 0.054041
C18   C     C_R   0.582499 0.582514 0.850947 0.054037
C19   C     C_R   0.542837 0.536890 0.152861 0.132068
C20   C     C_R   0.457164 0.463108 0.847139 0.132068
C21   C     C_R   0.534329 0.532109 0.031213 0.031500
C22   C     C_R   0.465671 0.467891 0.968787 0.031497
C23   C     C_R   0.329020 0.499973 0.501121 0.818135
C24   C     C_R   0.670980 0.500027 0.498879 0.818134
C25   C     C_R   0.818828 0.562202 0.587838 -0.245171
C26   C     C_R   0.181172 0.437797 0.412163 -0.245171
C27   C     C_R   0.767610 0.500393 0.497771 -0.046335
C28   C     C_R   0.232389 0.499605 0.502229 -0.046337
C29   C     C_R   0.808630 0.437504 0.409206 -0.266233
C30   C     C_R   0.191370 0.562493 0.590795 -0.266238
C31   C     C_R   0.901530 0.437162 0.409167 0.102250
C32   C     C_R   0.098470 0.562836 0.590835 0.102252
C33   C     C_R   0.953288 0.500003 0.499579 0.058005
C34   C     C_R   0.046712 0.499994 0.500422 0.058005
C35   C     C_R   0.911670 0.562709 0.589284 0.107269
C36   C     C_R   0.088330 0.437288 0.410717 0.107269
C37   C     C_R   0.943525 0.375169 0.320498 -0.224444
C38   C     C_R   0.056475 0.624829 0.679503 -0.224441
Cu1   Cu    Cu3+1 0.506660 0.507730 0.615930 0.937507
Cu2   Cu    Cu3+1 0.493340 0.492270 0.384070 0.937507
H1    H     H_    0.786243 0.610523 0.656202 0.138097
H2    H     H_    0.213757 0.389476 0.343798 0.138097
H3    H     H_    0.353726 0.358255 0.985863 0.155481
H4    H     H_    0.646273 0.641747 0.014138 0.155480
H5    H     H_    0.768184 0.388445 0.341166 0.138705
H6    H     H_    0.231816 0.611553 0.658834 0.138705
H7    H     H_    0.904484 0.326781 0.250645 0.139540
H8    H     H_    0.095515 0.673217 0.749356 0.139539
H9    H     H_    0.067875 0.326868 0.251956 0.140187
H10   H     H_    0.932125 0.673130 0.748044 0.140186
H11   H     H_    0.454773 0.811769 0.360564 0.163335
H12   H     H_    0.545227 0.188232 0.639436 0.163334
H13   H     H_    0.534138 0.840034 0.717776 0.156469
H14   H     H_    0.465865 0.159965 0.282223 0.156468
H15   H     H_    0.627918 0.627236 0.806467 0.125299
H16   H     H_    0.372080 0.372766 0.193533 0.125299
N1    N     N_R   0.516670 0.519360 0.790130 -0.195871
N2    N     N_R   0.483330 0.480640 0.209870 -0.195872
O1    O     O_R   0.504720 0.354460 0.582000 -0.580736
O2    O     O_R   0.495280 0.645540 0.418000 -0.580738
O3    O     O_R   0.493480 0.341410 0.386200 -0.599972
O4    O     O_R   0.506520 0.658590 0.613800 -0.599971
O5    O     O_R   0.375880 0.506510 0.597910 -0.578731
O6    O     O_R   0.624120 0.493490 0.402090 -0.578729
O7    O     O_R   0.364640 0.493450 0.402110 -0.592636
O8    O     O_R   0.635360 0.506550 0.597890 -0.592636
C39   C     C_R   0.459356 0.953593 0.229587 0.084607
C40   C     C_R   0.376728 0.900717 0.194138 -0.171430
C41   C     C_R   0.365084 0.839255 0.084935 -0.143925
C42   C     C_R   0.435547 0.830704 0.010504 -0.117016
C43   C     C_R   0.517597 0.884197 0.044823 -0.116245
C44   C     C_R   0.529410 0.946019 0.153735 -0.160956
H17   H     H_    0.321996 0.906124 0.251540 0.129938
H18   H     H_    0.301540 0.797889 0.058178 0.126487
H19   H     H_    0.426561 0.782801 0.926221 0.127657
H20   H     H_    0.572007 0.877829 0.986999 0.132532
H21   H     H_    0.593440 0.986684 0.179653 0.127407
C45   C     C_R   0.540649 0.046407 0.770413 0.084610
C46   C     C_R   0.470600 0.053960 0.846274 -0.160953
C47   C     C_R   0.482413 0.115780 0.955187 -0.116239
C48   C     C_R   0.564456 0.169292 0.989497 -0.117017
C49   C     C_R   0.634914 0.160763 0.915057 -0.143922
C50   C     C_R   0.623270 0.099302 0.805853 -0.171435
H22   H     H_    0.406575 0.013279 0.820363 0.127407
H23   H     H_    0.428008 0.122130 0.013019 0.132538
H24   H     H_    0.573442 0.217195 0.073781 0.127657
H25   H     H_    0.698452 0.202144 0.941808 0.126489
H26   H     H_    0.677998 0.093911 0.748445 0.129938
C51   C     C_R   0.383100 0.395655 0.784326 0.159129
C52   C     C_R   0.296663 0.432852 0.779905 -0.138821
C53   C     C_R   0.224261 0.365330 0.733381 -0.138691
C54   C     C_R   0.237273 0.259861 0.694031 -0.130742
C55   C     C_R   0.322024 0.221055 0.705134 -0.156110
C56   C     C_R   0.393960 0.288349 0.753134 -0.129511
H27   H     H_    0.285605 0.513890 0.812818 0.114500
H28   H     H_    0.157981 0.394551 0.728638 0.144405
H29   H     H_    0.181285 0.207739 0.657868 0.129311
H30   H     H_    0.331563 0.138564 0.679145 0.138714
H31   H     H_    0.457612 0.257133 0.770232 0.141559
C57   C     C_R   0.616904 0.604338 0.215673 0.159130
C58   C     C_R   0.606048 0.711644 0.246873 -0.129507
C59   C     C_R   0.677988 0.778934 0.294871 -0.156119
C60   C     C_R   0.762738 0.740123 0.305966 -0.130736
C61   C     C_R   0.775746 0.634653 0.266609 -0.138688
C62   C     C_R   0.703341 0.567136 0.220086 -0.138826
H32   H     H_    0.542398 0.742864 0.229781 0.141559
H33   H     H_    0.668452 0.861425 0.320866 0.138710
H34   H     H_    0.818729 0.792241 0.342128 0.129311
H35   H     H_    0.842024 0.605429 0.271346 0.144404
H36   H     H_    0.714394 0.486098 0.187169 0.114496

loop_
_geom_bond_atom_site_label_1
_geom_bond_atom_site_label_2
_ccdc_geom_bond_type
C62   H36   S    
C16   C21   A    
Cu2   O2    S    
C27   C29   A    
C24   C27   S    
C6    C9    A    
C48   C49   A    
C3    H9    S    
C52   H27   S    
C57   C62   A    
C55   C56   A    
C56   H31   S    
C19   C21   A    
C1    O1    A    
C43   H20   S    
C2    O2    A    
C49   H25   S    
Cu1   N1    S    
C7    C9    A    
C39   C44   A    
C51   C56   A    
C10   H13   S    
C54   C55   A    
C11   H12   S    
C44   H21   S    
C53   H28   S    
C45   C50   A    
C15   C22   A    
C40   C41   A    
C31   C33   A    
C42   C43   A    
C32   C38   A    
C37   H7    S    
C16   H4    S    
C38   H8    S    
C48   H24   S    
C24   O8    A    
C17   N2    A    
C23   O5    A    
C50   H26   S    
C4    C35   A    
C24   O6    A    
C21   C22   A    
C8    C45   S    
C41   C42   A    
C61   C62   A    
C54   H29   S    
C7    C14   A    
C19   N2    A    
Cu2   N2    S    
C39   C40   A    
C58   C59   A    
C41   H18   S    
C5    C12   A    
C25   H1    S    
C53   C54   A    
C45   C46   A    
C40   H17   S    
Cu2   O3    S    
C31   C37   A    
C4    H10   S    
C32   C34   A    
C47   H23   S    
C18   N1    A    
Cu1   O1    S    
C33   C34   A    
C59   H33   S    
C16   C18   A    
C23   C28   S    
C17   H16   S    
C60   H34   S    
C18   H15   S    
C25   C35   A    
C26   C36   A    
C4    C38   A    
Cu2   O7    S    
Cu1   O8    S    
C2    C5    S    
C51   C52   A    
C6    C11   A    
C12   H11   S    
C26   H2    S    
C58   H32   S    
C15   C17   A    
Cu1   O4    S    
C1    C6    S    
C30   H6    S    
C20   C22   A    
C47   C48   A    
C1    O3    A    
C19   C57   S    
C25   C27   A    
Cu1   O5    S    
C20   C51   S    
C26   C28   A    
Cu2   O6    S    
C23   O7    A    
C28   C30   A    
C12   C14   A    
C15   H3    S    
C5    C10   A    
C29   C31   A    
C30   C32   A    
C11   C13   A    
C52   C53   A    
C46   H22   S    
C3    C36   A    
C57   C58   A    
C33   C35   A    
C34   C36   A    
C59   C60   A    
C7    C39   S    
C46   C47   A    
Cu1   Cu2   S    
C8    C13   A    
C43   C44   A    
C3    C37   A    
C8    C10   A    
C49   C50   A    
C29   H5    S    
C60   C61   A    
C61   H35   S    
C42   H19   S    
C9    H14   S    
C20   N1    A    
C13   C14   A    
C55   H30   S    
C2    O4    A    
