data_mof_unit_47220.cif
_audit_creation_date              2012-12-10T20:37:35-0500
_audit_creation_method            fapswitch 2.2
_symmetry_space_group_name_H-M    P1
_symmetry_Int_Tables_number       1
_space_group_crystal_system       triclinic
_cell_length_a                    15.667518
_cell_length_b                    10.646011
_cell_length_c                    9.979148
_cell_angle_alpha                 88.21897
_cell_angle_beta                  90.291745
_cell_angle_gamma                 91.263978
_cell_volume                      1663.26255702

loop_
_atom_site_label
_atom_site_type_symbol
_atom_type_description
_atom_site_fract_x
_atom_site_fract_y
_atom_site_fract_z
_atom_type_partial_charge
C1    C     C_R   0.502931 0.260915 0.502104 0.894023
C2    C     C_R   0.507074 0.128880 0.505670 -0.286340
C3    C     C_R   0.560948 0.067039 0.416804 0.418337
C4    C     C_R   0.338124 0.499515 0.499692 0.916242
C5    C     C_R   0.552993 0.937849 0.409790 -0.234789
C6    C     C_R   0.495130 0.871302 0.492302 -0.176437
C7    C     C_R   0.437480 0.933995 0.569877 0.027383
C8    C     C_3   0.410975 0.913773 0.712677 -0.595936
C9    C     C_3   0.423461 0.055815 0.726489 0.420266
C10   C     C_R   0.434068 0.445783 0.071963 0.168018
C11   C     C_R   0.568355 0.546265 0.070463 -0.047804
C12   C     C_3   0.082341 0.487937 0.498533 0.220683
C13   C     C_R   0.568697 0.544941 0.927003 -0.048661
C14   C     C_R   0.433978 0.446236 0.930509 0.229161
C15   C     C_3   0.342814 0.482729 0.923117 -0.493003
C16   C     C_R   0.497980 0.739231 0.498134 0.916363
C17   C     C_3   0.342815 0.482292 0.075335 -0.502956
C18   C     C_R   0.661771 0.498223 0.500287 0.895227
C19   C     C_3   0.971773 0.423280 0.610322 -0.173681
C20   C     C_3   0.027676 0.366910 0.500841 -0.146701
C21   C     C_1   0.248962 0.495970 0.499053 -0.180332
C22   C     C_1   0.750533 0.490264 0.500582 -0.148801
C23   C     C_3   0.971550 0.603624 0.496946 -0.167868
C24   C     C_3   0.028283 0.544278 0.607977 -0.170920
C25   C     C_R   0.495781 0.091108 0.823272 0.144790
C26   C     C_R   0.581072 0.059762 0.797207 -0.207940
C27   C     C_R   0.646530 0.089934 0.887065 -0.154547
C28   C     C_R   0.627960 0.149641 0.005464 -0.094058
C29   C     C_R   0.543786 0.178188 0.034741 -0.122916
C30   C     C_R   0.478085 0.149294 0.944648 -0.155073
C31   C     C_R   0.641397 0.609406 0.136743 0.213862
C32   C     C_R   0.641661 0.740374 0.148421 -0.153787
C33   C     C_R   0.716736 0.805262 0.183570 -0.164987
C34   C     C_3   0.916770 0.482747 0.499321 0.209329
C35   C     C_R   0.791998 0.739990 0.206778 -0.114267
C36   C     C_R   0.792714 0.609965 0.192817 -0.140067
C37   C     C_R   0.717925 0.544742 0.157655 -0.120109
C38   C     C_R   0.644412 0.598258 0.855809 0.203792
C39   C     C_R   0.719769 0.529018 0.852726 -0.130944
C40   C     C_R   0.795295 0.585014 0.803665 -0.134646
C41   C     C_R   0.795650 0.708857 0.753207 -0.109902
C42   C     C_R   0.720857 0.777812 0.754573 -0.165423
C43   C     C_R   0.645858 0.723630 0.808132 -0.098755
C44   C     C_3   0.027268 0.547298 0.387493 -0.173511
C45   C     C_3   0.970701 0.426315 0.389821 -0.180431
C46   C     C_1   0.173434 0.492163 0.498625 -0.086643
C47   C     C_1   0.825824 0.484599 0.500039 -0.094134
C48   C     C_R   0.445134 0.061527 0.579263 0.110455
H1    H     H_    0.052968 0.270280 0.502417 0.133259
H2    H     H_    0.946242 0.700265 0.495098 0.124857
H3    H     H_    0.053866 0.592678 0.697082 0.128618
H4    H     H_    0.597169 0.888716 0.349277 0.177711
H5    H     H_    0.343357 0.880405 0.719942 0.206612
H6    H     H_    0.318440 0.075027 0.826494 0.319030
H7    H     H_    0.597264 0.011187 0.707675 0.128897
H8    H     H_    0.711718 0.066287 0.865233 0.128586
H9    H     H_    0.678709 0.172841 0.075007 0.151578
H10   H     H_    0.529337 0.222727 0.127608 0.181479
H11   H     H_    0.413554 0.172236 0.971051 0.136717
H12   H     H_    0.455911 0.856260 0.773400 0.191732
H13   H     H_    0.584657 0.792631 0.124908 0.134097
H14   H     H_    0.716908 0.906531 0.190588 0.162906
H15   H     H_    0.850077 0.790368 0.233442 0.123312
H16   H     H_    0.851495 0.559915 0.207390 0.130428
H17   H     H_    0.719836 0.444337 0.143700 0.108965
H18   H     H_    0.720255 0.432749 0.891143 0.110434
H19   H     H_    0.853431 0.532170 0.804172 0.126169
H20   H     H_    0.853976 0.751538 0.713714 0.121513
H21   H     H_    0.721617 0.873989 0.716426 0.125361
H22   H     H_    0.589766 0.779972 0.815572 0.121188
H23   H     H_    0.334454 0.577777 0.876073 0.209584
H24   H     H_    0.638780 0.209576 0.381779 0.327981
H25   H     H_    0.301429 0.407268 0.881215 0.221166
H26   H     H_    0.334373 0.577074 0.116528 0.217352
H27   H     H_    0.301334 0.406676 0.121044 0.205563
H28   H     H_    0.947015 0.371886 0.701005 0.121927
H29   H     H_    0.944910 0.377724 0.300982 0.124042
H30   H     H_    0.052036 0.598145 0.296465 0.128804
N1    N     N_R   0.499430 0.499140 0.142800 -0.131709
N2    N     N_R   0.499430 0.499180 0.857150 -0.129877
O1    O     O_R   0.500010 0.316790 0.614690 -0.591161
O2    O     O_3   0.625287 0.126836 0.343363 -0.801669
O3    O     O_R   0.500000 0.316760 0.385350 -0.619587
O4    O     O_R   0.376780 0.500010 0.614650 -0.607363
O5    O     O_R   0.376770 0.499970 0.385310 -0.618068
O6    O     O_R   0.500000 0.683240 0.614650 -0.628233
O7    O     O_R   0.499990 0.683210 0.385310 -0.620490
O8    O     O_R   0.623230 0.500030 0.614690 -0.609394
O9    O     O_R   0.623220 0.499990 0.385350 -0.621586
O10   O     O_3   0.346704 0.117969 0.748366 -0.769661
Zn1   Zn    Zn3+2 0.500010 0.500020 0.653130 0.964436
Zn2   Zn    Zn3+2 0.499990 0.499980 0.346870 0.942931

loop_
_geom_bond_atom_site_label_1
_geom_bond_atom_site_label_2
_ccdc_geom_bond_type
C41   C42   A    
C19   C20   S    
C26   H7    S    
C9    C25   S    
C7    C8    S    
C28   H9    S    
O3    Zn2   S    
C26   C27   A    
C29   C30   A    
C36   C37   A    
C32   H13   S    
H6    O10   S    
O6    Zn1   S    
C38   C39   A    
C10   C17   S    
C1    O1    A    
C1    C2    S    
C35   C36   A    
C33   H14   S    
C40   H19   S    
C37   H17   S    
C16   O7    A    
C23   C24   S    
C5    H4    S    
O4    Zn1   S    
C14   N2    A    
C20   C45   S    
C24   H3    S    
C22   C47   T    
C13   N2    A    
C11   C31   S    
O7    Zn2   S    
C16   O6    A    
C19   H28   S    
O5    Zn2   S    
C41   H20   S    
C12   C46   S    
C10   C14   A    
C39   C40   A    
C27   H8    S    
C8    C9    S    
C23   H2    S    
C4    O5    A    
C2    C48   A    
C25   C26   A    
C42   H21   S    
C18   O8    A    
C23   C44   S    
C31   C37   A    
C9    O10   S    
C20   H1    S    
C31   C32   A    
C4    O4    A    
O8    Zn1   S    
C23   C34   S    
C30   H11   S    
C12   C20   S    
C3    O2    S    
C13   C38   S    
C34   C45   S    
O9    Zn2   S    
N1    Zn2   S    
C11   N1    A    
C40   C41   A    
C15   H25   S    
C43   H22   S    
C17   H26   S    
C39   H18   S    
C42   C43   A    
C44   C45   S    
C21   C46   T    
C25   C30   A    
C15   C17   S    
C28   C29   A    
C18   C22   S    
C18   O9    A    
C3    C5    A    
C19   C34   S    
C8    H5    S    
C45   H29   S    
C10   N1    A    
C6    C7    A    
C1    O3    A    
C15   H23   S    
C12   C24   S    
C32   C33   A    
N2    Zn1   S    
C44   H30   S    
C2    C3    A    
C38   C43   A    
C12   C44   S    
C7    C48   A    
C4    C21   S    
C11   C13   A    
C5    C6    A    
C33   C35   A    
C19   C24   S    
H24   O2    S    
C6    C16   S    
O1    Zn1   S    
C29   H10   S    
C9    C48   S    
C27   C28   A    
C17   H27   S    
C14   C15   S    
C35   H15   S    
C34   C47   S    
C36   H16   S    
C8    H12   S    
