data_mof_unit_49696.cif
_audit_creation_date              2012-12-11T14:42:13-0500
_audit_creation_method            fapswitch 2.2
_symmetry_space_group_name_H-M    P1
_symmetry_Int_Tables_number       1
_space_group_crystal_system       triclinic
_cell_length_a                    18.861643
_cell_length_b                    10.936768
_cell_length_c                    18.6639
_cell_angle_alpha                 89.778708
_cell_angle_beta                  90.573627
_cell_angle_gamma                 90.19796
_cell_volume                      3849.8461933

loop_
_atom_site_label
_atom_site_type_symbol
_atom_type_description
_atom_site_fract_x
_atom_site_fract_y
_atom_site_fract_z
_atom_type_partial_charge
C1    C     C_R   0.728306 0.952626 0.852776 0.543251
C2    C     C_R   0.252921 0.395528 0.919414 0.030808
C3    C     C_R   0.247431 0.896568 0.080367 0.032287
C4    C     C_R   0.752921 0.895528 0.919414 0.030808
C5    C     C_R   0.790282 0.307631 0.048676 -0.127627
C6    C     C_R   0.210269 0.305724 0.951333 -0.122110
C7    C     C_R   0.290282 0.807631 0.048676 -0.127627
C8    C     C_R   0.710269 0.805724 0.951333 -0.122110
C9    C     C_R   0.780186 0.277075 0.977557 -0.130537
C10   C     C_R   0.220408 0.275282 0.022589 -0.127341
C11   C     C_R   0.280186 0.777075 0.977557 -0.130537
C12   C     C_R   0.271781 0.953114 0.147124 0.535237
C13   C     C_R   0.720408 0.775282 0.022589 -0.127342
C14   C     C_R   0.726730 0.333677 0.937045 0.026428
C15   C     C_R   0.273753 0.332742 0.062896 0.021476
C16   C     C_R   0.226730 0.833677 0.937045 0.026428
C17   C     C_R   0.773753 0.832742 0.062896 0.021476
C18   C     C_R   0.459717 0.276932 0.550350 -0.128814
C19   C     C_R   0.441457 0.279100 0.478889 -0.131573
C20   C     C_R   0.959716 0.776931 0.550350 -0.128813
C21   C     C_R   0.941455 0.779099 0.478889 -0.131572
C22   C     C_R   0.443540 0.171706 0.438960 0.024698
C23   C     C_R   0.228306 0.452626 0.852776 0.543251
C24   C     C_R   0.483951 0.167939 0.581685 0.032325
C25   C     C_R   0.943540 0.671705 0.438960 0.024697
C26   C     C_R   0.983951 0.667939 0.581685 0.032325
C27   C     C_R   0.456906 0.059127 0.472945 -0.128300
C28   C     C_R   0.478134 0.057448 0.544367 -0.130093
C29   C     C_R   0.956908 0.559127 0.472945 -0.128300
C30   C     C_R   0.978135 0.557448 0.544367 -0.130095
C31   C     C_R   0.785473 0.286953 0.524288 -0.132809
C32   C     C_R   0.205219 0.318599 0.470290 -0.126866
C33   C     C_R   0.285469 0.786946 0.524286 -0.132808
C34   C     C_R   0.771781 0.453114 0.147124 0.535237
C35   C     C_R   0.705224 0.818593 0.470291 -0.126867
C36   C     C_R   0.793845 0.314113 0.452848 -0.131771
C37   C     C_R   0.203857 0.327765 0.543571 -0.128425
C38   C     C_R   0.293842 0.814107 0.452846 -0.131770
C39   C     C_R   0.703861 0.827761 0.543572 -0.128426
C40   C     C_R   0.527344 0.177361 0.848902 0.547424
C41   C     C_R   0.442427 0.181768 0.141216 0.545517
C42   C     C_R   0.027344 0.677361 0.848902 0.547424
C43   C     C_R   0.942426 0.681768 0.141216 0.545517
C44   C     C_R   0.748178 0.397413 0.418772 0.033508
C45   C     C_R   0.688576 0.442444 0.042584 -0.140375
C46   C     C_R   0.249124 0.410087 0.578368 0.035114
C47   C     C_R   0.248177 0.897414 0.418772 0.033508
C48   C     C_R   0.749124 0.910089 0.578368 0.035112
C49   C     C_R   0.688826 0.441659 0.455040 -0.132880
C50   C     C_R   0.301111 0.473185 0.539674 -0.142195
C51   C     C_R   0.188828 0.941666 0.455041 -0.132879
C52   C     C_R   0.801109 0.973191 0.539673 -0.142194
C53   C     C_R   0.678792 0.409916 0.526636 -0.131064
C54   C     C_R   0.301951 0.465407 0.465402 -0.148495
C55   C     C_R   0.178794 0.909924 0.526637 -0.131062
C56   C     C_R   0.311845 0.442041 0.956968 -0.146671
C57   C     C_R   0.801949 0.965412 0.465401 -0.148496
C58   C     C_R   0.729299 0.336914 0.562368 0.029064
C59   C     C_R   0.253522 0.388611 0.430364 0.034588
C60   C     C_R   0.229298 0.836915 0.562368 0.029064
C61   C     C_R   0.753523 0.888609 0.430365 0.034586
C62   C     C_R   0.723551 0.310918 0.859970 0.571813
C63   C     C_R   0.276543 0.310673 0.140122 0.553423
C64   C     C_R   0.223551 0.810918 0.859970 0.571813
C65   C     C_R   0.776544 0.810673 0.140122 0.553423
C66   C     C_R   0.728989 0.952597 0.648630 0.545249
C67   C     C_R   0.188576 0.942444 0.042584 -0.140375
C68   C     C_R   0.271181 0.952146 0.351573 0.543975
C69   C     C_R   0.228989 0.452596 0.648630 0.545249
C70   C     C_R   0.771181 0.452146 0.351573 0.543974
C71   C     C_R   0.526818 0.176189 0.646352 0.543679
C72   C     C_R   0.434218 0.180363 0.361982 0.573925
C73   C     C_R   0.026818 0.676189 0.646352 0.543679
C74   C     C_R   0.934218 0.680363 0.361982 0.573925
C75   C     C_R   0.724940 0.311170 0.638893 0.572064
C76   C     C_R   0.261302 0.359020 0.355264 0.555519
C77   C     C_R   0.224940 0.811171 0.638893 0.572064
C78   C     C_R   0.811845 0.942041 0.956968 -0.146671
C79   C     C_R   0.761303 0.859019 0.355264 0.555519
C80   C     C_2   0.483450 0.169032 0.912470 -0.107273
C81   C     C_2   0.467023 0.174298 0.067716 -0.109361
C82   C     C_2   0.983450 0.669032 0.912470 -0.107273
C83   C     C_2   0.967023 0.674298 0.067716 -0.109361
C84   C     C_2   0.456500 0.073785 0.027724 -0.159542
C85   C     C_2   0.481832 0.068365 0.953550 -0.149759
C86   C     C_2   0.956499 0.573785 0.027724 -0.159542
C87   C     C_2   0.981832 0.568365 0.953550 -0.149759
C88   C     C_R   0.678226 0.411200 0.970872 -0.136045
C89   C     C_R   0.747431 0.396568 0.080367 0.032287
C90   C     C_R   0.322290 0.410742 0.028764 -0.144164
C91   C     C_R   0.178226 0.911200 0.970872 -0.136045
C92   C     C_R   0.822290 0.910742 0.028764 -0.144164
Cr1   Cr    Cr6+3 0.769270 0.163730 0.750710 1.003017
Cr2   Cr    Cr6+3 0.385840 0.322500 0.252290 1.008782
Cr3   Cr    Cr6+3 0.114160 0.822500 0.747710 1.009647
Cr4   Cr    Cr6+3 0.885840 0.822500 0.252290 1.008783
Cr5   Cr    Cr6+3 0.230730 0.163730 0.249290 1.006866
Cr6   Cr    Cr6+3 0.269270 0.663730 0.750710 1.003018
Cr7   Cr    Cr6+3 0.730730 0.663730 0.249290 1.006866
Cr8   Cr    Cr6+3 0.612620 0.009790 0.748780 1.010426
Cr9   Cr    Cr6+3 0.387380 0.009790 0.251220 1.013552
Cr10  Cr    Cr6+3 0.112620 0.509790 0.748780 1.010426
Cr11  Cr    Cr6+3 0.887380 0.509790 0.251220 1.013551
Cr12  Cr    Cr6+3 0.614160 0.322500 0.747710 1.009647
H1    H     H_    0.433207 0.991914 0.050918 0.155117
H2    H     H_    0.338811 0.532207 0.566593 0.112415
H3    H     H_    0.152628 0.005356 0.429494 0.122899
H4    H     H_    0.838806 0.032220 0.566591 0.112418
H5    H     H_    0.633788 0.447135 0.554666 0.132044
H6    H     H_    0.340965 0.517151 0.435643 0.111442
H7    H     H_    0.133793 0.947150 0.554669 0.132043
H8    H     H_    0.840960 0.017159 0.435641 0.111445
H9    H     H_    0.493114 0.254535 0.045619 0.112090
H10   H     H_    0.458616 0.252905 0.930414 0.108327
H11   H     H_    0.993114 0.754535 0.045619 0.112090
H12   H     H_    0.503788 0.982692 0.934815 0.153746
H13   H     H_    0.958616 0.752905 0.930414 0.108327
H14   H     H_    0.634627 0.452142 0.941314 0.131774
H15   H     H_    0.365837 0.452263 0.058183 0.128879
H16   H     H_    0.134627 0.952143 0.941314 0.131774
H17   H     H_    0.865837 0.952263 0.058183 0.128879
H18   H     H_    0.653132 0.507305 0.067047 0.118843
H19   H     H_    0.347104 0.507786 0.932341 0.116205
H20   H     H_    0.153132 0.007305 0.067047 0.118843
H21   H     H_    0.847104 0.007786 0.932341 0.116205
H22   H     H_    0.834855 0.267588 0.077194 0.134315
H23   H     H_    0.933207 0.491914 0.050918 0.155117
H24   H     H_    0.165707 0.265227 0.922942 0.133381
H25   H     H_    0.334855 0.767589 0.077194 0.134315
H26   H     H_    0.665707 0.765227 0.922942 0.133381
H27   H     H_    0.816668 0.213851 0.953260 0.124318
H28   H     H_    0.183873 0.211830 0.047217 0.124727
H29   H     H_    0.316668 0.713851 0.953260 0.124318
H30   H     H_    0.683873 0.711830 0.047217 0.124727
H31   H     H_    0.461546 0.363063 0.578818 0.129941
H32   H     H_    0.430599 0.366236 0.453739 0.128805
H33   H     H_    0.961543 0.863062 0.578819 0.129941
H34   H     H_    0.003788 0.482692 0.934815 0.153746
H35   H     H_    0.930595 0.866235 0.453739 0.128807
H36   H     H_    0.456071 0.974067 0.443423 0.135745
H37   H     H_    0.495054 0.971917 0.568360 0.129900
H38   H     H_    0.956074 0.474067 0.443423 0.135743
H39   H     H_    0.995056 0.471918 0.568359 0.129899
H40   H     H_    0.825270 0.231590 0.550544 0.121996
H41   H     H_    0.168786 0.254528 0.445293 0.133092
H42   H     H_    0.325264 0.731576 0.550541 0.121996
H43   H     H_    0.668795 0.754516 0.445294 0.133095
H44   H     H_    0.839704 0.277041 0.426132 0.128302
H45   H     H_    0.164193 0.275844 0.572420 0.131606
H46   H     H_    0.339698 0.777029 0.426129 0.128302
H47   H     H_    0.664200 0.775836 0.572422 0.131608
H48   H     H_    0.652624 0.505342 0.429491 0.122899
O1    O     O_R   0.784320 0.290430 0.830510 -0.508269
O2    O     O_R   0.456080 0.282180 0.333210 -0.507993
O3    O     O_R   0.043920 0.782180 0.666790 -0.535699
O4    O     O_R   0.956080 0.782180 0.333210 -0.507991
O5    O     O_R   0.679040 0.374160 0.674430 -0.493795
O6    O     O_R   0.320960 0.374160 0.325570 -0.518177
O7    O     O_R   0.179040 0.874160 0.674430 -0.493796
O8    O     O_R   0.820960 0.874160 0.325570 -0.518178
O9    O     O_3   0.665350 0.165340 0.749070 -0.282355
O10   O     O_3   0.334650 0.165340 0.250930 -0.306930
O11   O     O_3   0.165350 0.665340 0.749070 -0.282355
O12   O     O_R   0.215680 0.290430 0.169490 -0.500405
O13   O     O_3   0.834650 0.665340 0.250930 -0.306931
O14   O     O_R   0.762640 0.040960 0.825200 -0.523377
O15   O     O_R   0.237360 0.040960 0.174800 -0.521232
O16   O     O_R   0.262640 0.540960 0.825200 -0.523377
O17   O     O_R   0.737360 0.540960 0.174800 -0.521232
O18   O     O_R   0.667400 0.923970 0.829950 -0.518893
O19   O     O_R   0.332600 0.923970 0.170050 -0.530311
O20   O     O_R   0.167400 0.423970 0.829950 -0.518893
O21   O     O_R   0.832600 0.423970 0.170050 -0.530311
O22   O     O_R   0.553960 0.081340 0.821780 -0.492615
O23   O     O_R   0.284320 0.790430 0.830510 -0.508269
O24   O     O_R   0.446040 0.081340 0.178220 -0.474202
O25   O     O_R   0.053960 0.581340 0.821780 -0.492615
O26   O     O_R   0.946040 0.581340 0.178220 -0.474202
O27   O     O_R   0.543180 0.283240 0.826740 -0.528010
O28   O     O_R   0.456820 0.283240 0.173260 -0.510494
O29   O     O_R   0.043180 0.783240 0.826740 -0.528010
O30   O     O_R   0.956820 0.783240 0.173260 -0.510493
O31   O     O_R   0.678360 0.375140 0.822710 -0.493490
O32   O     O_R   0.321640 0.375140 0.177290 -0.506573
O33   O     O_R   0.178360 0.875140 0.822710 -0.493490
O34   O     O_R   0.715680 0.790430 0.169490 -0.500404
O35   O     O_R   0.821640 0.875140 0.177290 -0.506573
O36   O     O_R   0.785050 0.289380 0.670560 -0.511458
O37   O     O_R   0.214950 0.289380 0.329440 -0.515059
O38   O     O_R   0.285050 0.789380 0.670560 -0.511456
O39   O     O_R   0.714950 0.789380 0.329440 -0.515059
O40   O     O_R   0.763320 0.039990 0.676930 -0.523206
O41   O     O_R   0.236680 0.039990 0.323070 -0.503850
O42   O     O_R   0.263320 0.539990 0.676930 -0.523206
O43   O     O_R   0.736680 0.539990 0.323070 -0.503850
O44   O     O_R   0.668130 0.922920 0.670000 -0.518518
O45   O     O_R   0.554640 0.080370 0.673500 -0.500946
O46   O     O_R   0.331870 0.922920 0.330000 -0.532435
O47   O     O_R   0.168130 0.422920 0.670000 -0.518519
O48   O     O_R   0.831870 0.422920 0.330000 -0.532435
O49   O     O_R   0.445360 0.080370 0.326500 -0.491192
O50   O     O_R   0.054640 0.580370 0.673500 -0.500947
O51   O     O_R   0.945360 0.580370 0.326500 -0.491192
O52   O     O_R   0.543920 0.282180 0.666790 -0.535700

loop_
_geom_bond_atom_site_label_1
_geom_bond_atom_site_label_2
_ccdc_geom_bond_type
C44   C49   A    
Cr7   O39   S    
C65   O35   A    
C43   O26   A    
C8    C13   A    
Cr7   O43   S    
C43   C83   S    
C13   H30   S    
C41   O28   A    
C75   O36   A    
C42   C82   S    
Cr12  O5    S    
C4    C8    A    
C67   H20   S    
C12   O15   A    
Cr6   O11   S    
C7    C11   A    
C54   H6    S    
C29   C30   A    
C18   C24   A    
C77   O38   A    
Cr12  O52   S    
C31   C58   A    
C27   C28   A    
Cr9   O10   S    
C18   C19   A    
C3    C7    A    
C10   C15   A    
C11   H29   S    
C57   H8    S    
C74   O51   A    
C42   O25   A    
C82   C87   D    
C14   C62   S    
C39   H47   S    
C1    O18   A    
Cr11  O21   S    
C26   C73   S    
Cr6   O42   S    
C68   O46   A    
C25   C74   S    
C9    H27   S    
Cr5   O41   S    
C31   H40   S    
C46   C69   S    
C76   O37   A    
C62   O31   A    
C36   H44   S    
C23   O20   A    
Cr10  O11   S    
C66   O40   A    
C5    H22   S    
C40   C80   S    
C44   C70   S    
C68   O41   A    
C3    C12   S    
C5    C89   A    
C45   C89   A    
Cr2   O10   S    
C31   C36   A    
C51   C55   A    
C64   O33   A    
Cr6   O38   S    
Cr8   O45   S    
C75   O5    A    
C46   C50   A    
C56   C90   A    
Cr2   O6    S    
C79   O39   A    
C55   C60   A    
C25   C29   A    
Cr4   O35   S    
C2    C6    A    
C17   C92   A    
Cr2   O32   S    
C22   C72   S    
C58   C75   S    
C71   O45   A    
C12   O19   A    
C10   H28   S    
C54   C59   A    
Cr8   O44   S    
C42   O29   A    
Cr10  O20   S    
C71   O52   A    
C3    C67   A    
C60   C77   S    
C72   O2    A    
Cr8   O18   S    
C56   H19   S    
C83   H11   S    
C82   H13   S    
C19   C22   A    
C84   C85   S    
C33   H42   S    
C8    H26   S    
C37   H45   S    
Cr12  O9    S    
Cr9   O46   S    
C70   O43   A    
C47   C51   A    
C32   H41   S    
C78   C92   A    
C19   H32   S    
Cr5   O15   S    
C30   H39   S    
C20   H33   S    
C35   C39   A    
C9    C14   A    
C5    C9    A    
C80   C85   D    
Cr3   O11   S    
C40   O27   A    
C11   C16   A    
Cr1   O9    S    
Cr2   O2    S    
Cr5   O12   S    
C41   C81   S    
C63   O12   A    
C73   O3    A    
C67   C91   A    
C84   H1    S    
C74   O4    A    
C18   H31   S    
C35   C61   A    
C35   H43   S    
C32   C37   A    
C64   O23   A    
C57   C61   A    
C38   C47   A    
Cr8   O9    S    
C34   O17   A    
C77   O7    A    
C45   C88   A    
Cr4   O8    S    
C41   O24   A    
C80   H10   S    
Cr1   O14   S    
Cr11  O13   S    
C33   C60   A    
C22   C27   A    
Cr8   O22   S    
Cr3   O7    S    
C36   C44   A    
C21   H35   S    
C87   H34   S    
C88   H14   S    
C47   C68   S    
C79   O8    A    
C81   C84   D    
Cr3   O33   S    
C50   H2    S    
Cr12  O31   S    
Cr1   O40   S    
C53   H5    S    
C21   C25   A    
C65   O34   A    
C70   O48   A    
C63   O32   A    
C49   H48   S    
C55   H7    S    
C86   H23   S    
C86   C87   S    
C85   H12   S    
Cr3   O29   S    
C24   C28   A    
Cr4   O30   S    
Cr9   O24   S    
C6    C10   A    
C66   O44   A    
C53   C58   A    
C26   C30   A    
Cr7   O17   S    
C45   H18   S    
C4    C78   A    
C73   O50   A    
Cr2   O28   S    
C43   O30   A    
C17   C65   S    
C27   H36   S    
Cr4   O13   S    
C62   O1    A    
C13   C17   A    
Cr11  O26   S    
C90   H15   S    
C1    C4    S    
Cr1   O1    S    
Cr10  O50   S    
C34   C89   S    
C14   C88   A    
C50   C54   A    
C34   O21   A    
Cr9   O49   S    
Cr10  O47   S    
C15   C90   A    
C40   O22   A    
Cr6   O23   S    
Cr4   O4    S    
C20   C26   A    
C1    O14   A    
C61   C79   S    
C49   C53   A    
C29   H38   S    
C76   O6    A    
Cr5   O37   S    
C69   O42   A    
Cr9   O19   S    
Cr3   O3    S    
Cr11  O48   S    
Cr11  O51   S    
C7    H25   S    
C52   C57   A    
C6    H24   S    
C23   O16   A    
Cr12  O27   S    
Cr1   O36   S    
C48   C52   A    
C83   C86   D    
C20   C21   A    
C52   H4    S    
C16   C91   A    
C51   H3    S    
Cr5   O10   S    
C81   H9    S    
C2    C23   S    
C69   O47   A    
Cr10  O25   S    
C15   C63   S    
C91   H16   S    
C72   O49   A    
C33   C38   A    
C2    C56   A    
C28   H37   S    
C16   C64   S    
C32   C59   A    
C48   C66   S    
C37   C46   A    
C92   H17   S    
C78   H21   S    
C59   C76   S    
C38   H46   S    
Cr7   O34   S    
Cr6   O16   S    
C24   C71   S    
C39   C48   A    
Cr7   O13   S    
