data_mof_unit_34629.cif
_audit_creation_date              2012-12-10T20:28:39-0500
_audit_creation_method            fapswitch 2.2
_symmetry_space_group_name_H-M    P1
_symmetry_Int_Tables_number       1
_space_group_crystal_system       triclinic
_cell_length_a                    10.883399
_cell_length_b                    10.942216
_cell_length_c                    9.93534
_cell_angle_alpha                 88.993849
_cell_angle_beta                  90.422804
_cell_angle_gamma                 91.521687
_cell_volume                      1182.556858

loop_
_atom_site_label
_atom_site_type_symbol
_atom_type_description
_atom_site_fract_x
_atom_site_fract_y
_atom_site_fract_z
_atom_type_partial_charge
C1    C     C_R   0.502350 0.259988 0.501135 0.914978
C2    C     C_R   0.064915 0.536472 0.618093 0.101710
C3    C     C_R   0.129987 0.538639 0.496880 -0.220656
C4    C     C_R   0.065306 0.538924 0.373986 -0.081143
C5    C     C_R   0.938325 0.518694 0.373099 -0.074699
C6    C     C_R   0.875809 0.493088 0.496421 -0.204650
C7    C     C_R   0.463268 0.058702 0.616605 0.009566
C8    C     C_R   0.498998 0.127140 0.500992 -0.174526
C9    C     C_R   0.515713 0.064290 0.378061 -0.112456
C10   C     C_R   0.483851 0.939501 0.374249 -0.124640
C11   C     C_R   0.486332 0.870957 0.495161 -0.163348
C12   C     C_R   0.261775 0.515330 0.499159 0.889824
C13   C     C_R   0.477190 0.933535 0.614441 0.050238
C14   C     C_3   0.548753 0.927423 0.743249 -0.150261
C15   C     C_3   0.507683 0.059295 0.761641 -0.148902
C16   C     C_R   0.400566 0.456086 0.070497 0.217467
C17   C     C_R   0.590189 0.558030 0.072259 -0.058664
C18   C     C_R   0.592843 0.554834 0.929103 0.015503
C19   C     C_R   0.397620 0.462969 0.928402 0.138133
C20   C     C_3   0.337549 0.341983 0.917113 -0.450410
C21   C     C_3   0.351539 0.327412 0.068697 -0.427418
C22   C     C_R   0.496752 0.739513 0.498597 0.887319
C23   C     C_R   0.740701 0.494070 0.499732 0.902324
C24   C     C_R   0.117194 0.576491 0.740220 -0.138610
C25   C     C_R   0.061931 0.544283 0.861358 -0.125461
C26   C     C_R   0.958138 0.467292 0.862068 -0.125972
C27   C     C_R   0.898344 0.441084 0.740879 -0.141214
C28   C     C_R   0.944370 0.489196 0.618121 0.097014
H1    H     H_    0.659760 0.608198 0.127298 0.181312
H2    H     H_    0.240645 0.347836 0.882143 0.227455
H3    H     H_    0.396286 0.285479 0.855857 0.220046
H4    H     H_    0.262927 0.312770 0.121180 0.255900
H5    H     H_    0.422412 0.260996 0.098523 0.225109
H6    H     H_    0.200042 0.633220 0.742434 0.196327
H7    H     H_    0.102159 0.577322 0.953112 0.194471
H8    H     H_    0.920021 0.433456 0.955912 0.205387
H9    H     H_    0.816030 0.385211 0.744398 0.185648
N1    N     N_R   0.499160 0.499140 0.142800 -0.126667
N2    N     N_R   0.499160 0.499180 0.857150 -0.135538
O1    O     O_R   0.500020 0.316790 0.614690 -0.631679
O2    O     O_R   0.500000 0.316760 0.385350 -0.601025
O3    O     O_R   0.316770 0.500020 0.614690 -0.624569
O4    O     O_R   0.316760 0.499980 0.385350 -0.609352
O5    O     O_R   0.500000 0.683240 0.614650 -0.603916
O6    O     O_R   0.499980 0.683210 0.385310 -0.623239
O7    O     O_R   0.683240 0.500020 0.614650 -0.636354
O8    O     O_R   0.683230 0.499980 0.385310 -0.588492
Zn1   Zn    Zn3+2 0.500010 0.500020 0.653130 0.975727
Zn2   Zn    Zn3+2 0.499990 0.499980 0.346870 1.024673
C29   C     C_2   0.129043 0.557303 0.243934 0.983664
O9    O     O_2   0.124453 0.475609 0.162013 -0.695599
O10   O     O_R   0.194369 0.666261 0.216521 -0.771279
H10   H     H_    0.233569 0.666634 0.124366 0.320751
C30   C     C_1   0.681626 0.916973 0.714215 0.205493
N3    N     N_1   0.785200 0.911128 0.690234 -0.147286
C31   C     C_1   0.401432 0.064502 0.853759 0.229624
N4    N     N_1   0.317978 0.064706 0.925373 -0.150189
C32   C     C_1   0.605800 0.148435 0.796647 0.220269
N5    N     N_1   0.682848 0.217654 0.826265 -0.212902
C33   C     C_1   0.692168 0.617669 0.861437 0.252744
N6    N     N_1   0.772518 0.670079 0.808891 -0.176054
C34   C     C_2   0.876917 0.525634 0.239501 0.941603
O11   O     O_2   0.827244 0.434480 0.191796 -0.588293
O12   O     O_R   0.888090 0.634390 0.163945 -0.806170
H11   H     H_    0.860710 0.624812 0.067268 0.326082
C35   C     C_2   0.591541 0.117217 0.265557 0.948746
O13   O     O_2   0.678225 0.186985 0.290223 -0.567543
O14   O     O_R   0.570716 0.080560 0.133279 -0.811908
H12   H     H_    0.633784 0.117519 0.069164 0.358584
C36   C     C_1   0.437719 0.887254 0.251039 0.410122
N7    N     N_1   0.397544 0.846019 0.153485 -0.132959
C37   C     C_2   0.503683 0.837450 0.849625 0.960473
O15   O     O_2   0.562787 0.826951 0.954001 -0.632054
O16   O     O_R   0.391048 0.774611 0.834087 -0.796279
H13   H     H_    0.368907 0.721626 0.915365 0.318089

loop_
_geom_bond_atom_site_label_1
_geom_bond_atom_site_label_2
_ccdc_geom_bond_type
C35   O14   S    
C16   C21   S    
C6    C28   A    
C1    C8    S    
C17   H1    S    
C19   C20   S    
C7    C8    A    
O8    Zn2   S    
N1    Zn2   S    
C20   H2    S    
C26   C27   A    
C12   O4    A    
C5    C6    A    
C21   H5    S    
C26   H8    S    
C31   N4    T    
C9    C35   S    
C12   O3    A    
C3    C12   S    
C1    O1    A    
O14   H12   S    
C22   O5    A    
C8    C9    A    
C29   O10   S    
C36   N7    T    
C9    C10   A    
C34   O12   S    
C37   O15   D    
C7    C15   S    
C35   O13   D    
C23   O7    A    
C13   C14   S    
O2    Zn2   S    
C29   O9    D    
C21   H4    S    
O7    Zn1   S    
C23   O8    A    
O16   H13   S    
C24   C25   A    
C37   O16   S    
O4    Zn2   S    
C32   N5    T    
C24   H6    S    
C4    C29   S    
C33   N6    T    
C18   N2    A    
C34   O11   D    
O6    Zn2   S    
C17   C18   A    
O3    Zn1   S    
C19   N2    A    
C25   H7    S    
C10   C36   S    
C1    O2    A    
C14   C30   S    
C2    C24   A    
C15   C32   S    
C3    C4    A    
O10   H10   S    
C18   C33   S    
O1    Zn1   S    
C30   N3    T    
C14   C37   S    
C4    C5    A    
C11   C22   S    
C15   C31   S    
C2    C3    A    
C25   C26   A    
O12   H11   S    
C11   C13   A    
C27   H9    S    
C16   C19   A    
C6    C23   S    
C5    C34   S    
C17   N1    A    
C10   C11   A    
C7    C13   A    
C22   O6    A    
C20   C21   S    
C27   C28   A    
C14   C15   S    
C2    C28   A    
O5    Zn1   S    
C16   N1    A    
N2    Zn1   S    
C20   H3    S    
