data_mof_unit_32066.cif
_audit_creation_date              2012-12-11T15:29:20-0500
_audit_creation_method            fapswitch 2.2
_symmetry_space_group_name_H-M    P1
_symmetry_Int_Tables_number       1
_space_group_crystal_system       triclinic
_cell_length_a                    13.545348
_cell_length_b                    13.569904
_cell_length_c                    27.519912
_cell_angle_alpha                 90.514421
_cell_angle_beta                  90.252861
_cell_angle_gamma                 60.030774
_cell_volume                      4381.89230678

loop_
_atom_site_label
_atom_site_type_symbol
_atom_type_description
_atom_site_fract_x
_atom_site_fract_y
_atom_site_fract_z
_atom_type_partial_charge
C1    C     C_R   0.620371 0.100914 0.569961 0.540531
C2    C     C_1   0.664160 0.670696 0.651621 -0.066588
C3    C     C_3   0.102847 0.135981 0.737862 -0.083256
C4    C     C_R   0.600949 0.776926 0.567695 0.543459
C5    C     C_3   0.190616 0.065165 0.777374 0.193265
C6    C     C_1   0.099516 0.201766 0.900825 -0.015574
C7    C     C_1   0.234094 0.136426 0.617220 -0.023594
C8    C     C_3   0.070355 0.245204 0.767980 -0.117121
C9    C     C_3   0.157791 0.172488 0.807242 0.027498
C10   C     C_3   0.164024 0.258918 0.742022 -0.148299
C11   C     C_3   0.196082 0.150056 0.712285 0.035022
C12   C     C_1   0.640169 0.713462 0.611943 -0.026204
C13   C     C_3   0.251682 0.186400 0.782019 -0.129266
C14   C     C_3   0.283072 0.078438 0.751636 0.186089
C15   C     C_1   0.130401 0.185177 0.859124 -0.055644
C16   C     C_R   0.277975 0.121644 0.569114 0.540897
C17   C     C_1   0.211735 0.144068 0.659726 -0.066689
C18   C     C_3   0.614507 0.293472 0.737289 -0.122116
C19   C     C_3   0.549238 0.264069 0.775764 0.237089
C20   C     C_1   0.686755 0.209425 0.902675 -0.000313
C21   C     C_1   0.636571 0.134855 0.617596 -0.013510
C22   C     C_3   0.722912 0.231031 0.769462 0.240800
C23   C     C_3   0.635328 0.565276 0.763024 -0.091960
C24   C     C_3   0.656525 0.203409 0.807615 0.049468
C25   C     C_3   0.756189 0.118485 0.743352 0.178815
C26   C     C_3   0.648442 0.178281 0.711713 -0.055139
C27   C     C_3   0.689922 0.091552 0.780878 0.268999
C28   C     C_R   0.622438 0.100242 0.432123 0.529444
C29   C     C_3   0.580416 0.150779 0.749729 -0.134520
C30   C     C_1   0.666633 0.205621 0.860421 0.012505
C31   C     C_1   0.644062 0.157577 0.659468 -0.049117
C32   C     C_R   0.618147 0.753292 0.377771 0.026375
C33   C     C_R   0.727509 0.693175 0.357709 -0.132845
C34   C     C_3   0.694805 0.609173 0.797651 0.046115
C35   C     C_R   0.740552 0.684258 0.307229 -0.120072
C36   C     C_R   0.644605 0.740854 0.276641 0.027790
C37   C     C_R   0.536493 0.805770 0.297582 -0.143635
C38   C     C_R   0.523115 0.807772 0.347244 -0.136024
C39   C     C_R   0.564448 0.721484 0.198025 -0.130397
C40   C     C_R   0.598978 0.781183 0.429293 0.530699
C41   C     C_R   0.578885 0.684050 0.150407 -0.133486
C42   C     C_R   0.770455 0.655128 0.150876 -0.118902
C43   C     C_R   0.754937 0.695649 0.198568 -0.120043
C44   C     C_R   0.654021 0.722837 0.223505 0.034990
C45   C     C_3   0.578784 0.681332 0.737058 -0.102879
C46   C     C_R   0.684371 0.643393 0.127603 0.028466
C47   C     C_R   0.238472 0.133147 0.382373 0.044120
C48   C     C_R   0.123340 0.185274 0.369610 -0.139618
C49   C     C_R   0.093499 0.198954 0.320470 -0.122351
C50   C     C_R   0.179193 0.160858 0.284916 0.025822
C51   C     C_R   0.293860 0.106143 0.298185 -0.125613
C52   C     C_R   0.276574 0.121385 0.432048 0.529254
C53   C     C_R   0.323018 0.093626 0.346724 -0.121211
C54   C     C_R   0.181140 0.249712 0.206410 0.176361
C55   C     C_R   0.157660 0.263337 0.156348 0.167041
C56   C     C_3   0.681662 0.636339 0.702747 0.041739
C57   C     C_R   0.078534 0.136900 0.161808 -0.173592
C58   C     C_R   0.101937 0.123627 0.211042 -0.171706
C59   C     C_R   0.150723 0.181245 0.233615 0.002267
C60   C     C_R   0.102276 0.209317 0.134239 -0.003933
C61   C     C_R   0.633479 0.124707 0.382229 0.047591
C62   C     C_R   0.652316 0.213101 0.369166 -0.140675
C63   C     C_R   0.656648 0.235021 0.320024 -0.115451
C64   C     C_3   0.738491 0.519878 0.727686 -0.080623
C65   C     C_R   0.635786 0.172658 0.284331 0.021818
C66   C     C_R   0.615762 0.085121 0.298215 -0.141146
C67   C     C_3   0.638192 0.724454 0.772247 -0.100920
C68   C     C_R   0.617679 0.059528 0.346764 -0.111606
C69   C     C_R   0.711068 0.094959 0.203359 -0.139408
C70   C     C_R   0.731372 0.105579 0.154466 0.267880
C71   C     C_R   0.606185 0.310546 0.162161 -0.146238
C72   C     C_R   0.588353 0.300466 0.211406 0.123480
C73   C     C_R   0.643964 0.191082 0.232369 -0.017496
C74   C     C_R   0.680586 0.215022 0.134223 0.003718
C75   C     C_R   0.049578 0.235409 0.948098 0.540812
C76   C     C_3   0.798284 0.562926 0.763379 -0.101262
C77   C     C_R   0.713588 0.557329 0.945068 0.546840
C78   C     C_3   0.741337 0.678951 0.737396 -0.115239
C79   C     C_R   0.721110 0.223938 0.949914 0.540541
C80   C     C_R   0.048040 0.243858 0.086352 0.540194
C81   C     C_R   0.708668 0.573415 0.083778 0.544912
C82   C     C_R   0.719737 0.232800 0.087261 0.568426
C83   C     C_1   0.704371 0.587316 0.894539 -0.017048
C84   C     C_3   0.361288 0.389495 0.758227 -0.125799
C85   C     C_3   0.745020 0.902608 0.776621 -0.131763
C86   C     C_3   0.956638 0.985958 0.760790 -0.282057
C87   C     C_3   0.796720 0.313045 0.822059 -0.128623
C88   C     C_3   0.349180 0.269864 0.217971 -0.277134
C89   C     C_1   0.699658 0.599864 0.850987 -0.070595
C90   C     C_3   0.126868 0.452682 0.136766 -0.256918
C91   C     C_3   0.899749 0.933843 0.146348 -0.105949
C92   C     C_3   0.535500 0.490418 0.241543 -0.305515
C93   C     C_3   0.263609 0.859555 0.771122 -0.309694
C94   C     C_3   0.449283 0.968915 0.697957 -0.311520
Cr1   Cr    Cr6+3 0.417550 0.169090 0.500530 1.025122
Cr2   Cr    Cr6+3 0.669180 0.913420 0.499920 1.024736
Cr3   Cr    Cr6+3 0.413260 0.917540 0.499520 1.018686
Cr4   Cr    Cr6+3 0.909770 0.175810 0.018240 1.037798
Cr5   Cr    Cr6+3 0.913300 0.427650 0.016090 1.017542
Cr6   Cr    Cr6+3 0.657770 0.431010 0.016900 1.022647
H1    H     H_    0.888736 0.516507 0.775023 0.096917
H2    H     H_    0.510236 0.677814 0.133053 0.129039
H3    H     H_    0.825185 0.631789 0.292446 0.104261
H4    H     H_    0.823890 0.700124 0.216485 0.093313
H5    H     H_    0.851999 0.626484 0.133481 0.117059
H6    H     H_    0.461100 0.854894 0.275770 0.105235
H7    H     H_    0.437877 0.857656 0.361913 0.143096
H8    H     H_    0.057741 0.216429 0.397275 0.101588
H9    H     H_    0.787964 0.721014 0.724036 0.091014
H10   H     H_    0.004450 0.241313 0.310138 0.111912
H11   H     H_    0.081213 0.068782 0.231742 0.120497
H12   H     H_    0.312881 0.206391 0.800289 0.143175
H13   H     H_    0.035965 0.094766 0.145940 0.143820
H14   H     H_    0.360426 0.075440 0.270933 0.115825
H15   H     H_    0.411816 0.054008 0.356762 0.105624
H16   H     H_    0.665156 0.263220 0.396657 0.101469
H17   H     H_    0.750026 0.011163 0.219273 0.112825
H18   H     H_    0.676621 0.299901 0.309915 0.121821
H19   H     H_    0.596495 0.805964 0.792597 0.114817
H20   H     H_    0.564500 0.394112 0.145928 0.146839
H21   H     H_    0.599707 0.035740 0.271440 0.108316
H22   H     H_    0.604904 0.989717 0.356868 0.118661
H23   H     H_    0.152037 0.339828 0.726993 0.106539
H24   H     H_    0.490098 0.728015 0.723404 0.113362
H25   H     H_    0.589884 0.520201 0.774282 0.121466
H26   H     H_    0.042854 0.116019 0.718685 0.124189
H27   H     H_    0.358476 0.324159 0.734460 0.113211
H28   H     H_    0.378796 0.447476 0.736302 0.113455
H29   H     H_    0.275541 0.441212 0.774650 0.139442
H30   H     H_    0.807525 0.886621 0.747320 0.142728
H31   H     H_    0.662509 0.920929 0.760458 0.107976
H32   H     H_    0.778812 0.824032 0.798451 0.147655
H33   H     H_    0.891260 0.072738 0.696017 0.255466
H34   H     H_    0.983191 0.316615 0.773427 0.135863
H35   H     H_    0.038377 0.927927 0.742434 0.140092
H36   H     H_    0.937431 0.934568 0.785979 0.188058
H37   H     H_    0.965653 0.050762 0.782160 0.199627
H38   H     H_    0.840003 0.363669 0.822767 0.131839
H39   H     H_    0.843625 0.241578 0.847641 0.134094
H40   H     H_    0.707822 0.371685 0.834264 0.125806
H41   H     H_    0.208604 0.333765 0.265066 0.253458
H42   H     H_    0.400906 0.242194 0.251690 0.135489
H43   H     H_    0.355769 0.340855 0.201797 0.189239
H44   H     H_    0.384981 0.197204 0.191825 0.159064
H45   H     H_    0.583663 0.376267 0.718942 0.105978
H46   H     H_    0.217685 0.304682 0.093653 0.257279
H47   H     H_    0.077664 0.495615 0.103596 0.142728
H48   H     H_    0.186936 0.483940 0.144674 0.143291
H49   H     H_    0.066274 0.476512 0.167669 0.152998
H50   H     H_    0.889757 0.875269 0.171137 0.104331
H51   H     H_    0.939584 0.977702 0.165730 0.096758
H52   H     H_    0.959407 0.880998 0.117126 0.141225
H53   H     H_    0.477859 0.385643 0.269870 0.258653
H54   H     H_    0.470450 0.560681 0.264324 0.140857
H55   H     H_    0.533743 0.525128 0.205073 0.154240
H56   H     H_    0.520319 0.119720 0.742095 0.107898
H57   H     H_    0.620659 0.459642 0.258218 0.147090
H58   H     H_    0.223786 0.953547 0.835118 0.258248
H59   H     H_    0.237268 0.797888 0.782610 0.138504
H60   H     H_    0.355698 0.822116 0.778720 0.166063
H61   H     H_    0.246783 0.875380 0.731567 0.154516
H62   H     H_    0.451924 0.984804 0.773435 0.243147
H63   H     H_    0.540834 0.903497 0.699418 0.137101
H64   H     H_    0.442228 0.048755 0.684069 0.144976
H65   H     H_    0.406752 0.937483 0.672752 0.170820
H66   H     H_    0.801909 0.652983 0.380933 0.113802
H67   H     H_    0.779663 0.436188 0.708741 0.146306
H68   H     H_    0.485669 0.740052 0.215536 0.098351
N1    N     N_2   0.868273 0.039738 0.724557 -0.522377
N2    N     N_2   0.230955 0.309093 0.229385 -0.517078
N3    N     N_2   0.190994 0.330604 0.128861 -0.494856
N4    N     N_2   0.509450 0.399267 0.238224 -0.534734
N5    N     N_2   0.201226 0.963290 0.798919 -0.531127
N6    N     N_2   0.399490 0.986570 0.745840 -0.536105
O1    O     O_R   0.301780 0.195490 0.553940 -0.508196
O2    O     O_R   0.636050 0.541380 0.962520 -0.504564
O3    O     O_R   0.666480 0.323610 0.968170 -0.497365
O4    O     O_R   0.522450 0.158840 0.550250 -0.497147
O5    O     O_R   0.817280 0.156800 0.072180 -0.464395
O6    O     O_R   0.005110 0.187160 0.067410 -0.508471
O7    O     O_R   0.026450 0.340060 0.069950 -0.512758
O8    O     O_R   0.808300 0.527240 0.065170 -0.502683
O9    O     O_R   0.634070 0.548770 0.069460 -0.524059
O10   O     O_R   0.664650 0.330470 0.067300 -0.518632
O11   O     O_3   0.826940 0.344820 0.017080 -0.256648
O12   O     O_R   0.658840 0.818280 0.449970 -0.500870
O13   O     O_R   0.694460 0.003360 0.553820 -0.504820
O14   O     O_R   0.657750 0.819520 0.549120 -0.492803
O15   O     O_R   0.501990 0.803120 0.552700 -0.507981
O16   O     O_R   0.318230 0.023430 0.549370 -0.497471
O17   O     O_R   0.302950 0.194150 0.446980 -0.505923
O18   O     O_R   0.523540 0.157600 0.451100 -0.496703
O19   O     O_R   0.695630 0.002030 0.446860 -0.511431
O20   O     O_3   0.441649 0.339886 0.795911 -0.557582
O21   O     O_3   0.730666 0.990909 0.807765 -0.566134
O22   O     O_3   0.801208 0.270763 0.774725 -0.595848
O23   O     O_R   0.503160 0.801780 0.445740 -0.517826
O24   O     O_3   0.794161 0.010748 0.124871 -0.537364
O25   O     O_R   0.319320 0.022190 0.450230 -0.504811
O26   O     O_3   0.499990 0.000010 0.499990 -0.254046
O27   O     O_R   0.819250 0.149410 0.965240 -0.499289
O28   O     O_R   0.006940 0.180310 0.968270 -0.497759
O29   O     O_R   0.028420 0.332670 0.963010 -0.507329
O30   O     O_R   0.810130 0.520390 0.966030 -0.492990

loop_
_geom_bond_atom_site_label_1
_geom_bond_atom_site_label_2
_ccdc_geom_bond_type
C84   H28   S    
C66   C68   A    
C63   C65   A    
C1    C21   S    
C23   C45   S    
Cr5   O30   S    
C27   C29   S    
C86   N1    S    
Cr2   O14   S    
Cr4   O27   S    
C33   H66   S    
C18   C26   S    
C24   C27   S    
C87   H40   S    
C65   C66   A    
C18   H45   S    
C2    C12   T    
C3    H26   S    
C56   C78   S    
C6    C75   S    
C39   C41   A    
C20   C30   T    
C62   H16   S    
C21   C31   T    
C37   C38   A    
C71   H20   S    
C50   C59   S    
C80   O6    A    
C36   C37   A    
C76   C78   S    
C87   O22   S    
C13   H12   S    
C35   H3    S    
C85   H32   S    
C91   H52   S    
C11   C14   S    
C40   O12   A    
C40   O23   A    
C77   C83   S    
C82   O10   A    
C84   H29   S    
C39   H68   S    
C65   C73   S    
C41   H2    S    
C8    C9    S    
C18   C19   S    
C42   C46   A    
C55   N3    S    
C38   H7    S    
C93   H59   S    
Cr6   O9    S    
C9    C13   S    
C43   H4    S    
Cr5   O8    S    
C90   H48   S    
Cr1   O4    S    
C86   H37   S    
C6    C15   T    
C91   O24   S    
C60   C80   S    
C35   C36   A    
C45   C56   S    
C84   O20   S    
Cr1   O26   S    
C7    C17   T    
C22   C25   S    
C90   N3    S    
C45   C67   S    
C41   C46   A    
C56   C64   S    
C69   C73   A    
C26   C29   S    
C32   C38   A    
C4    C12   S    
C88   H43   S    
Cr1   O17   S    
C47   C53   A    
C55   C60   A    
C28   C61   S    
C84   H27   S    
Cr3   O15   S    
C26   C31   S    
C70   O24   S    
C13   C14   S    
Cr2   O13   S    
C22   O22   S    
C61   C62   A    
C67   C78   S    
C81   O8    A    
C74   C82   S    
C90   H49   S    
Cr6   O3    S    
C28   O18   A    
C94   H65   S    
C88   H42   S    
C75   O28   A    
C50   C51   A    
C70   C74   A    
C54   C59   A    
C1    O13   A    
C45   H24   S    
C83   C89   T    
C51   H14   S    
C88   N2    S    
C8    H34   S    
C58   H11   S    
Cr2   O12   S    
C10   H23   S    
C68   H22   S    
C63   H18   S    
C75   O29   A    
C85   O21   S    
C57   C60   A    
C57   H13   S    
C79   O27   A    
C25   C26   S    
C92   H57   S    
C51   C53   A    
C52   O17   A    
C82   O5    A    
C93   H60   S    
C43   C44   A    
C5    C9    S    
C62   C63   A    
Cr3   O23   S    
C85   H30   S    
C91   H50   S    
C46   C81   S    
C1    O4    A    
H58   N5    S    
C47   C48   A    
C93   H61   S    
C23   C34   S    
C79   O3    A    
C28   O19   A    
C64   C76   S    
C66   H21   S    
Cr3   O25   S    
C52   O25   A    
C80   O7    A    
C92   H55   S    
C5    C14   S    
C39   C44   A    
C16   O16   A    
Cr1   O18   S    
C94   N6    S    
C29   H56   S    
C16   O1    A    
C86   H36   S    
Cr3   O16   S    
C3    C8    S    
C77   O2    A    
C22   C24   S    
C36   C44   S    
C27   O21   S    
C42   C43   A    
C81   O9    A    
C87   H38   S    
Cr4   O6    S    
C19   C29   S    
C77   O30   A    
C94   H64   S    
Cr5   O11   S    
H33   N1    S    
C25   N1    S    
C76   H1    S    
Cr2   O26   S    
C54   C55   A    
C11   C17   S    
C20   C79   S    
Cr5   O29   S    
C18   C22   S    
C5    N5    S    
C4    O15   A    
Cr4   O28   S    
C7    C16   S    
C87   H39   S    
C72   C73   A    
C3    C5    S    
C10   C13   S    
C34   C67   S    
C71   C74   A    
C47   C52   S    
H62   N6    S    
C25   C27   S    
Cr4   O11   S    
C23   H25   S    
Cr6   O2    S    
C4    O14   A    
C34   C89   S    
Cr6   O11   S    
C58   C59   A    
C23   C64   S    
C71   C72   A    
C14   N6    S    
C2    C56   S    
Cr1   O1    S    
C32   C33   A    
C90   H47   S    
C91   H51   S    
C69   H17   S    
C61   C68   A    
Cr3   O26   S    
C57   C58   A    
C48   H8    S    
C92   N4    S    
C48   C49   A    
H53   N4    S    
C93   N5    S    
H41   N2    S    
C33   C35   A    
C88   H44   S    
C19   C24   S    
C78   H9    S    
C32   C40   S    
C9    C15   S    
C69   C70   A    
Cr6   O10   S    
C42   H5    S    
C24   C30   S    
Cr5   O7    S    
C3    C11   S    
C10   C11   S    
C64   H67   S    
Cr2   O19   S    
C86   H35   S    
C37   H6    S    
C19   O20   S    
C8    C10   S    
C49   C50   A    
C54   N2    S    
C92   H54   S    
Cr4   O5    S    
H46   N3    S    
C67   H19   S    
C94   H63   S    
C72   N4    S    
C85   H31   S    
C53   H15   S    
C34   C76   S    
C49   H10   S    
