data_mof_unit_51808.cif
_audit_creation_date              2012-12-11T18:09:11-0500
_audit_creation_method            fapswitch 2.2
_symmetry_space_group_name_H-M    P1
_symmetry_Int_Tables_number       1
_space_group_crystal_system       triclinic
_cell_length_a                    8.326368
_cell_length_b                    12.965893
_cell_length_c                    18.973044
_cell_angle_alpha                 99.317748
_cell_angle_beta                  91.000148
_cell_angle_gamma                 99.294554
_cell_volume                      1992.74297322

loop_
_atom_site_label
_atom_site_type_symbol
_atom_type_description
_atom_site_fract_x
_atom_site_fract_y
_atom_site_fract_z
_atom_type_partial_charge
Ba1   Ba    Ba6+2 0.853180 0.547790 0.465300 1.708046
Ba2   Ba    Ba6+2 0.336650 0.452300 0.534710 1.687657
C1    C     C_3   0.689269 0.880346 0.221625 -0.408251
C2    C     C_3   0.668336 0.796500 0.269665 0.482584
C3    C     C_3   0.470839 0.274456 0.316310 0.339674
C4    C     C_3   0.483962 0.244262 0.235941 -0.381849
C5    C     C_3   0.028378 0.213592 0.729490 0.346538
C6    C     C_3   0.053344 0.180966 0.801891 -0.359135
C7    C     C_3   0.506423 0.191475 0.728514 0.322880
C8    C     C_3   0.527290 0.131865 0.790054 -0.397002
C9    C     C_R   0.057898 0.555242 0.800633 -0.152786
C10   C     C_R   0.017113 0.543272 0.726621 0.047419
C11   C     C_R   0.846474 0.407677 0.808972 -0.169954
C12   C     C_3   0.213859 0.815356 0.233937 0.457291
C13   C     C_R   0.780089 0.420563 0.743469 -0.001787
C14   C     C_R   0.359150 0.561287 0.182345 -0.122835
C15   C     C_R   0.430346 0.538511 0.243967 0.067592
C16   C     C_R   0.126863 0.430030 0.194386 -0.151293
C17   C     C_R   0.175366 0.439321 0.267526 0.054921
C18   C     C_R   0.979991 0.481398 0.843306 0.004203
C19   C     C_R   0.873574 0.478754 0.699731 -0.230771
C20   C     C_R   0.215826 0.496808 0.149365 -0.000519
C21   C     C_R   0.334596 0.482788 0.288516 -0.178046
C22   C     C_R   0.760060 0.424686 0.963921 -0.081576
C23   C     C_3   0.136496 0.859588 0.174402 0.314259
C24   C     C_R   0.660194 0.393902 0.017314 -0.085033
C25   C     C_R   0.714397 0.425529 0.087761 -0.068566
C26   C     C_R   0.872789 0.478308 0.103118 -0.073909
C27   C     C_R   0.989114 0.478298 0.050483 0.011219
C28   C     C_R   0.930006 0.460716 0.977165 0.040593
C29   C     C_R   0.158348 0.501440 0.071286 -0.022084
C30   C     C_R   0.267631 0.523382 0.015485 0.035672
C31   C     C_R   0.208528 0.508198 0.942120 0.012740
C32   C     C_R   0.039056 0.481200 0.921384 -0.013671
C33   C     C_R   0.437267 0.560333 0.028797 -0.084848
C34   C     C_3   0.324210 0.798754 0.688322 0.432029
C35   C     C_R   0.536935 0.595365 0.976818 -0.079524
C36   C     C_R   0.482860 0.569624 0.906439 -0.034613
C37   C     C_R   0.325181 0.516047 0.889471 -0.060521
C38   C     C_R   0.744057 0.180317 0.532987 -0.276477
C39   C     C_R   0.442171 0.801687 0.469251 -0.212260
C40   C     C_R   0.405100 0.967694 0.434454 0.069848
C41   C     C_R   0.363109 0.856889 0.427617 0.009767
C42   C     C_R   0.576295 0.849197 0.512775 0.030070
C43   C     C_R   0.632154 0.960712 0.519035 -0.062530
C44   C     C_R   0.542996 0.023311 0.481127 -0.031542
C45   C     C_3   0.344524 0.904598 0.661815 -0.346643
C46   C     C_R   0.602899 0.135899 0.490447 0.061724
C47   C     C_R   0.839764 0.117688 0.561290 -0.019255
C48   C     C_R   0.780400 0.009264 0.557532 -0.103499
C49   C     C_3   0.943967 0.223711 0.387669 0.311409
C50   C     C_3   0.866515 0.108996 0.369956 -0.398797
C51   C     C_3   0.735444 0.701828 0.677562 0.299815
C52   C     C_3   0.790892 0.738288 0.755819 -0.388273
H1    H     H_    0.265997 0.956837 0.691362 0.154945
H2    H     H_    0.473718 0.943813 0.669139 0.073077
H3    H     H_    0.308561 0.892063 0.604050 0.086716
H4    H     H_    0.854146 0.270635 0.413010 0.007139
H5    H     H_    0.050268 0.231576 0.425348 0.092665
H6    H     H_    0.738106 0.099629 0.351386 0.131763
H7    H     H_    0.875515 0.072808 0.418298 0.106286
H8    H     H_    0.929286 0.066832 0.326008 0.205374
H9    H     H_    0.833368 0.666975 0.648713 0.039368
H10   H     H_    0.624575 0.640778 0.674245 0.080729
H11   H     H_    0.634937 0.949818 0.245964 0.095237
H12   H     H_    0.915301 0.785671 0.760006 0.149245
H13   H     H_    0.791246 0.668972 0.783138 0.063148
H14   H     H_    0.707244 0.787970 0.783605 0.163476
H15   H     H_    0.537802 0.781038 0.279746 -0.016510
H16   H     H_    0.627343 0.847551 0.168531 0.095990
H17   H     H_    0.342678 0.282048 0.327922 0.013990
H18   H     H_    0.553228 0.351010 0.333937 0.050812
H19   H     H_    0.412373 0.164302 0.216811 0.149888
H20   H     H_    0.436743 0.302368 0.207623 0.034367
H21   H     H_    0.613434 0.243237 0.223082 0.124578
H22   H     H_    0.819690 0.907021 0.214681 0.177718
H23   H     H_    0.217351 0.853216 0.128164 -0.073705
H24   H     H_    0.082965 0.298505 0.732870 0.055833
H25   H     H_    0.895346 0.202427 0.717180 -0.062521
H26   H     H_    0.184400 0.198155 0.818637 0.143290
H27   H     H_    0.986197 0.225823 0.842896 0.066749
H28   H     H_    0.007797 0.094913 0.798868 0.129804
H29   H     H_    0.624708 0.203150 0.702186 -0.069306
H30   H     H_    0.417207 0.141354 0.687933 0.091980
H31   H     H_    0.599587 0.185219 0.835220 0.115935
H32   H     H_    0.592434 0.064649 0.772259 0.111269
H33   H     H_    0.235950 0.735817 0.210177 -0.063320
H34   H     H_    0.406614 0.100514 0.808916 0.144621
H35   H     H_    0.155730 0.617652 0.823082 0.108612
H36   H     H_    0.791476 0.340546 0.831909 0.055370
H37   H     H_    0.414544 0.631769 0.162971 0.045916
H38   H     H_    0.017535 0.375019 0.175109 0.070355
H39   H     H_    0.828754 0.478846 0.645875 0.055653
H40   H     H_    0.380534 0.481158 0.341974 0.033686
H41   H     H_    0.694953 0.425520 0.915249 0.075291
H42   H     H_    0.533498 0.359594 0.004667 0.078695
H43   H     H_    0.630011 0.415781 0.129750 0.083416
H44   H     H_    0.331109 0.867897 0.252093 -0.017731
H45   H     H_    0.906960 0.518420 0.156422 0.138323
H46   H     H_    0.504194 0.556638 0.075999 0.073388
H47   H     H_    0.663480 0.629550 0.990127 0.079316
H48   H     H_    0.567739 0.585647 0.865699 0.109152
H49   H     H_    0.293354 0.481361 0.834848 0.127803
H50   H     H_    0.854747 0.962924 0.582269 0.111212
H51   H     H_    0.789739 0.264383 0.538070 0.039678
H52   H     H_    0.402389 0.716983 0.464351 0.089846
H53   H     H_    0.015716 0.809958 0.157808 0.036651
H54   H     H_    0.414310 0.754183 0.661755 0.053764
O1    O     O_2   0.875110 0.423180 0.326290 -0.446239
O2    O     O_3   0.701251 0.789180 0.648784 -0.639108
O3    O     O_3   0.108463 0.806727 0.290872 -0.536804
O4    O     O_2   0.314600 0.576860 0.673750 -0.473808
O5    O     O_3   0.066300 0.567050 0.585060 -0.473672
O6    O     O_3   0.528700 0.375020 0.630330 -0.461657
O7    O     O_3   0.164959 0.746342 0.670075 -0.622280
O8    O     O_3   0.611760 0.365720 0.463870 -0.494592
O9    O     O_3   0.107460 0.315620 0.594570 -0.484417
O10   O     O_2   0.172201 0.123282 0.545117 -0.454081
O11   O     O_3   0.104279 0.150482 0.677578 -0.591849
O12   O     O_3   0.123410 0.433040 0.414950 -0.502731
O13   O     O_3   0.577950 0.634370 0.536140 -0.497550
O14   O     O_2   0.341900 0.231310 0.465740 -0.437309
O15   O     O_3   0.516900 0.194254 0.349376 -0.622931
O16   O     O_2   0.487112 0.490247 0.748850 -0.500270
O17   O     O_3   0.446562 0.285686 0.754504 -0.588967
O18   O     O_3   0.661010 0.625070 0.369680 -0.441616
O19   O     O_2   0.741628 0.513805 0.251350 -0.499121
O20   O     O_3   0.995194 0.255327 0.324048 -0.640530
O21   O     O_3   0.724721 0.705263 0.236317 -0.586031
O22   O     O_2   0.847800 0.768730 0.534310 -0.455711
O23   O     O_3   0.082250 0.684470 0.405440 -0.409626
O24   O     O_2   0.309662 0.689495 0.325373 -0.588930
P1    P     P_3+3 0.042930 0.392230 0.337410 0.986908
P2    P     P_3+3 0.672230 0.754900 0.555730 0.968947
P3    P     P_3+3 0.210875 0.770077 0.362847 1.007384
P4    P     P_3+3 0.146790 0.607860 0.662600 0.988366
P5    P     P_3+3 0.052565 0.177796 0.593616 0.956267
P6    P     P_3+3 0.636707 0.598065 0.276094 1.001404
P7    P     P_3+3 0.522258 0.231123 0.442554 0.970319
P8    P     P_3+3 0.561617 0.391084 0.721498 0.944307
I1    I     I_    0.802391 0.854609 0.367859 -0.407715
I2    I     I_    0.239748 0.029817 0.372814 -0.392850
O25   O     O_3   0.119549 0.966100 0.198409 -0.618823
C53   C     C_3   0.077527 0.012431 0.139653 0.255441
H55   H     H_    0.974903 0.961196 0.105779 0.023207
H56   H     H_    0.185050 0.026954 0.106403 0.050343
C54   C     C_3   0.024237 0.118115 0.166783 -0.298162
H57   H     H_    0.996526 0.156674 0.120875 0.049766
H58   H     H_    0.913084 0.105488 0.197876 0.135067
H59   H     H_    0.122594 0.171420 0.201360 0.135840
I3    I     I_    0.363631 0.827677 0.802249 -0.575311

loop_
_geom_bond_atom_site_label_1
_geom_bond_atom_site_label_2
_ccdc_geom_bond_type
C51   O2    S    
C8    H31   S    
C48   H50   S    
C3    H17   S    
C47   P5    S    
C11   H36   S    
C34   H54   S    
C51   H9    S    
C54   H57   S    
O3    P3    S    
C4    H21   S    
C23   O25   S    
C51   C52   S    
C8    H34   S    
C24   C25   A    
C31   C37   A    
C23   H23   S    
C49   O20   S    
C5    H25   S    
C26   C27   A    
C54   H58   S    
C22   C24   A    
O14   P7    D    
C16   C17   A    
C3    H18   S    
O23   P3    S    
C50   H7    S    
C36   C37   A    
C51   H10   S    
C52   H14   S    
O7    P4    S    
C38   C47   A    
O15   P7    S    
C34   C45   S    
O12   P1    S    
C40   C44   A    
C50   H6    S    
Ba1   O1    S    
Ba2   O8    S    
O18   P6    S    
O21   P6    S    
C14   C15   A    
O5    P4    S    
C40   I2    S    
C12   H44   S    
C15   P6    S    
O19   P6    D    
O6    P8    S    
O13   P2    S    
O10   P5    D    
C7    C8    S    
C46   P7    S    
O8    P7    S    
C18   C32   S    
C42   P2    S    
C39   C41   A    
C1    H11   S    
Ba1   O5    S    
O4    P4    D    
C53   C54   S    
Ba1   P1    S    
C2    H15   S    
Ba2   O9    S    
C4    H20   S    
C22   C28   A    
Ba2   O14   S    
O17   P8    S    
C24   H42   S    
C12   O3    S    
C44   C46   A    
C9    C18   A    
C20   C29   S    
C28   C32   A    
O1    P1    D    
C6    H27   S    
O11   P5    S    
C30   C33   A    
C5    O11   S    
C5    C6    S    
C1    H16   S    
Ba1   O18   S    
C53   H56   S    
Ba1   O22   S    
C39   H52   S    
C22   H41   S    
C2    I1    S    
Ba2   O12   S    
C52   H13   S    
C43   C44   A    
C10   C19   A    
Ba2   P4    S    
C49   C50   S    
Ba1   O12   S    
C17   C21   A    
C35   C36   A    
C45   H3    S    
C9    H35   S    
C29   C30   A    
Ba2   O4    S    
C54   H59   S    
C31   C32   A    
C49   H4    S    
C15   C21   A    
C41   P3    S    
C1    H22   S    
C7    H29   S    
C5    H24   S    
C26   H45   S    
Ba1   O8    S    
C11   C13   A    
C39   C42   A    
C6    H28   S    
O2    P2    S    
C49   H5    S    
C40   C41   A    
C1    C2    S    
Ba1   P2    S    
C42   C43   A    
C23   H53   S    
C4    H19   S    
C45   H1    S    
C13   P8    S    
Ba2   O13   S    
C38   C46   A    
C25   H43   S    
C14   C20   A    
C11   C18   A    
C33   C35   A    
C16   C20   A    
O16   P8    D    
O9    P5    S    
C53   H55   S    
Ba1   O23   S    
C12   H33   S    
C9    C10   A    
C34   I3    S    
C37   H49   S    
C2    O21   S    
C52   H12   S    
C17   P1    S    
C3    O15   S    
C21   H40   S    
C16   H38   S    
C30   C31   A    
O25   C53   S    
C27   C29   A    
C50   H8    S    
O20   P1    S    
C35   H47   S    
Ba2   O6    S    
C8    H32   S    
C3    C4    S    
C19   H39   S    
C43   C48   A    
O24   P3    D    
Ba1   Ba2   S    
Ba2   O5    S    
C12   C23   S    
O22   P2    D    
Ba1   O13   S    
C7    H30   S    
C27   C28   A    
C7    O17   S    
C13   C19   A    
C14   H37   S    
C36   H48   S    
C47   C48   A    
C10   P4    S    
C25   C26   A    
C6    H26   S    
C38   H51   S    
C34   O7    S    
C33   H46   S    
C45   H2    S    
