data_mof_unit_25349.cif
_audit_creation_date              2012-12-11T16:56:13-0500
_audit_creation_method            fapswitch 2.2
_symmetry_space_group_name_H-M    P1
_symmetry_Int_Tables_number       1
_space_group_crystal_system       triclinic
_cell_length_a                    6.945455
_cell_length_b                    14.542816
_cell_length_c                    16.221928
_cell_angle_alpha                 90.608147
_cell_angle_beta                  90.114143
_cell_angle_gamma                 89.947646
_cell_volume                      1638.42354897

loop_
_atom_site_label
_atom_site_type_symbol
_atom_type_description
_atom_site_fract_x
_atom_site_fract_y
_atom_site_fract_z
_atom_type_partial_charge
O1    O     O_R   0.505830 0.583360 0.413880 -0.529278
O2    O     O_R   0.175830 0.595460 0.585520 -0.550985
O3    O     O_R   0.005520 0.416640 0.586120 -0.545533
C1    C     C_R   0.344687 0.617376 0.614520 0.689063
O4    O     O_R   0.176120 0.594390 0.414490 -0.543254
O5    O     O_R   0.005810 0.415570 0.413870 -0.541132
C2    C     C_R   0.345045 0.618891 0.387886 0.718525
O6    O     O_R   0.505540 0.584430 0.586130 -0.542696
O7    O     O_3   0.339200 0.441330 0.500000 -0.359473
V1    V     V_3+5 0.064350 0.510880 0.500000 1.434560
O8    O     O_R   0.676100 0.404540 0.414480 -0.535203
C3    C     C_R   0.845075 0.382272 0.385931 0.723089
O9    O     O_R   0.675810 0.405610 0.585510 -0.512428
C4    C     C_R   0.844647 0.387335 0.616205 0.665065
V2    V     V_3+5 0.564340 0.489120 0.500000 1.493494
O10   O     O_3   0.839360 0.558670 0.500000 -0.379273
C5    C     C_2   0.730548 0.222916 0.794587 0.156173
C6    C     C_2   0.882380 0.167426 0.812130 0.187339
C7    C     C_2   0.718301 0.272338 0.714568 0.341813
C8    C     C_2   0.857373 0.332623 0.693144 0.211319
C9    C     C_R   0.727360 0.246902 0.190480 0.133124
C10   C     C_R   0.882780 0.185898 0.183205 -0.115919
C11   C     C_R   0.034602 0.196047 0.240245 -0.173559
H1    H     H_    0.157349 0.150494 0.237139 0.130294
C12   C     C_R   0.022678 0.260323 0.305682 -0.177216
H2    H     H_    0.137653 0.263171 0.350658 0.135469
C13   C     C_R   0.858018 0.315855 0.316275 -0.120547
C14   C     C_R   0.715224 0.310252 0.255387 0.162149
C15   C     C_3   0.504157 0.295635 0.264392 -0.414940
C16   C     C_3   0.517295 0.226966 0.193362 -0.402815
H3    H     H_    0.419718 0.358177 0.249121 0.202556
H4    H     H_    0.467970 0.263344 0.324159 0.167379
H5    H     H_    0.441175 0.249979 0.136866 0.204553
H6    H     H_    0.487886 0.154922 0.211739 0.162499
C17   C     C_R   0.505646 0.680034 0.742567 0.064695
C18   C     C_R   0.352965 0.682039 0.685935 -0.114921
C19   C     C_R   0.202651 0.744761 0.702070 -0.155350
H7    H     H_    0.080918 0.748551 0.660651 0.119129
C20   C     C_R   0.214373 0.807820 0.768563 -0.118608
H8    H     H_    0.101213 0.858295 0.776171 0.115341
C21   C     C_R   0.376352 0.809955 0.821205 -0.162466
C22   C     C_R   0.517038 0.742164 0.808588 0.106471
C23   C     C_3   0.729552 0.751961 0.798859 0.185021
C24   C     C_3   0.716922 0.683843 0.727259 -0.360644
H9    H     H_    0.775403 0.822356 0.781190 0.060192
H10   H     H_    0.788483 0.616787 0.739019 0.196283
H11   H     H_    0.750472 0.714851 0.666647 0.119712
C25   C     C_R   0.527338 0.706056 0.280423 0.031887
C26   C     C_R   0.356767 0.693195 0.325150 -0.211564
C27   C     C_R   0.202297 0.755155 0.307643 0.319965
C28   C     C_R   0.214092 0.814372 0.239151 -0.187016
H12   H     H_    0.091679 0.857839 0.225344 0.147495
C29   C     C_R   0.380834 0.818549 0.189601 -0.162472
C30   C     C_R   0.540159 0.767483 0.215565 0.046008
C31   C     C_3   0.675111 0.707110 0.167899 -0.427443
C32   C     C_3   0.661416 0.639298 0.239008 0.223896
H13   H     H_    0.820263 0.738513 0.162292 0.163786
H14   H     H_    0.611834 0.681941 0.108802 0.182384
H15   H     H_    0.798714 0.629796 0.273181 0.153085
O11   O     O_R   0.229930 0.912420 0.917160 -0.541581
O12   O     O_R   0.559420 0.902500 0.088780 -0.540326
O13   O     O_R   0.729660 0.081330 0.089380 -0.535169
C33   C     C_R   0.390690 0.880980 0.117682 0.711980
O14   O     O_R   0.559650 0.901420 0.917750 -0.553721
O15   O     O_R   0.729880 0.080250 0.917130 -0.525614
C34   C     C_R   0.390541 0.879452 0.888753 0.695825
O16   O     O_R   0.229700 0.913500 0.089410 -0.547410
O17   O     O_3   0.396250 0.055540 0.003280 -0.344762
V3    V     V_3+5 0.671130 0.986010 0.003260 1.438725
O18   O     O_R   0.059600 0.091310 0.917720 -0.528608
C35   C     C_R   0.890486 0.111464 0.888332 0.690297
O19   O     O_R   0.059370 0.092380 0.088750 -0.541688
C36   C     C_R   0.890663 0.114760 0.117236 0.713846
V4    V     V_3+5 0.171120 0.007820 0.003230 1.463296
O20   O     O_3   0.896130 0.938240 0.003240 -0.386464
Br1   Br    Br    0.520312 0.245414 0.869661 -0.502842
O21   O     O_3   0.829689 0.715310 0.866026 -0.616003
H16   H     H_    0.839773 0.765770 0.907418 0.304656
O22   O     O_3   0.037568 0.760100 0.354648 -0.652157
H17   H     H_    0.073917 0.749213 0.412764 0.287603
O23   O     O_3   0.027035 0.158240 0.753850 -0.627973
H18   H     H_    0.119556 0.110601 0.771927 0.295227
O24   O     O_3   0.573541 0.555266 0.216921 -0.640346
H19   H     H_    0.448992 0.568471 0.189210 0.300578
O25   O     O_3   0.560572 0.258920 0.663696 -0.643889
H20   H     H_    0.477665 0.211149 0.688476 0.317731
O26   O     O_3   0.009787 0.346795 0.747180 -0.609649
H21   H     H_    0.089867 0.398410 0.727540 0.309362

loop_
_geom_bond_atom_site_label_1
_geom_bond_atom_site_label_2
_ccdc_geom_bond_type
C31   C32   S    
C1    C18   S    
C21   C22   A    
C7    C8    D    
C1    O6    A    
C27   O22   S    
O23   H18   S    
C20   C21   A    
C29   C30   A    
C25   C30   A    
C19   H7    S    
C18   C19   A    
C15   H4    S    
O25   H20   S    
O17   V4    S    
V2    O10   S    
C8    O26   S    
C6    O23   S    
O12   C33   A    
C17   C22   A    
O8    V2    S    
C17   C18   A    
O17   V3    S    
O18   V4    S    
C5    Br1   S    
C11   H1    S    
O13   C36   A    
O18   C35   A    
O1    V2    S    
O7    V1    S    
C24   H11   S    
O11   C34   A    
O9    C4    A    
C24   H10   S    
C27   C28   A    
C33   O16   A    
V4    O20   S    
C16   H6    S    
C3    C13   S    
C28   H12   S    
C4    C8    S    
C2    C26   S    
O19   V4    S    
C20   H8    S    
O4    C2    A    
C12   H2    S    
O21   H16   S    
O13   V3    S    
C28   C29   A    
O14   C34   A    
O2    C1    A    
C23   C24   S    
C15   C16   S    
O24   H19   S    
C5    C6    D    
O16   V4    S    
O14   V3    S    
C17   C24   S    
C23   H9    S    
O3    C4    A    
C25   C26   A    
C9    C14   A    
O6    V2    S    
C31   H13   S    
C23   O21   S    
C22   C23   S    
O2    V1    S    
C32   O24   S    
O12   V3    S    
C6    C35   S    
C25   C32   S    
C30   C31   S    
C14   C15   S    
C16   H5    S    
O1    C2    A    
O19   C36   A    
C7    O25   S    
O5    V1    S    
O8    C3    A    
C21   C34   S    
C12   C13   A    
C9    C16   S    
C32   H15   S    
O9    V2    S    
O7    V2    S    
O4    V1    S    
C15   H3    S    
O3    V1    S    
O15   C35   A    
O5    C3    A    
C29   C33   S    
O15   V3    S    
O11   V4    S    
C5    C7    S    
V3    O20   S    
C11   C12   A    
O22   H17   S    
O26   H21   S    
C19   C20   A    
C26   C27   A    
C31   H14   S    
C13   C14   A    
C10   C11   A    
V1    O10   S    
C10   C36   S    
C9    C10   A    
