data_mof_unit_35613.cif
_audit_creation_date              2012-12-10T19:04:44-0500
_audit_creation_method            fapswitch 2.2
_symmetry_space_group_name_H-M    P1
_symmetry_Int_Tables_number       1
_space_group_crystal_system       triclinic
_cell_length_a                    15.85766
_cell_length_b                    10.892306
_cell_length_c                    9.554569
_cell_angle_alpha                 89.948357
_cell_angle_beta                  89.878331
_cell_angle_gamma                 90.098922
_cell_volume                      1650.32026414

loop_
_atom_site_label
_atom_site_type_symbol
_atom_type_description
_atom_site_fract_x
_atom_site_fract_y
_atom_site_fract_z
_atom_type_partial_charge
C1    C     C_R   0.499904 0.262946 0.499858 0.832270
C2    C     C_3   0.082762 0.501468 0.501242 0.106271
C3    C     C_3   0.972009 0.519557 0.629031 0.446093
C4    C     C_3   0.917082 0.501400 0.499637 0.080821
C5    C     C_3   0.028193 0.610658 0.548010 -0.212465
C6    C     C_3   0.972354 0.591927 0.416447 -0.191884
C7    C     C_1   0.174465 0.501108 0.500994 -0.035505
C8    C     C_1   0.825387 0.501111 0.499296 0.030433
C9    C     C_R   0.498176 0.062154 0.619377 0.132585
C10   C     C_R   0.500039 0.130796 0.497607 -0.157792
C11   C     C_R   0.501681 0.066624 0.369699 -0.324892
C12   C     C_R   0.339832 0.500140 0.500125 0.816204
C13   C     C_R   0.499452 0.937159 0.367275 0.442034
C14   C     C_R   0.499829 0.870644 0.495728 -0.196692
C15   C     C_R   0.498731 0.938556 0.618561 0.062826
C16   C     C_3   0.492480 0.929764 0.773802 -0.448488
C17   C     C_3   0.492092 0.070998 0.774418 -0.448294
C18   C     C_R   0.573507 0.513212 0.073300 0.260588
C19   C     C_R   0.428863 0.473386 0.074459 -0.101931
C20   C     C_R   0.428775 0.473888 0.925997 -0.087408
C21   C     C_R   0.573597 0.512557 0.926144 0.256513
C22   C     C_3   0.633933 0.617430 0.919503 -0.461761
C23   C     C_R   0.499722 0.737504 0.499351 0.831268
C24   C     C_3   0.633300 0.618857 0.078508 -0.472053
C25   C     C_R   0.660135 0.500255 0.499881 0.822220
C26   C     C_3   0.972000 0.392544 0.453108 -0.193920
C27   C     C_3   0.028592 0.483025 0.369654 -0.101941
C28   C     C_1   0.250064 0.500656 0.500557 -0.185967
C29   C     C_1   0.749831 0.500738 0.499512 -0.144078
C30   C     C_3   0.027811 0.410725 0.584760 -0.248341
Cu1   Cu    Cu3+1 0.500000 0.499980 0.640670 0.947515
Cu2   Cu    Cu3+1 0.500000 0.500020 0.359330 0.956433
H1    H     H_    0.053338 0.467955 0.262258 0.161885
H2    H     H_    0.549923 0.890218 0.821931 0.206372
H3    H     H_    0.431175 0.111050 0.809428 0.188979
H4    H     H_    0.549504 0.112262 0.821699 0.209908
H5    H     H_    0.370775 0.453437 0.129133 0.150263
H6    H     H_    0.370650 0.454259 0.871721 0.151250
H7    H     H_    0.695835 0.589926 0.874711 0.251686
H8    H     H_    0.605716 0.700475 0.871738 0.201383
H9    H     H_    0.694986 0.592819 0.124812 0.219698
H10   H     H_    0.604312 0.702879 0.123436 0.250202
H11   H     H_    0.947796 0.303347 0.413801 0.162748
H12   H     H_    0.948440 0.665856 0.347107 0.175327
H13   H     H_    0.052145 0.699670 0.588283 0.166126
H14   H     H_    0.051444 0.337173 0.654890 0.151062
H15   H     H_    0.503993 0.115882 0.271229 0.177743
H16   H     H_    0.431629 0.888614 0.807424 0.200928
N1    N     N_R   0.500530 0.500930 0.147930 -0.183085
N2    N     N_R   0.500530 0.500890 0.852020 -0.189743
O1    O     O_R   0.500000 0.319640 0.618810 -0.578529
O2    O     O_R   0.500010 0.319680 0.381230 -0.586471
O3    O     O_R   0.379070 0.499970 0.618770 -0.587327
O4    O     O_R   0.379080 0.500010 0.381190 -0.593946
O5    O     O_R   0.499990 0.680320 0.618770 -0.587043
O6    O     O_R   0.500000 0.680360 0.381190 -0.528434
O7    O     O_R   0.620920 0.499990 0.618810 -0.569414
O8    O     O_R   0.620930 0.500030 0.381230 -0.581493
S1    S     S_3+6 0.933314 0.544069 0.802032 -0.003709
O9    O     O_2   0.880590 0.658512 0.804341 -0.268553
O10   O     O_2   0.880120 0.436621 0.846770 -0.301376
O11   O     O_3   0.014693 0.560783 0.912886 -0.517506
H17   H     H_    0.046977 0.483315 0.905038 0.329852
O12   O     O_3   0.500311 0.875899 0.240273 -0.568366
C31   C     C_3   0.427313 0.904693 0.161888 0.051329
H18   H     H_    0.442892 0.977929 0.084970 0.157729
H19   H     H_    0.373000 0.936013 0.227418 0.129340
C32   C     C_3   0.398722 0.790740 0.083294 -0.759413
H20   H     H_    0.378811 0.718953 0.159067 0.259799
H21   H     H_    0.344401 0.813453 0.014936 0.190914
H22   H     H_    0.451037 0.754655 0.017867 0.249222

loop_
_geom_bond_atom_site_label_1
_geom_bond_atom_site_label_2
_ccdc_geom_bond_type
C18   C21   A    
C24   H10   S    
C11   H15   S    
C2    C7    S    
Cu2   O8    S    
C4    C8    S    
C16   H16   S    
C23   O6    A    
C27   H1    S    
C26   C27   S    
C12   C28   S    
C18   C24   S    
C8    C29   T    
C5    C6    S    
C15   C16   S    
Cu2   O2    S    
C20   N2    A    
C19   H5    S    
C16   H2    S    
Cu1   Cu2   S    
C16   C17   S    
C31   H19   S    
C2    C27   S    
C17   H4    S    
C9    C10   A    
C12   O3    A    
S1    O9    D    
C6    H12   S    
C13   C14   A    
C24   H9    S    
C25   O7    A    
Cu2   O4    S    
C21   N2    A    
C26   H11   S    
C25   C29   S    
S1    O10   D    
C4    C6    S    
C32   H20   S    
C5    H13   S    
C7    C28   T    
C14   C23   S    
C3    C30   S    
O11   H17   S    
C20   H6    S    
C19   N1    A    
C6    C27   S    
C31   C32   S    
C22   H8    S    
Cu1   O3    S    
C1    O1    A    
C9    C17   S    
C26   C30   S    
C22   C24   S    
C2    C5    S    
C25   O8    A    
Cu1   N2    S    
C3    C4    S    
S1    O11   S    
C30   H14   S    
C1    C10   S    
Cu1   O1    S    
C3    C5    S    
C4    C26   S    
C23   O5    A    
C2    C30   S    
O12   C31   S    
Cu1   O7    S    
C19   C20   A    
C9    C15   A    
C11   C13   A    
C13   O12   S    
C32   H22   S    
C22   H7    S    
C1    O2    A    
Cu2   N1    S    
C10   C11   A    
C32   H21   S    
C31   H18   S    
C14   C15   A    
C17   H3    S    
Cu1   O5    S    
C21   C22   S    
Cu2   O6    S    
C12   O4    A    
C18   N1    A    
C3    S1    S    
