data_mof_unit_61153.cif
_audit_creation_date              2013-03-05T16:03:32-0500
_audit_creation_method            fapswitch 2.2
_symmetry_space_group_name_H-M    P1
_symmetry_Int_Tables_number       1
_space_group_crystal_system       triclinic
_cell_length_a                    8.267668
_cell_length_b                    14.5401
_cell_length_c                    23.055937
_cell_angle_alpha                 95.644556
_cell_angle_beta                  89.80994
_cell_angle_gamma                 90.789387
_cell_volume                      2757.91077763

loop_
_atom_site_label
_atom_site_type_symbol
_atom_site_description
_atom_site_fract_x
_atom_site_fract_y
_atom_site_fract_z
_atom_type_partial_charge
P1    P     P_3+3 0.074990 0.420800 0.372080 0.518116
O1    O     O_2   0.901900 0.448470 0.362340 -0.404138
O2    O     O_3   0.142240 0.449440 0.433360 -0.354643
O3    O     O_3   0.645560 0.619080 0.391970 -0.365478
O4    O     O_2   0.778937 0.544290 0.293411 -0.376706
O5    O     O_3   0.079442 0.299246 0.356660 -0.514479
O6    O     O_3   0.681916 0.711874 0.292069 -0.463827
H1    H     H_    0.487862 0.767206 0.340747 0.053941
C1    C     C_3   0.586502 0.864025 0.285532 -0.732839
H2    H     H_    0.672958 0.893677 0.319236 0.277007
H3    H     H_    0.642830 0.865218 0.241866 0.259102
P2    P     P_3+3 0.618830 0.715330 0.538180 0.467710
P3    P     P_3+3 0.066492 0.784328 0.414697 0.539696
O7    O     O_2   0.793170 0.729090 0.520590 -0.372068
O8    O     O_3   0.052800 0.667320 0.419180 -0.403561
O9    O     O_2   0.932403 0.830657 0.453661 -0.346654
O10   O     O_3   0.627299 0.743606 0.613735 -0.548741
O11   O     O_3   0.014943 0.804893 0.343645 -0.458444
C2    C     C_3   0.081862 0.734645 0.304966 0.498502
H4    H     H_    0.013293 0.668791 0.307376 0.140060
H5    H     H_    0.211203 0.723443 0.314810 -0.050616
C3    C     C_3   0.070720 0.761901 0.243163 -0.826595
H6    H     H_    0.942161 0.772903 0.231674 0.285120
H7    H     H_    0.141644 0.826770 0.239256 0.266820
C4    C     C_3   0.172567 0.752764 0.608605 0.171680
H8    H     H_    0.305133 0.742557 0.605183 0.112581
H9    H     H_    0.114451 0.737867 0.565155 0.080174
C5    C     C_3   0.135976 0.852148 0.633537 0.137209
H10   H     H_    0.003267 0.863151 0.629943 0.086950
Ba1   Ba    Ba6+2 0.846250 0.544220 0.470860 1.608670
C6    C     C_3   0.952551 0.269069 0.317875 0.175376
H11   H     H_    0.926972 0.319541 0.285189 0.096396
H12   H     H_    0.841392 0.260135 0.344545 0.107326
C7    C     C_3   0.989576 0.174459 0.284822 0.146586
H13   H     H_    0.963422 0.117613 0.313145 0.159077
C8    C     C_3   0.673763 0.665736 0.640536 0.362118
H14   H     H_    0.789571 0.638870 0.622208 0.085550
H15   H     H_    0.579493 0.610790 0.634496 0.142184
C9    C     C_3   0.694644 0.692885 0.705473 -0.775564
H16   H     H_    0.794850 0.744321 0.712911 0.268916
H17   H     H_    0.722913 0.631117 0.728007 0.205134
H18   H     H_    0.581159 0.723240 0.724210 0.298982
P4    P     P_3+3 0.114710 0.579280 0.627920 0.506658
O12   O     O_2   0.287790 0.551560 0.637690 -0.342496
O13   O     O_3   0.047460 0.550640 0.566640 -0.401906
O14   O     O_3   0.544140 0.380990 0.608030 -0.336735
O15   O     O_3   0.106533 0.697502 0.648848 -0.566069
P5    P     P_3+3 0.117043 0.209932 0.583968 0.590650
O16   O     O_3   0.640350 0.387150 0.474440 -0.410434
O17   O     O_3   0.136890 0.332750 0.580830 -0.350153
O18   O     O_2   0.261802 0.167507 0.548604 -0.268739
O19   O     O_3   0.158126 0.183099 0.654918 -0.456272
Ba2   Ba    Ba6+2 0.343570 0.455860 0.529140 1.695591
P6    P     P_3+3 0.635117 0.604196 0.315834 0.512360
C10   C     C_3   0.542297 0.765605 0.296485 0.335584
H19   H     H_    0.453686 0.738399 0.262789 0.098195
H20   H     H_    0.475908 0.906533 0.287349 0.251935
O20   O     O_3   0.549340 0.612930 0.525560 -0.416078
C11   C     C_3   0.525842 0.340942 0.356893 0.396258
H21   H     H_    0.402137 0.362621 0.370311 0.106479
H22   H     H_    0.613910 0.395838 0.373156 0.117961
C12   C     C_3   0.539130 0.329975 0.290480 -0.894174
H23   H     H_    0.570388 0.258102 0.274213 0.305945
H24   H     H_    0.423017 0.347059 0.270366 0.241636
H25   H     H_    0.634698 0.376782 0.275598 0.237839
P7    P     P_3+3 0.574075 0.271347 0.454541 0.542975
O21   O     O_2   0.396530 0.270940 0.479440 -0.286424
O22   O     O_3   0.558051 0.255937 0.378435 -0.510554
H26   H     H_    0.120449 0.705778 0.212286 0.224246
C13   C     C_3   0.015784 0.197771 0.688051 0.197250
H27   H     H_    0.988333 0.272396 0.692307 0.107195
H28   H     H_    0.910681 0.158578 0.666896 0.030138
C14   C     C_3   0.035919 0.164014 0.748742 -0.059571
H29   H     H_    0.914060 0.145030 0.764719 0.102734
H30   H     H_    0.110608 0.100569 0.745843 0.185542
P8    P     P_3+3 0.575638 0.397320 0.683341 0.560366
C15   C     C_3   0.561101 0.232790 0.720262 0.999735
H31   H     H_    0.692452 0.247741 0.720323 -0.363843
O23   O     O_2   0.493878 0.489174 0.705704 -0.338897
O24   O     O_3   0.464160 0.311045 0.714676 -0.482651
H32   H     H_    0.611683 0.141781 0.787501 0.216761
C16   C     C_3   0.525749 0.197097 0.779334 -0.709068
H33   H     H_    0.401014 0.168528 0.780541 0.259032
H34   H     H_    0.539546 0.254371 0.814613 0.265167
H35   H     H_    0.813193 0.355521 0.070810 0.221854
C17   C     C_R   0.331014 0.527897 0.331181 -0.528355
C18   C     C_R   0.163519 0.548184 0.931219 -0.202225
C19   C     C_R   0.131179 0.534048 0.869999 0.658710
O25   O     O_2   0.237153 0.551299 0.835642 -0.500124
N1    N     N_R   0.983006 0.497690 0.849240 -0.171975
C20   C     C_R   0.872451 0.469726 0.890285 0.618780
O26   O     O_2   0.729732 0.459530 0.877558 -0.519336
C21   C     C_R   0.921518 0.457015 0.948014 -0.174760
C22   C     C_R   0.063681 0.502336 0.969513 -0.030920
C23   C     C_R   0.295335 0.603097 0.955496 0.388454
C24   C     C_R   0.323414 0.610312 0.016044 -0.157606
C25   C     C_R   0.229859 0.560184 0.053509 -0.071442
C26   C     C_R   0.104474 0.503160 0.029715 0.002073
C27   C     C_R   0.829856 0.404288 0.985833 0.375927
C28   C     C_R   0.881547 0.398713 0.043547 -0.114761
C29   C     C_R   0.017988 0.448304 0.066346 -0.115302
C30   C     C_R   0.072084 0.442589 0.124553 0.652988
N2    N     N_R   0.190006 0.503737 0.149706 -0.160867
C31   C     C_R   0.256191 0.568075 0.114613 0.610631
C32   C     C_2   0.837404 0.419015 0.764158 -0.117112
C33   C     C_3   0.796923 0.402446 0.700079 0.068223
C34   C     C_1   0.999782 0.521278 0.683359 0.280076
C35   C     C_2   0.025502 0.541211 0.740751 -0.154593
C36   C     C_2   0.944655 0.485443 0.785678 0.135543
C37   C     C_R   0.405103 0.529650 0.228783 0.273989
C38   C     C_R   0.441062 0.551386 0.288828 0.035243
C39   C     C_R   0.187162 0.481777 0.315547 0.259881
C40   C     C_R   0.137684 0.476452 0.256425 -0.274643
C41   C     C_R   0.243574 0.502756 0.211394 -0.007124
O27   O     O_2   0.015543 0.381865 0.151818 -0.564025
O28   O     O_2   0.335775 0.633829 0.136429 -0.574926
C42   C     C_2   0.887255 0.462695 0.661858 -0.415440
H36   H     H_    0.420936 0.654979 0.033729 0.207489
H37   H     H_    0.089733 0.604833 0.755231 0.195459
H38   H     H_    0.787425 0.369200 0.791407 0.176530
H39   H     H_    0.016751 0.451803 0.246514 0.219950
H40   H     H_    0.364043 0.538396 0.376750 0.177727
H41   H     H_    0.863313 0.451654 0.615422 0.166921
C43   C     C_R   0.684212 0.935889 0.528098 -0.037597
C44   C     C_R   0.507749 0.799503 0.496849 0.287345
C45   C     C_R   0.366395 0.766616 0.468323 -0.518230
C46   C     C_R   0.268332 0.824989 0.439653 0.092183
C47   C     C_R   0.317360 0.915201 0.433383 0.249773
C48   C     C_R   0.463630 0.951019 0.459598 -0.199215
C49   C     C_R   0.554457 0.894620 0.494803 -0.029819
H42   H     H_    0.326903 0.696066 0.471575 0.182716
C50   C     C_R   0.642229 0.084614 0.488607 -0.102880
C51   C     C_R   0.728958 0.029334 0.525515 0.133014
C52   C     C_R   0.691305 0.178882 0.487271 0.168473
C53   C     C_R   0.836460 0.207562 0.513836 -0.096348
C54   C     C_R   0.923515 0.156546 0.550295 0.155897
C55   C     C_R   0.864646 0.067264 0.557886 -0.199906
C56   C     C_R   0.516713 0.042639 0.452903 0.341174
H43   H     H_    0.926967 0.026192 0.587034 0.138148
H44   H     H_    0.751262 0.896039 0.556819 0.148498
N3    N     N_R   0.184472 0.867762 0.694872 0.295205
O29   O     O_R   0.335858 0.861102 0.709565 -0.300904
O30   O     O_R   0.075557 0.885511 0.735438 -0.346488
I1    I     I_    0.252254 0.953033 0.587701 -0.274829
I2    I     I_    0.840177 0.151410 0.208154 -0.193461
I3    I     I_    0.233872 0.162938 0.255154 -0.107163
N4    N     N_R   0.107304 0.234263 0.791550 0.244659
O31   O     O_R   0.113788 0.217968 0.846083 -0.322515
O32   O     O_R   0.171231 0.310589 0.776176 -0.355461
N5    N     N_R   0.528169 0.161902 0.672020 0.231609
O33   O     O_R   0.553487 0.180969 0.618845 -0.402201
O34   O     O_R   0.492343 0.077182 0.681468 -0.358501
N6    N     N_R   0.692003 0.349519 0.965330 0.268763
O35   O     O_R   0.704222 0.291778 0.918724 -0.335354
O36   O     O_R   0.565192 0.344666 0.998573 -0.324953
N7    N     N_R   0.534179 0.523905 0.186493 0.259318
O37   O     O_R   0.640534 0.590339 0.184923 -0.330741
O38   O     O_R   0.540895 0.453634 0.147248 -0.373046
N8    N     N_R   0.395122 0.657579 0.920529 0.270397
O39   O     O_R   0.329285 0.716037 0.888760 -0.298822
O40   O     O_R   0.550820 0.661247 0.928537 -0.337317
N9    N     N_R   0.205549 0.972674 0.407124 0.272877
O41   O     O_R   0.099255 0.018863 0.439453 -0.359776
O42   O     O_R   0.192894 0.967363 0.350675 -0.353947
I4    I     I_    0.958134 0.306781 0.477672 -0.085510
N10   N     N_R   0.471346 0.082725 0.401107 0.247015
O43   O     O_R   0.557467 0.065970 0.354041 -0.390605
O44   O     O_R   0.340032 0.130729 0.399324 -0.273182

loop_
_geom_bond_atom_site_label_1
_geom_bond_atom_site_label_2
_geom_bond_distance
_ccdc_geom_bond_type
P7    O22   1.752155 S    
C10   H19   1.109990 S    
C51   C55   1.423817 A    
C21   C22   1.407009 A    
C23   C24   1.409398 A    
C7    I3    2.133776 S    
C14   H29   1.112107 S    
Ba1   O13   2.762640 S    
C2    H4    1.112029 S    
P8    O23   1.547127 D    
O6    C10   1.400574 S    
C18   C19   1.431759 A    
C47   C48   1.422869 A    
O14   P8    1.749103 S    
C25   C26   1.397738 A    
C53   C54   1.384280 A    
C9    H17   1.108842 S    
C15   H31   1.104549 S    
C4    C5    1.535457 S    
C55   H43   1.078629 S    
C29   C30   1.426492 A    
C43   C51   1.410102 A    
C14   N4    1.467894 S    
C23   N8    1.435727 S    
C45   H42   1.081771 S    
C3    H7    1.114766 S    
C24   H36   1.083424 S    
C5    H10   1.115500 S    
N4    O32   1.302534 A    
P1    O1    1.515246 D    
N3    O30   1.305965 A    
P1    C39   1.881939 S    
C7    I2    2.156171 S    
C22   C26   1.428345 A    
C50   C56   1.419996 A    
C18   C22   1.414584 A    
C27   N6    1.435658 S    
C35   C36   1.524108 S    
C7    H13   1.121025 S    
C37   C38   1.420879 A    
P1    Ba1   3.353302 S    
C12   H24   1.109289 S    
C30   O27   1.220296 D    
P7    C52   1.885917 S    
C44   C49   1.435987 A    
P4    Ba2   3.353866 S    
P5    O18   1.546810 D    
C48   C56   1.419503 A    
N4    O31   1.303542 A    
C50   C51   1.427858 A    
C18   C23   1.425016 A    
P2    O10   1.751454 S    
C17   H40   1.082080 S    
C34   C35   1.343471 D    
C6    H12   1.117260 S    
C32   H38   1.081481 S    
C13   H27   1.106416 S    
C5    I1    2.109996 S    
O10   C8    1.400912 S    
N6    O36   1.301879 A    
C1    H2    1.109026 S    
C4    O15   1.391333 S    
C3    H26   1.111199 S    
P2    O20   1.588676 S    
P5    O17   1.799575 S    
P7    O21   1.574523 D    
O13   Ba2   2.912841 S    
C11   H21   1.108468 S    
C31   O28   1.220761 D    
N10   O44   1.301673 A    
C14   H30   1.113580 S    
C35   H37   1.084483 S    
O7    Ba1   2.855801 S    
O12   Ba2   2.781638 S    
H1    C10   1.112244 S    
C39   C40   1.418980 A    
P5    C54   1.902854 S    
H32   C16   1.110654 S    
C9    H18   1.110387 S    
N9    O42   1.300649 A    
Ba1   Ba2   4.569882 S    
C11   H22   1.111210 S    
O17   Ba2   2.804681 S    
O16   P7    1.780496 S    
P1    O5    1.769052 S    
O4    P6    1.541332 D    
N2    C41   1.492505 S    
O19   C13   1.408161 S    
C40   C41   1.432997 A    
C9    H16   1.110729 S    
C48   C49   1.430796 A    
O11   C2    1.406334 S    
P2    C44   1.874995 S    
C4    H8    1.109542 S    
P2    Ba1   3.388834 S    
P1    O2    1.536830 S    
N7    O37   1.300318 A    
O2    Ba1   2.912001 S    
C17   C39   1.388317 A    
P4    O12   1.515504 D    
C12   H23   1.108729 S    
C11   O22   1.405675 S    
C20   C21   1.422770 A    
P4    O13   1.536827 S    
C6    H11   1.124874 S    
C24   C25   1.406957 A    
C2    C3    1.519515 S    
C13   C14   1.538055 S    
C47   N9    1.429672 S    
C53   I4    1.994870 S    
C6    C7    1.539699 S    
C43   C49   1.413253 A    
P4    C34   1.851972 S    
C1    H3    1.109422 S    
C1    C10   1.517004 S    
P3    O11   1.749045 S    
Ba1   O16   2.837168 S    
C19   N1    1.394835 Am   
C16   H34   1.110346 S    
P3    O8    1.716721 S    
C33   C42   1.493730 S    
N10   O43   1.300590 A    
N5    O34   1.301889 A    
C46   C47   1.388510 A    
C20   O26   1.220365 D    
O8    Ba1   2.803827 S    
N9    O41   1.300911 A    
C15   O24   1.417128 S    
C37   C41   1.433681 A    
C8    H14   1.105911 S    
C11   C12   1.527558 S    
P8    C33   1.869993 S    
C12   H25   1.111100 S    
O3    P6    1.749702 S    
N5    O33   1.298962 A    
C43   H44   1.080887 S    
C8    C9    1.520119 S    
P8    O24   1.756999 S    
P2    O7    1.512030 D    
C54   C55   1.406934 A    
C15   N5    1.463691 S    
Ba2   O20   2.836535 S    
C52   C53   1.389290 A    
C4    H9    1.113104 S    
C26   C29   1.404835 A    
C32   C33   1.511222 S    
N1    C36   1.493344 S    
C27   C28   1.409165 A    
C56   N10   1.432637 S    
O1    Ba1   2.781168 S    
N7    O38   1.298120 A    
C17   C38   1.396114 A    
N8    O39   1.301204 A    
H35   C28   1.083699 S    
N3    O29   1.305083 A    
O2    Ba2   2.763240 S    
N1    C20   1.398598 Am   
C44   C45   1.398155 A    
C32   C36   1.360288 D    
C15   C16   1.530342 S    
C45   C46   1.395536 A    
O16   Ba2   2.899711 S    
Ba1   O20   2.900625 S    
O14   Ba2   2.775333 S    
C8    H15   1.107609 S    
C28   C29   1.405593 A    
P6    C38   1.852020 S    
O5    C6    1.417445 S    
C1    H20   1.109063 S    
C42   H41   1.085305 S    
C30   N2    1.398490 Am   
Ba2   O21   2.856080 S    
C25   C31   1.419443 A    
C37   N7    1.440849 S    
P3    C46   1.837822 S    
P5    O19   1.753944 S    
C40   H39   1.075114 S    
C19   O25   1.219204 D    
C50   C52   1.427302 A    
C16   H33   1.107758 S    
P3    O9    1.544266 D    
N2    C31   1.400370 Am   
C21   C27   1.426007 A    
C3    H6    1.113723 S    
C13   H28   1.119028 S    
C5    N3    1.466359 S    
O6    P6    1.746940 S    
N6    O35   1.301492 A    
N8    O40   1.300661 A    
P4    O15   1.741277 S    
C34   C42   1.317190 D    
O3    Ba1   2.775865 S    
C2    H5    1.111411 S    
