data_mof_unit_14155.cif
_audit_creation_date              2012-12-11T14:33:47-0500
_audit_creation_method            fapswitch 2.2
_symmetry_space_group_name_H-M    P1
_symmetry_Int_Tables_number       1
_space_group_crystal_system       triclinic
_cell_length_a                    14.086369
_cell_length_b                    14.108912
_cell_length_c                    27.230492
_cell_angle_alpha                 90.033428
_cell_angle_beta                  90.023219
_cell_angle_gamma                 119.757845
_cell_volume                      4698.21684074

loop_
_atom_site_label
_atom_site_type_symbol
_atom_type_description
_atom_site_fract_x
_atom_site_fract_y
_atom_site_fract_z
_atom_type_partial_charge
C1    C     C_R   0.234266 0.787659 0.568537 0.538943
C2    C     C_1   0.700681 0.860030 0.861507 -0.020628
C3    C     C_1   0.140418 0.840980 0.861532 -0.021209
C4    C     C_1   0.158453 0.298661 0.861490 -0.021487
C5    C     C_1   0.635130 0.816195 0.657687 0.122576
C6    C     C_1   0.183704 0.818594 0.657728 0.122129
C7    C     C_1   0.182178 0.365774 0.657794 0.121952
C8    C     C_1   0.605533 0.797996 0.615529 0.058847
C9    C     C_1   0.201892 0.807240 0.615560 0.058944
C10   C     C_1   0.193373 0.395110 0.615626 0.058968
C11   C     C_R   0.066277 0.152754 0.095906 0.561371
C12   C     C_R   0.212477 0.446602 0.568573 0.541743
C13   C     C_R   0.776953 0.883289 0.087588 0.543329
C14   C     C_R   0.115968 0.894228 0.088223 0.543454
C15   C     C_R   0.107248 0.220691 0.951275 0.569731
C16   C     C_R   0.779409 0.886803 0.951228 0.554586
C17   C     C_R   0.113395 0.892856 0.951230 0.554050
C18   C     C_R   0.601888 0.883842 0.358229 -0.176265
C19   C     C_R   0.102536 0.728386 0.362451 -0.171711
C20   C     C_R   0.269107 0.373353 0.361709 -0.174050
C21   C     C_R   0.622286 0.895345 0.307998 -0.026908
C22   C     C_R   0.085763 0.740109 0.312916 -0.027026
C23   C     C_R   0.553516 0.765709 0.568536 0.540481
C24   C     C_R   0.248089 0.325140 0.315367 -0.026386
C25   C     C_R   0.656771 0.912764 0.206111 0.080910
C26   C     C_R   0.066737 0.756190 0.210944 0.062314
C27   C     C_R   0.210026 0.249203 0.217994 0.060082
C28   C     C_R   0.232418 0.788639 0.432290 0.567421
C29   C     C_R   0.211532 0.444018 0.432159 0.571410
C30   C     C_R   0.554516 0.766642 0.431678 0.571080
C31   C     C_R   0.623474 0.980060 0.229740 0.280948
C32   C     C_R   0.989822 0.661617 0.235962 0.258796
C33   C     C_R   0.316259 0.295833 0.237883 0.257257
C34   C     C_3   0.674841 0.740641 0.789235 0.147276
C35   C     C_R   0.606123 0.970547 0.280810 -0.118023
C36   C     C_R   0.000941 0.653868 0.286928 -0.116258
C37   C     C_R   0.334193 0.333009 0.286702 -0.119161
C38   C     C_R   0.688570 0.928791 0.156550 -0.101911
C39   C     C_R   0.056651 0.768762 0.160403 -0.097516
C40   C     C_R   0.190274 0.215604 0.168826 -0.088605
C41   C     C_R   0.717423 0.857822 0.133968 -0.057259
C42   C     C_R   0.136093 0.862057 0.136282 -0.053008
C43   C     C_R   0.086787 0.179233 0.148072 -0.053230
C44   C     C_R   0.657322 0.745651 0.362702 0.234994
C45   C     C_3   0.259630 0.933697 0.789253 0.147704
C46   C     C_R   0.250830 0.916724 0.365727 0.236028
C47   C     C_R   0.075322 0.309773 0.373349 0.236497
C48   C     C_R   0.666548 0.747927 0.311287 -0.015901
C49   C     C_R   0.244066 0.924927 0.314599 -0.016045
C50   C     C_R   0.054525 0.269654 0.324829 -0.014167
C51   C     C_R   0.651061 0.824758 0.284154 0.000578
C52   C     C_R   0.160771 0.836050 0.288257 -0.000371
C53   C     C_R   0.141375 0.276881 0.295980 0.000854
C54   C     C_R   0.681527 0.669258 0.286340 -0.128358
C55   C     C_R   0.324657 0.015524 0.289034 -0.131687
C56   C     C_3   0.065683 0.325634 0.789067 0.147959
C57   C     C_R   0.951704 0.233070 0.303163 -0.125192
C58   C     C_R   0.687312 0.669816 0.235101 0.244090
C59   C     C_R   0.322889 0.019436 0.237792 0.245687
C60   C     C_R   0.933881 0.202816 0.253611 0.239236
C61   C     C_R   0.683137 0.753526 0.208891 0.050168
C62   C     C_R   0.236653 0.933302 0.212065 0.053677
C63   C     C_R   0.018031 0.202695 0.226031 0.058974
C64   C     C_3   0.550652 0.821095 0.737635 0.386327
C65   C     C_3   0.179382 0.729739 0.737715 0.386757
C66   C     C_3   0.270465 0.449277 0.738093 0.386715
C67   C     C_3   0.676231 0.737036 0.731475 0.395000
C68   C     C_R   0.663390 0.830248 0.233083 -0.027537
C69   C     C_R   0.154433 0.841938 0.237131 -0.027411
C70   C     C_R   0.122665 0.240904 0.246964 -0.026346
C71   C     C_R   0.703143 0.764614 0.158927 -0.087394
C72   C     C_R   0.229479 0.938850 0.161527 -0.090256
C73   C     C_R   0.001065 0.171010 0.176838 -0.098759
C74   C     C_R   0.612516 0.804432 0.384952 0.043078
C75   C     C_R   0.190488 0.813427 0.387724 0.044089
C76   C     C_R   0.184369 0.371530 0.389441 0.043651
C77   C     C_3   0.756072 0.941454 0.724054 0.152016
C78   C     C_3   0.262736 0.938590 0.731498 0.395419
C79   C     C_3   0.058159 0.814414 0.724054 0.152647
C80   C     C_3   0.186364 0.244325 0.723963 0.151956
C81   C     C_3   0.773393 0.952019 0.781087 0.100881
C82   C     C_3   0.047986 0.821899 0.781080 0.100657
C83   C     C_3   0.178319 0.226073 0.780939 0.100135
C84   C     C_1   0.729905 0.871085 0.903739 0.006985
C85   C     C_1   0.129344 0.859173 0.903758 0.007033
C86   C     C_1   0.140475 0.269685 0.903729 0.005967
C87   C     C_3   0.654372 0.829034 0.711294 0.127269
C88   C     C_3   0.170956 0.825115 0.711330 0.127175
C89   C     C_3   0.061389 0.324651 0.731289 0.394978
C90   C     C_3   0.175377 0.346251 0.711371 0.127572
C91   C     C_3   0.572509 0.843633 0.794268 -0.260344
C92   C     C_3   0.156871 0.729265 0.794331 -0.260201
C93   C     C_3   0.270446 0.426646 0.794660 -0.259652
C94   C     C_3   0.681589 0.849098 0.807970 -0.042587
C95   C     C_3   0.151223 0.832673 0.808000 -0.043105
C96   C     C_3   0.166973 0.318000 0.807979 -0.042788
Cr1   Cr    Cr6+3 0.164410 0.584450 0.499910 1.081660
Cr2   Cr    Cr6+3 0.415550 0.579960 0.499910 1.081715
Cr3   Cr    Cr6+3 0.420040 0.835590 0.499910 1.080477
Cr4   Cr    Cr6+3 0.155170 0.075460 0.019960 1.054192
Cr5   Cr    Cr6+3 0.924540 0.079710 0.019960 1.049499
Cr6   Cr    Cr6+3 0.920290 0.844830 0.019960 1.047156
H1    H     H_    0.684605 0.604368 0.306142 0.106072
H2    H     H_    0.576430 0.922088 0.804225 0.150856
H3    H     H_    0.078365 0.655250 0.804260 0.150834
H4    H     H_    0.344642 0.421913 0.804710 0.151304
H5    H     H_    0.456027 0.666177 0.754942 0.358556
H6    H     H_    0.334624 0.790024 0.755024 0.357832
H7    H     H_    0.209662 0.544061 0.755500 0.357476
H8    H     H_    0.504313 0.780329 0.816577 0.097745
H9    H     H_    0.220397 0.724193 0.816669 0.098110
H10   H     H_    0.275081 0.494750 0.817133 0.098486
H11   H     H_    0.826052 0.780390 0.802502 0.394767
H12   H     H_    0.392784 0.081208 0.308280 0.104083
H13   H     H_    0.219774 0.045153 0.802732 0.394375
H14   H     H_    0.953877 0.174775 0.801605 0.395099
H15   H     H_    0.695681 0.998124 0.136307 0.185658
H16   H     H_    0.985564 0.709144 0.140245 0.190312
H17   H     H_    0.256044 0.221245 0.146134 0.201274
H18   H     H_    0.570258 0.931580 0.375692 0.152313
H19   H     H_    0.052102 0.650276 0.380169 0.147825
H20   H     H_    0.352780 0.418127 0.374829 0.148529
H21   H     H_    0.589923 0.097711 0.224950 0.331566
H22   H     H_    0.863003 0.515658 0.232648 0.324194
H23   H     H_    0.886445 0.234596 0.323438 0.111509
H24   H     H_    0.471053 0.346850 0.227484 0.326682
H25   H     H_    0.580502 0.022177 0.299324 0.092713
H26   H     H_    0.944029 0.580058 0.306221 0.098624
H27   H     H_    0.416230 0.371469 0.301804 0.096769
H28   H     H_    0.719646 0.706253 0.140461 0.208836
H29   H     H_    0.292232 0.009336 0.142230 0.208293
H30   H     H_    0.921351 0.141716 0.160172 0.183707
H31   H     H_    0.695153 0.535743 0.233849 0.324316
H32   H     H_    0.458011 0.159518 0.235855 0.322381
H33   H     H_    0.791800 0.194241 0.253939 0.325159
H34   H     H_    0.829472 0.945339 0.706775 0.265732
H35   H     H_    0.493088 0.874459 0.685524 0.396461
H36   H     H_    0.126243 0.619162 0.685608 0.396518
H37   H     H_    0.381557 0.506537 0.686234 0.396487
H38   H     H_    0.748548 0.681799 0.376753 0.317788
H39   H     H_    0.323120 0.071411 0.380555 0.318428
H40   H     H_    0.928442 0.220994 0.398674 0.319243
H41   H     H_    0.709014 0.052143 0.726093 0.355096
H42   H     H_    0.947838 0.657410 0.726545 0.354619
H43   H     H_    0.343714 0.290524 0.726840 0.354777
H44   H     H_    0.770339 0.025207 0.794476 0.130132
H45   H     H_    0.053515 0.883261 0.706587 0.265585
H46   H     H_    0.974759 0.746413 0.794612 0.130382
H47   H     H_    0.253873 0.227921 0.794623 0.130371
H48   H     H_    0.893978 0.993799 0.826440 0.329472
H49   H     H_    0.007306 0.901880 0.826324 0.329937
H50   H     H_    0.097818 0.105640 0.825850 0.330039
H51   H     H_    0.604490 0.577168 0.730553 0.346797
H52   H     H_    0.422753 0.026633 0.730432 0.347061
H53   H     H_    0.972873 0.396663 0.730229 0.346671
H54   H     H_    0.783717 0.689776 0.720972 0.378319
H55   H     H_    0.308860 0.092598 0.721092 0.378585
H56   H     H_    0.117718 0.171426 0.706235 0.265548
H57   H     H_    0.907268 0.217600 0.720242 0.378030
H58   H     H_    0.594796 0.672635 0.801956 0.147768
H59   H     H_    0.327925 0.921440 0.801879 0.147105
H60   H     H_    0.077451 0.405681 0.801894 0.147345
O1    O     O_R   0.137150 0.468200 0.553200 -0.481486
O2    O     O_R   0.140110 0.470540 0.446010 -0.444252
O3    O     O_R   0.529460 0.669570 0.446010 -0.444715
O4    O     O_R   0.330430 0.859890 0.446010 -0.443595
O5    O     O_R   0.176710 0.690910 0.450560 -0.524614
O6    O     O_R   0.309090 0.485800 0.450560 -0.523855
O7    O     O_R   0.514200 0.823290 0.450560 -0.525138
O8    O     O_3   0.333333 0.666667 0.499990 -0.307887
O9    O     O_R   0.176750 0.985260 0.074180 -0.527086
O10   O     O_R   0.014740 0.191490 0.074180 -0.489335
O11   O     O_R   0.808510 0.823250 0.074180 -0.514222
O12   O     O_R   0.531800 0.668950 0.553200 -0.483436
O13   O     O_R   0.146100 0.172630 0.068980 -0.489472
O14   O     O_R   0.827370 0.973470 0.068980 -0.519970
O15   O     O_R   0.026530 0.853900 0.068980 -0.496056
O16   O     O_3   1.000000 1.000000 0.020040 -0.263019
O17   O     O_R   0.148270 0.170520 0.969620 -0.492567
O18   O     O_R   0.829480 0.977750 0.969620 -0.499637
O19   O     O_R   0.022250 0.851730 0.969620 -0.496767
O20   O     O_3   0.459542 0.717084 0.729096 -0.591730
O21   O     O_3   0.283669 0.742416 0.729267 -0.591095
O22   O     O_3   0.257545 0.540747 0.729791 -0.592065
O23   O     O_R   0.331050 0.862850 0.553200 -0.482704
O24   O     O_3   0.753152 0.719410 0.810785 -0.710229
O25   O     O_3   0.280965 0.032947 0.810877 -0.710525
O26   O     O_3   0.966229 0.247764 0.810357 -0.710136
O27   O     O_3   0.608760 0.054313 0.202461 -0.661675
O28   O     O_3   0.907139 0.576764 0.209867 -0.674860
O29   O     O_3   0.402052 0.309803 0.208369 -0.670337
O30   O     O_3   0.698635 0.590649 0.210115 -0.675813
O31   O     O_3   0.404063 0.106663 0.212256 -0.670190
O32   O     O_3   0.837310 0.179639 0.230756 -0.687996
O33   O     O_3   0.527160 0.899734 0.718348 -0.660897
O34   O     O_R   0.179100 0.982980 0.967000 -0.493328
O35   O     O_3   0.100905 0.628010 0.718423 -0.659444
O36   O     O_3   0.372665 0.472478 0.719046 -0.660628
O37   O     O_3   0.684658 0.682302 0.391653 -0.674819
O38   O     O_3   0.320741 0.005235 0.394262 -0.674041
O39   O     O_3   0.991993 0.294358 0.404878 -0.672599
O40   O     O_3   0.748151 0.028779 0.703211 -0.691270
O41   O     O_3   0.971063 0.719163 0.703396 -0.691080
O42   O     O_3   0.282114 0.252436 0.703517 -0.691883
O43   O     O_3   0.876904 0.967052 0.792075 -0.639421
O44   O     O_3   0.033158 0.910548 0.791847 -0.638475
O45   O     O_R   0.017020 0.196120 0.967000 -0.488214
O46   O     O_3   0.089567 0.123030 0.791344 -0.637536
O47   O     O_3   0.594300 0.634360 0.714163 -0.665498
O48   O     O_3   0.365664 0.959434 0.714080 -0.665224
O49   O     O_3   0.040451 0.406809 0.714036 -0.665097
O50   O     O_3   0.778392 0.755918 0.713952 -0.654308
O51   O     O_3   0.242923 0.021341 0.714072 -0.654147
O52   O     O_3   0.978876 0.222865 0.713447 -0.654438
O53   O     O_R   0.803880 0.820900 0.967000 -0.491767
O54   O     O_R   0.173970 0.688730 0.549930 -0.496076
O55   O     O_R   0.311270 0.485240 0.549930 -0.495976
O56   O     O_R   0.514760 0.826030 0.549930 -0.495232

loop_
_geom_bond_atom_site_label_1
_geom_bond_atom_site_label_2
_ccdc_geom_bond_type
C25   C31   A    
C65   C92   S    
H35   O33   S    
C26   C32   A    
C15   O17   A    
C13   O14   A    
C18   C21   A    
C2    C84   T    
C82   O44   S    
C91   H2    S    
Cr4   O16   S    
C77   O40   S    
C6    C9    T    
C13   C41   S    
C79   C82   S    
H37   O36   S    
C60   O32   S    
C66   C90   S    
C29   C76   S    
C27   C33   A    
Cr6   O11   S    
C13   O11   A    
H14   O26   S    
C46   C49   A    
C20   C76   A    
C65   C88   S    
C60   C63   A    
C17   C85   S    
C32   C36   A    
C29   O6    A    
C22   C52   A    
H38   O37   S    
C12   O1    A    
C47   C76   A    
C55   C59   A    
C57   H23   S    
C30   C74   S    
C26   C39   A    
C21   C51   A    
H54   O50   S    
C83   C96   S    
C16   O18   A    
C64   O33   S    
C56   H60   S    
C16   C84   S    
C8    C23   S    
C6    C88   S    
C47   O39   S    
Cr5   O10   S    
C7    C10   T    
C34   O24   S    
C45   H59   S    
C79   C88   S    
Cr5   O16   S    
Cr5   O45   S    
C28   O5    A    
C4    C96   S    
C38   H15   S    
C46   O38   S    
C43   C73   A    
C40   C43   A    
C56   O26   S    
Cr1   O1    S    
Cr1   O54   S    
C63   C70   A    
C11   C43   S    
C45   C78   S    
C52   C69   A    
C77   H34   S    
H21   O27   S    
C78   O48   S    
C64   C87   S    
C20   H20   S    
C28   O4    A    
C41   C71   A    
Cr3   O4    S    
C64   O20   S    
C61   C71   A    
C58   C61   A    
C23   O56   A    
C11   O10   A    
C18   C74   A    
H57   O52   S    
Cr4   O9    S    
Cr6   O19   S    
C29   O2    A    
C36   H26   S    
C25   C68   A    
C1    O54   A    
C80   C83   S    
C53   C70   A    
C78   O51   S    
H22   O28   S    
C46   C75   A    
C39   C42   A    
Cr4   O34   S    
C26   C69   A    
C48   C51   A    
C50   C53   A    
H33   O32   S    
H5    O20   S    
C32   O28   S    
Cr2   O3    S    
H40   O39   S    
C20   C24   A    
C54   H1    S    
C2    C94   S    
C19   C22   A    
C1    C9    S    
H48   O43   S    
C38   C41   A    
C89   O49   S    
C23   O12   A    
C45   O25   S    
C57   C60   A    
C79   H45   S    
C63   C73   A    
C24   C53   A    
C49   C55   A    
C7    C90   S    
C92   C95   S    
C59   O31   S    
Cr1   O8    S    
C62   C69   A    
C5    C87   S    
C16   O53   A    
C48   C54   A    
C30   O7    A    
C83   O46   S    
C25   C38   A    
C5    C8    T    
H42   O41   S    
H13   O25   S    
Cr6   O53   S    
C80   H56   S    
Cr3   O56   S    
C77   C81   S    
C27   C40   A    
C49   C52   A    
C15   O45   A    
C40   H17   S    
Cr4   O13   S    
C42   C72   A    
C24   C37   A    
C62   C72   A    
C67   O50   S    
C14   O9    A    
C35   H25   S    
C11   O13   A    
C66   O36   S    
C27   C70   A    
C10   C12   S    
C15   C86   S    
C65   O35   S    
H7    O22   S    
C56   C89   S    
H39   O38   S    
C93   C96   S    
C79   O41   S    
C66   C93   S    
C93   H4    S    
C58   O30   S    
Cr6   O16   S    
C31   C35   A    
C3    C85   T    
C45   C95   S    
C18   H18   S    
C12   O55   A    
Cr3   O23   S    
C91   H8    S    
C72   H29   S    
C81   O43   S    
C65   O21   S    
C78   C88   S    
C56   C96   S    
C66   O22   S    
C19   H19   S    
C59   C62   A    
C82   C95   S    
H6    O21   S    
C50   C57   A    
C67   C87   S    
H50   O46   S    
C34   C94   S    
C30   O3    A    
C44   C74   A    
Cr5   O14   S    
C34   C67   S    
H43   O42   S    
C82   H46   S    
C92   H9    S    
Cr3   O7    S    
C55   H12   S    
C1    O23   A    
H32   O31   S    
C39   H16   S    
C22   C36   A    
C31   O27   S    
H55   O51   S    
C14   C42   S    
C47   C50   A    
C33   O29   S    
Cr1   O2    S    
Cr3   O8    S    
C19   C75   A    
C21   C35   A    
H52   O48   S    
Cr5   O18   S    
Cr1   O5    S    
C91   C94   S    
H51   O47   S    
C81   C94   S    
Cr4   O17   S    
C61   C68   A    
C80   O42   S    
Cr2   O12   S    
H11   O24   S    
H53   O49   S    
C37   H27   S    
C67   O47   S    
C51   C68   A    
H49   O44   S    
C80   C90   S    
H24   O29   S    
C33   C37   A    
C73   H30   S    
C14   O15   A    
C93   H10   S    
Cr2   O8    S    
H36   O35   S    
C17   O19   A    
C92   H3    S    
H41   O40   S    
C4    C86   T    
C77   C87   S    
C44   O37   S    
C81   H44   S    
Cr2   O55   S    
C54   C58   A    
Cr6   O15   S    
C17   O34   A    
C3    C95   S    
C64   C91   S    
C83   H47   S    
C89   C90   S    
C28   C75   S    
Cr2   O6    S    
C44   C48   A    
H31   O30   S    
C89   O52   S    
C71   H28   S    
C34   H58   S    
