data_mof_unit_28195.cif
_audit_creation_date              2012-12-11T17:24:04-0500
_audit_creation_method            fapswitch 2.2
_symmetry_space_group_name_H-M    P1
_symmetry_Int_Tables_number       1
_space_group_crystal_system       triclinic
_cell_length_a                    22.915264
_cell_length_b                    7.1949
_cell_length_c                    20.886585
_cell_angle_alpha                 89.994226
_cell_angle_beta                  93.552049
_cell_angle_gamma                 89.985252
_cell_volume                      3437.01901122

loop_
_atom_site_label
_atom_site_type_symbol
_atom_type_description
_atom_site_fract_x
_atom_site_fract_y
_atom_site_fract_z
_atom_type_partial_charge
O1    O     O_R   0.307200 0.614510 0.194080 -0.524148
O2    O     O_R   0.692800 0.385490 0.805920 -0.529330
O3    O     O_R   0.192800 0.114510 0.305920 -0.523371
O4    O     O_R   0.807200 0.885490 0.694080 -0.525550
O5    O     O_R   0.188140 0.283260 0.181690 -0.518072
O6    O     O_R   0.811860 0.716740 0.818310 -0.518561
O7    O     O_R   0.311860 0.783260 0.318310 -0.533738
O8    O     O_R   0.688140 0.216740 0.681690 -0.525601
C1    C     C_R   0.168393 0.453301 0.166332 0.792822
C2    C     C_R   0.830986 0.546389 0.834921 0.783869
C3    C     C_R   0.331442 0.953184 0.333812 0.796432
C4    C     C_R   0.668478 0.046684 0.665917 0.781470
O9    O     O_R   0.306460 0.284700 0.186400 -0.529051
O10   O     O_R   0.693540 0.715300 0.813600 -0.525744
O11   O     O_R   0.193540 0.784700 0.313600 -0.536116
O12   O     O_R   0.806460 0.215300 0.686400 -0.531601
O13   O     O_R   0.311970 0.115840 0.310660 -0.531891
O14   O     O_R   0.688030 0.884160 0.689340 -0.526784
O15   O     O_R   0.188030 0.615840 0.189340 -0.530234
O16   O     O_R   0.811970 0.384160 0.810660 -0.520334
C5    C     C_R   0.325295 0.453311 0.171667 0.728020
C6    C     C_R   0.674735 0.546683 0.828369 0.731349
C7    C     C_R   0.174724 0.953340 0.328356 0.744612
C8    C     C_R   0.825263 0.046669 0.671632 0.740831
O17   O     O_3   0.251670 0.448440 0.290760 -0.380555
O18   O     O_3   0.748330 0.551560 0.709240 -0.374039
O19   O     O_3   0.248330 0.948440 0.209240 -0.362088
O20   O     O_3   0.751670 0.051560 0.790760 -0.357738
V1    V     V_3+5 0.249690 0.173030 0.242440 1.630485
V2    V     V_3+5 0.750310 0.826970 0.757560 1.645907
V3    V     V_3+5 0.250310 0.673030 0.257560 1.602673
V4    V     V_3+5 0.749690 0.326970 0.742440 1.630938
C9    C     C_R   0.965921 0.160539 0.502715 -0.161284
C10   C     C_R   0.034478 0.839996 0.497768 -0.165399
C11   C     C_R   0.506521 0.660902 0.963649 -0.166790
C12   C     C_R   0.493598 0.339236 0.036507 -0.168652
H1    H     H_    0.939575 0.285342 0.504213 0.198780
H2    H     H_    0.060830 0.715208 0.496278 0.195190
H3    H     H_    0.511071 0.786044 0.935539 0.196877
H4    H     H_    0.489047 0.214094 0.064617 0.202167
C13   C     C_R   0.955340 0.011789 0.543944 -0.000178
C14   C     C_R   0.045023 0.988686 0.456494 -0.001780
C15   C     C_R   0.545206 0.511872 0.956734 -0.002128
C16   C     C_R   0.454908 0.488252 0.043413 -0.002011
C17   C     C_R   0.990081 0.850570 0.541220 0.301294
C18   C     C_R   0.010343 0.150022 0.459297 0.309997
C19   C     C_R   0.538400 0.349981 0.993560 0.301836
C20   C     C_R   0.461723 0.650163 0.006602 0.304463
C21   C     C_1   0.909045 0.026450 0.588626 0.109288
C22   C     C_1   0.091188 0.973816 0.411656 0.113304
C23   C     C_1   0.591199 0.526507 0.911679 0.108475
C24   C     C_1   0.408888 0.473564 0.088432 0.110291
C25   C     C_1   0.129442 0.963094 0.373949 -0.050031
C26   C     C_1   0.870664 0.037010 0.626183 -0.060469
C27   C     C_1   0.370642 0.462970 0.126150 -0.055269
C28   C     C_1   0.629420 0.537046 0.873927 -0.055976
C29   C     C_R   0.438026 0.996641 0.362887 0.209604
C30   C     C_R   0.564303 0.962321 0.634479 0.227943
C31   C     C_R   0.065404 0.371889 0.128903 0.239158
C32   C     C_R   0.930606 0.645265 0.879530 0.251684
C33   C     C_R   0.381394 0.962110 0.382314 -0.197837
C34   C     C_R   0.618259 0.035434 0.617192 -0.190494
C35   C     C_R   0.118101 0.464399 0.118316 -0.197008
C36   C     C_R   0.879703 0.537482 0.885900 -0.196097
C37   C     C_R   0.371928 0.937380 0.447482 0.245057
C38   C     C_R   0.625016 0.092484 0.553600 0.235867
C39   C     C_R   0.122025 0.577741 0.064050 0.268721
C40   C     C_R   0.875165 0.421374 0.940095 0.242891
C41   C     C_R   0.420237 0.927927 0.493489 -0.045594
C42   C     C_R   0.580251 0.055332 0.504962 -0.054156
C43   C     C_R   0.071671 0.613557 0.023209 -0.050771
C44   C     C_R   0.920244 0.420257 0.990209 -0.058363
C45   C     C_R   0.476558 0.982709 0.475446 -0.095976
C46   C     C_R   0.524145 0.997823 0.522986 -0.091266
C47   C     C_R   0.020691 0.505128 0.029041 -0.093472
C48   C     C_R   0.972608 0.522011 0.982335 -0.089863
C49   C     C_R   0.485393 0.020983 0.409827 -0.066735
C50   C     C_R   0.515606 0.954329 0.588332 -0.058679
C51   C     C_R   0.017636 0.381391 0.081868 -0.060788
C52   C     C_R   0.977161 0.641358 0.928280 -0.049832
C53   C     C_R   0.414265 0.867627 0.557079 0.230760
C54   C     C_R   0.589222 0.074786 0.438824 0.228830
C55   C     C_R   0.070353 0.756295 0.977170 0.189435
C56   C     C_R   0.915843 0.317420 0.047753 0.227420
C57   C     C_R   0.459090 0.897385 0.604697 0.417565
C58   C     C_R   0.541806 0.075989 0.393129 0.416378
C59   C     C_R   0.027325 0.757838 0.926353 0.413222
C60   C     C_R   0.965647 0.278834 0.087624 0.439693
Br1   Br    Br    0.022241 0.359219 0.404651 -0.440532
Br2   Br    Br    0.978326 0.641722 0.596080 -0.487717
Br3   Br    Br    0.410792 0.859870 0.013630 -0.460108
Br4   Br    Br    0.589347 0.140299 0.986561 -0.445561
Br5   Br    Br    0.447521 0.995049 0.271060 -0.486428
Br6   Br    Br    0.560690 0.875409 0.722393 -0.497734
Br7   Br    Br    0.059074 0.255972 0.212242 -0.425006
Br8   Br    Br    0.936417 0.776887 0.798710 -0.467630
Br9   Br    Br    0.291876 0.960298 0.471522 -0.463649
Br10  Br    Br    0.691670 0.249049 0.538456 -0.443971
Br11  Br    Br    0.199560 0.644462 0.039649 -0.411656
Br12  Br    Br    0.811277 0.243446 0.938238 -0.409520
Br13  Br    Br    0.352367 0.703541 0.580935 -0.381932
Br14  Br    Br    0.665084 0.055432 0.403581 -0.313756
Br15  Br    Br    0.115142 0.982601 0.991195 -0.450464
Br16  Br    Br    0.843198 0.261060 0.086126 -0.286721
O21   O     O_3   0.446847 0.862238 0.667454 -0.510759
C61   C     C_3   0.420358 0.022089 0.692106 -0.024051
H5    H     H_    0.377482 0.051983 0.666196 0.152278
H6    H     H_    0.449563 0.145492 0.690372 0.130984
H7    H     H_    0.412138 0.996575 0.743143 0.183695
O22   O     O_3   0.552354 0.126737 0.331128 -0.502205
C62   C     C_3   0.548503 0.322210 0.326503 -0.013662
H8    H     H_    0.582867 0.391275 0.358123 0.144847
H9    H     H_    0.504392 0.372867 0.337885 0.105974
H10   H     H_    0.555532 0.363348 0.276380 0.191402
O23   O     O_3   0.031595 0.891163 0.879208 -0.517072
C63   C     C_3   0.075594 0.836810 0.838385 -0.007323
H11   H     H_    0.067156 0.695475 0.818095 0.139504
H12   H     H_    0.119819 0.841426 0.863305 0.159870
H13   H     H_    0.075465 0.935638 0.797609 0.181198
O24   O     O_3   0.961351 0.144044 0.134210 -0.495617
C64   C     C_3   0.974590 0.970368 0.107160 -0.046662
H14   H     H_    0.020417 0.966849 0.092474 0.134104
H15   H     H_    0.943659 0.935380 0.065676 0.125321
H16   H     H_    0.970386 0.860998 0.144022 0.186403

loop_
_geom_bond_atom_site_label_1
_geom_bond_atom_site_label_2
_ccdc_geom_bond_type
O17   V3    S    
C55   C59   A    
C30   C34   A    
O19   V1    S    
O13   V1    S    
C19   Br4   S    
O3    C7    A    
C62   H8    S    
C10   C14   A    
C44   C48   A    
O15   V3    S    
C18   Br1   S    
C53   Br13  S    
O1    C5    A    
C55   Br15  S    
C36   C40   A    
O9    V1    S    
C58   O22   S    
C52   C59   A    
C14   C18   A    
C11   H3    S    
O4    C8    A    
C61   H5    S    
C8    C26   S    
C21   C26   T    
O1    V3    S    
C63   H11   S    
C12   C19   A    
O2    V4    S    
C23   C28   T    
C45   C46   A    
O3    V1    S    
C42   C46   A    
C64   H16   S    
O22   C62   S    
C1    O15   A    
C3    O13   A    
C2    O16   A    
C20   Br3   S    
O2    C6    A    
C41   C45   A    
O14   V2    S    
C60   O24   S    
C11   C15   A    
C59   O23   S    
C24   C27   T    
C39   Br11  S    
C16   C24   S    
O11   C7    A    
O12   C8    A    
C10   H2    S    
C9    C18   A    
C31   Br7   S    
O10   V2    S    
C57   O21   S    
C11   C20   A    
C13   C21   S    
C51   C60   A    
C7    C25   S    
C43   C55   A    
C35   C39   A    
C22   C25   T    
O7    V3    S    
C34   C38   A    
O8    V4    S    
C29   C49   A    
C12   H4    S    
C31   C51   A    
C5    C27   S    
O18   V4    S    
C6    C28   S    
C54   C58   A    
C9    H1    S    
C40   C44   A    
C56   C60   A    
O7    C3    A    
C47   C48   A    
C40   Br12  S    
O5    C1    A    
C4    C34   S    
O8    C4    A    
C54   Br14  S    
O9    C5    A    
C62   H9    S    
C10   C17   A    
O11   V3    S    
C17   Br2   S    
C64   H14   S    
C44   C56   A    
C14   C22   S    
C32   Br8   S    
C50   C57   A    
O6    V2    S    
C49   C58   A    
O10   C6    A    
C56   Br16  S    
C12   C16   A    
O5    V1    S    
O24   C64   S    
O16   V4    S    
C32   C52   A    
C45   C49   A    
C1    C35   S    
C2    C36   S    
C48   C52   A    
C15   C19   A    
C3    C33   S    
O6    C2    A    
C29   C33   A    
O12   V4    S    
O21   C61   S    
C31   C35   A    
C63   H13   S    
C32   C36   A    
C9    C13   A    
C38   Br10  S    
O20   V2    S    
C30   Br6   S    
C37   Br9   S    
C16   C20   A    
C43   C47   A    
C15   C23   S    
C38   C42   A    
C61   H6    S    
C37   C41   A    
C63   H12   S    
C62   H10   S    
C39   C43   A    
C42   C54   A    
C53   C57   A    
C64   H15   S    
C41   C53   A    
C30   C50   A    
C33   C37   A    
C46   C50   A    
C4    O14   A    
C13   C17   A    
C29   Br5   S    
C47   C51   A    
O4    V2    S    
O23   C63   S    
C61   H7    S    
