data_mof_unit_21842.cif
_audit_creation_date              2012-12-10T17:30:27-0500
_audit_creation_method            fapswitch 2.2
_symmetry_space_group_name_H-M    P1
_symmetry_Int_Tables_number       1
_space_group_crystal_system       triclinic
_cell_length_a                    12.016903
_cell_length_b                    12.85158
_cell_length_c                    15.034253
_cell_angle_alpha                 90.817108
_cell_angle_beta                  85.680094
_cell_angle_gamma                 93.587164
_cell_volume                      2310.59406153

loop_
_atom_site_label
_atom_site_type_symbol
_atom_type_description
_atom_site_fract_x
_atom_site_fract_y
_atom_site_fract_z
_atom_type_partial_charge
C1    C     C_R   0.522500 0.700171 0.496099 0.938998
C2    C     C_R   0.382842 0.140200 0.572277 0.339194
C3    C     C_R   0.461651 0.868262 0.540881 -0.284736
C4    C     C_R   0.538356 0.131738 0.459131 -0.284735
C5    C     C_R   0.460189 0.974897 0.531110 0.069657
C6    C     C_R   0.539831 0.025106 0.468913 0.069654
C7    C     C_R   0.957008 0.408440 0.410480 0.291781
C8    C     C_R   0.042993 0.591568 0.589514 0.291782
C9    C     C_R   0.840154 0.416821 0.419623 0.027105
C10   C     C_R   0.159846 0.583182 0.580375 0.027102
C11   C     C_R   0.856765 0.537904 0.539009 0.016866
C12   C     C_R   0.477501 0.299828 0.503901 0.939007
C13   C     C_R   0.143235 0.462099 0.460990 0.016855
C14   C     C_R   0.974646 0.532888 0.532622 -0.061461
C15   C     C_R   0.025355 0.467116 0.467375 -0.061461
C16   C     C_R   0.499780 0.499954 0.673341 0.905851
C17   C     C_R   0.500219 0.500049 0.326659 0.905842
C18   C     C_R   0.399245 0.499966 0.191407 -0.194211
C19   C     C_R   0.600749 0.500095 0.808596 -0.194234
C20   C     C_R   0.500404 0.500273 0.230791 -0.092649
C21   C     C_R   0.499591 0.499759 0.769210 -0.092645
C22   C     C_R   0.601445 0.500857 0.179115 -0.132897
C23   C     C_R   0.705241 0.499496 0.941203 -0.135979
C24   C     C_R   0.398550 0.499192 0.820886 -0.132886
C25   C     C_R   0.603103 0.500274 0.086649 0.019479
C26   C     C_R   0.396894 0.499811 0.913352 0.019474
C27   C     C_R   0.500072 0.500147 0.046355 0.014463
C28   C     C_R   0.499925 0.499945 0.953647 0.014467
C29   C     C_R   0.397179 0.500257 0.099083 0.028975
C30   C     C_R   0.602817 0.499836 0.900920 0.028981
C31   C     C_R   0.705362 0.499737 0.034155 0.348371
C32   C     C_R   0.294637 0.500378 0.965846 0.348365
C33   C     C_1   0.811000 0.498406 0.887904 0.338208
C34   C     C_R   0.294758 0.500628 0.058799 -0.135964
C35   C     C_1   0.189004 0.501767 0.112098 0.338214
C36   C     C_1   0.702468 0.018164 0.355158 0.286035
C37   C     C_1   0.297606 0.981850 0.644914 0.286039
C38   C     C_1   0.228795 0.641682 0.640141 0.365351
C39   C     C_1   0.771205 0.358320 0.359857 0.365341
C40   C     C_R   0.462836 0.188661 0.510799 -0.142181
C41   C     C_R   0.537168 0.811339 0.489209 -0.142188
C42   C     C_R   0.619414 0.967779 0.418090 -0.089332
C43   C     C_R   0.380619 0.032228 0.581945 -0.089330
C44   C     C_R   0.617179 0.859805 0.427745 0.339202
Cl1   Cl    Cl    0.015883 0.324567 0.327499 -0.576330
Cl2   Cl    Cl    0.984120 0.675455 0.672485 -0.576336
Cl3   Cl    Cl    0.834985 0.498811 0.083631 -0.527006
Cl4   Cl    Cl    0.165015 0.501340 0.916369 -0.527015
Cl5   Cl    Cl    0.290742 0.214185 0.641756 -0.549713
Cl6   Cl    Cl    0.709287 0.785825 0.358271 -0.549692
H1    H     H_    0.321948 0.499293 0.233376 0.168736
H2    H     H_    0.678044 0.500760 0.766628 0.168730
H3    H     H_    0.678563 0.501961 0.211859 0.220769
H4    H     H_    0.321430 0.498069 0.788142 0.220766
H5    H     H_    0.597638 0.172248 0.411985 0.175131
H6    H     H_    0.402361 0.827750 0.588019 0.175134
H7    H     H_    0.184719 0.412466 0.412050 0.191236
H8    H     H_    0.815281 0.587535 0.587948 0.191230
N1    N     N_R   0.207800 0.519350 0.516680 -0.154388
N2    N     N_R   0.792200 0.480650 0.483320 -0.154386
N3    N     N_1   0.895258 0.497443 0.845299 -0.052330
N4    N     N_1   0.104749 0.502772 0.154706 -0.052377
N5    N     N_1   0.768812 0.058275 0.304976 -0.099179
N6    N     N_1   0.231297 0.941747 0.695128 -0.099186
N7    N     N_1   0.282836 0.688786 0.689075 -0.189742
N8    N     N_1   0.717163 0.311215 0.310924 -0.189752
O1    O     O_R   0.421700 0.658830 0.504450 -0.639905
O2    O     O_R   0.578300 0.341170 0.495550 -0.639903
O3    O     O_R   0.609310 0.646410 0.493750 -0.570223
O4    O     O_R   0.390690 0.353590 0.506250 -0.570224
O5    O     O_R   0.406180 0.506230 0.637500 -0.619588
O6    O     O_R   0.593820 0.493770 0.362500 -0.619589
O7    O     O_R   0.593800 0.493820 0.626800 -0.635928
O8    O     O_R   0.406200 0.506180 0.373200 -0.635929
Zn1   Zn    Zn3+2 0.374730 0.508290 0.507150 1.001609
Zn2   Zn    Zn3+2 0.625270 0.491710 0.492850 1.001612

loop_
_geom_bond_atom_site_label_1
_geom_bond_atom_site_label_2
_ccdc_geom_bond_type
C25   C31   A    
C26   C32   A    
C16   C21   S    
C27   C29   A    
C36   C42   S    
O6    Zn2   S    
C12   O2    A    
C7    Cl1   S    
C19   C21   A    
C24   C26   A    
C5    C6    A    
C11   C14   A    
C13   H7    S    
C24   H4    S    
C9    C39   S    
C17   C20   S    
O3    Zn2   S    
C34   C35   S    
C12   C40   S    
C1    O1    A    
C19   H2    S    
C4    C40   A    
C23   C33   S    
C22   C25   A    
C36   N5    T    
C7    C15   A    
C5    C43   A    
C31   Cl3   S    
C32   Cl4   S    
C16   O5    A    
C42   C44   A    
C18   H1    S    
C22   H3    S    
O8    Zn1   S    
C16   O7    A    
C23   C30   A    
C4    C6    A    
C29   C34   A    
N2    Zn2   S    
C1    O3    A    
C23   C31   A    
C37   C43   S    
C2    Cl5   S    
C3    H6    S    
C38   N7    T    
C2    C43   A    
C18   C29   A    
C1    C41   S    
C20   C22   A    
C13   C15   A    
C4    H5    S    
C17   O8    A    
C41   C44   A    
O1    Zn1   S    
C11   N2    A    
C11   H8    S    
N1    Zn1   S    
O4    Zn1   S    
C37   N6    T    
C44   Cl6   S    
C7    C9    A    
C12   O4    A    
C3    C41   A    
C8    C14   A    
C8    C10   A    
C3    C5    A    
C13   N1    A    
O2    Zn2   S    
C26   C28   A    
C10   C38   S    
C9    N2    A    
C28   C30   A    
C10   N1    A    
O5    Zn1   S    
C39   N8    T    
C35   N4    T    
C18   C20   A    
C8    Cl2   S    
C2    C40   A    
O7    Zn2   S    
C17   O6    A    
C33   N3    T    
C6    C42   A    
C21   C24   A    
C27   C28   A    
C14   C15   A    
C19   C30   A    
C32   C34   A    
C25   C27   A    
