data_mof_unit_27254.cif
_audit_creation_date              2012-12-10T18:21:17-0500
_audit_creation_method            fapswitch 2.2
_symmetry_space_group_name_H-M    P1
_symmetry_Int_Tables_number       1
_space_group_crystal_system       triclinic
_cell_length_a                    14.952585
_cell_length_b                    13.998654
_cell_length_c                    10.709659
_cell_angle_alpha                 90.086905
_cell_angle_beta                  89.826453
_cell_angle_gamma                 89.778749
_cell_volume                      2241.6740511

loop_
_atom_site_label
_atom_site_type_symbol
_atom_type_description
_atom_site_fract_x
_atom_site_fract_y
_atom_site_fract_z
_atom_type_partial_charge
C1    C     C_R   0.326869 0.500140 0.505304 0.871628
C2    C     C_R   0.043017 0.369291 0.658790 -0.207869
C3    C     C_R   0.091878 0.435311 0.587191 0.114262
C4    C     C_R   0.499785 0.500687 0.257639 0.880266
C5    C     C_R   0.046350 0.499142 0.506408 -0.020780
C6    C     C_R   0.093688 0.564294 0.430408 0.097796
C7    C     C_R   0.047640 0.628701 0.351806 0.111320
C8    C     C_R   0.954208 0.628754 0.351871 -0.261851
C9    C     C_R   0.185156 0.439169 0.595468 0.059094
C10   C     C_R   0.231287 0.500628 0.513317 -0.108933
C11   C     C_R   0.186275 0.563065 0.434007 -0.286618
C12   C     C_3   0.501858 0.613499 0.926011 0.197458
C13   C     C_R   0.550470 0.797147 0.413698 -0.020364
C14   C     C_R   0.550191 0.202242 0.413361 -0.033922
C15   C     C_R   0.450000 0.798747 0.585715 -0.051820
C16   C     C_R   0.450242 0.201865 0.586037 -0.059220
C17   C     C_R   0.449396 0.899287 0.587376 0.034099
C18   C     C_R   0.449471 0.101313 0.587485 0.038862
C19   C     C_R   0.673203 0.499795 0.499248 0.883608
C20   C     C_R   0.500885 0.949386 0.498538 0.038155
C21   C     C_R   0.500875 0.050591 0.498535 0.036929
C22   C     C_R   0.552115 0.898152 0.410112 -0.020217
C23   C     C_R   0.814575 0.564998 0.426565 -0.246837
C24   C     C_R   0.551988 0.101201 0.409972 -0.013961
C25   C     C_R   0.398564 0.950511 0.675499 -0.207482
C26   C     C_R   0.398609 0.050677 0.675561 -0.203413
C27   C     C_R   0.603209 0.050177 0.320835 0.054043
C28   C     C_R   0.603322 0.948542 0.320964 0.054030
C29   C     C_R   0.501842 0.500794 0.742437 0.882336
C30   C     C_3   0.413189 0.456295 0.070652 -0.158381
C31   C     C_3   0.579470 0.438995 0.071315 -0.132354
C32   C     C_3   0.417985 0.451657 0.926924 -0.467789
C33   C     C_3   0.586074 0.450394 0.928316 -0.504479
C34   C     C_R   0.768487 0.499015 0.499349 -0.065822
C35   C     C_3   0.512548 0.612915 0.073214 0.202705
C36   C     C_3   0.500812 0.504412 0.121350 0.104500
C37   C     C_3   0.502517 0.505017 0.878726 0.078714
C38   C     C_R   0.812984 0.432087 0.572680 -0.269773
C39   C     C_R   0.905418 0.432121 0.576259 0.136700
C40   C     C_R   0.953126 0.498406 0.502778 0.067458
C41   C     C_R   0.907238 0.564404 0.426560 0.092568
C42   C     C_R   0.950491 0.367520 0.652785 -0.237401
H1    H     H_    0.075769 0.318108 0.719152 0.164660
H2    H     H_    0.714521 0.414137 0.087942 0.192352
H3    H     H_    0.204909 0.404396 0.776548 0.160306
H4    H     H_    0.298240 0.399352 0.695896 0.187216
H5    H     H_    0.224525 0.610031 0.373861 0.181432
H6    H     H_    0.124964 0.654254 0.201134 0.175416
H7    H     H_    0.051900 0.742498 0.230890 0.181236
H8    H     H_    0.589291 0.755346 0.347913 0.172179
H9    H     H_    0.588645 0.243597 0.347085 0.157811
H10   H     H_    0.410509 0.759015 0.652512 0.149058
H11   H     H_    0.411149 0.242093 0.653381 0.134336
H12   H     H_    0.918105 0.678527 0.292928 0.142850
H13   H     H_    0.358786 0.913079 0.744416 0.135553
H14   H     H_    0.358830 0.088567 0.744497 0.138404
H15   H     H_    0.722099 0.082854 0.239924 0.185848
H16   H     H_    0.633357 0.082936 0.141088 0.180891
H17   H     H_    0.722348 0.914903 0.240239 0.185060
H18   H     H_    0.633608 0.914828 0.141344 0.175144
H19   H     H_    0.410527 0.381138 0.105308 0.158285
H20   H     H_    0.562500 0.362741 0.090352 0.158122
H21   H     H_    0.457279 0.749181 0.102610 0.160347
H22   H     H_    0.380651 0.661938 0.120970 0.200663
H23   H     H_    0.421638 0.375194 0.898160 0.172547
H24   H     H_    0.654257 0.618017 0.060467 0.199600
H25   H     H_    0.606923 0.720701 0.106999 0.173002
H26   H     H_    0.417799 0.732340 0.900373 0.163571
H27   H     H_    0.360347 0.630724 0.929227 0.187773
H28   H     H_    0.636523 0.636903 0.865485 0.161100
H29   H     H_    0.577592 0.738447 0.901853 0.165762
H30   H     H_    0.778153 0.615600 0.369019 0.156073
H31   H     H_    0.775441 0.381764 0.629083 0.149947
H32   H     H_    0.914132 0.316193 0.708886 0.146086
H33   H     H_    0.589935 0.377839 0.885759 0.183662
H34   H     H_    0.355908 0.479428 0.883103 0.167947
H35   H     H_    0.649031 0.486335 0.900882 0.173719
H36   H     H_    0.325591 0.496499 0.209682 0.181607
H37   H     H_    0.276190 0.465785 0.076497 0.191514
H38   H     H_    0.663478 0.433388 0.223748 0.192662
N1    N     N_R   0.500070 0.750030 0.500050 -0.111740
N2    N     N_3   0.602006 0.646398 0.113176 -0.439897
N3    N     N_3   0.416846 0.658498 0.885650 -0.451126
N4    N     N_3   0.573782 0.669386 0.865026 -0.429492
N5    N     N_R   0.500070 0.249970 0.500050 -0.112498
N6    N     N_3   0.330665 0.503313 0.112723 -0.485305
N7    N     N_3   0.666079 0.457019 0.131311 -0.465402
N8    N     N_3   0.230501 0.383323 0.689740 -0.468333
N9    N     N_3   0.095796 0.694166 0.273236 -0.463349
N10   N     N_3   0.654840 0.101960 0.230458 -0.490416
N11   N     N_3   0.655138 0.896134 0.230802 -0.497265
N12   N     N_3   0.447468 0.679076 0.133204 -0.427500
O1    O     O_R   0.367860 0.580280 0.500020 -0.619962
O2    O     O_R   0.367860 0.419720 0.500020 -0.613167
O3    O     O_R   0.500000 0.580270 0.314790 -0.585492
O4    O     O_R   0.500000 0.419730 0.314790 -0.655793
O5    O     O_R   0.632160 0.580270 0.499960 -0.619041
O6    O     O_R   0.632160 0.419730 0.499960 -0.629108
O7    O     O_R   0.500030 0.580270 0.685200 -0.583823
O8    O     O_R   0.500030 0.419730 0.685200 -0.648151
Zn1   Zn    Zn3+2 0.500020 0.607200 0.499990 0.967361
Zn2   Zn    Zn3+2 0.500020 0.392800 0.499990 0.928521

loop_
_geom_bond_atom_site_label_1
_geom_bond_atom_site_label_2
_ccdc_geom_bond_type
C4    C36   S    
O4    Zn2   S    
C18   C21   A    
C11   H5    S    
C35   C36   S    
C18   C26   A    
C24   C27   A    
C35   N2    S    
C19   O5    A    
C7    C8    A    
C15   N1    A    
N1    Zn1   S    
C3    C9    A    
H38   N7    S    
C9    N8    S    
C38   C39   A    
C7    N9    S    
C13   N1    A    
C17   C20   A    
C12   N4    S    
C27   N10   S    
C14   C24   A    
C12   C37   S    
C16   H11   S    
C4    O4    A    
C33   H33   S    
C1    O2    A    
H21   N12   S    
C31   C33   S    
C30   N6    S    
H2    N7    S    
H28   N4    S    
C9    C10   A    
C35   N12   S    
H36   N6    S    
C22   C28   A    
C31   H20   S    
C19   O6    A    
C39   C42   A    
H4    N8    S    
C42   H32   S    
C31   N7    S    
H15   N10   S    
C29   O7    A    
H3    N8    S    
C8    C41   A    
O1    Zn1   S    
C39   C40   A    
C25   C26   A    
C32   C37   S    
C33   C37   S    
C12   N3    S    
H27   N3    S    
H24   N2    S    
C4    O3    A    
C14   H9    S    
C2    H1    S    
C23   C34   A    
O8    Zn2   S    
H17   N11   S    
C15   H10   S    
C12   C35   S    
H16   N10   S    
C1    O1    A    
C40   C41   A    
O7    Zn1   S    
C20   C22   A    
H6    N9    S    
C16   N5    A    
C21   C24   A    
C5    C40   A    
H22   N12   S    
C8    H12   S    
C6    C11   A    
H29   N4    S    
H18   N11   S    
C15   C17   A    
C29   O8    A    
C34   C38   A    
H26   N3    S    
C23   H30   S    
C1    C10   S    
C25   H13   S    
C14   N5    A    
H7    N9    S    
C3    C5    A    
C19   C34   S    
C26   H14   S    
C32   H34   S    
C6    C7    A    
C23   C41   A    
C30   C36   S    
C17   C25   A    
C2    C3    A    
O6    Zn2   S    
C30   C32   S    
C33   H35   S    
C5    C6    A    
C2    C42   A    
C13   C22   A    
C28   N11   S    
C10   C11   A    
C13   H8    S    
C20   C21   A    
O2    Zn2   S    
H25   N2    S    
C16   C18   A    
C30   H19   S    
C29   C37   S    
C27   C28   A    
C31   C36   S    
H37   N6    S    
O5    Zn1   S    
N5    Zn2   S    
O3    Zn1   S    
C32   H23   S    
C38   H31   S    
