data_mof_unit_57176.cif
_audit_creation_date              2013-03-05T15:47:33-0500
_audit_creation_method            fapswitch 2.2
_symmetry_space_group_name_H-M    P1
_symmetry_Int_Tables_number       1
_space_group_crystal_system       triclinic
_cell_length_a                    7.197228
_cell_length_b                    14.880592
_cell_length_c                    22.850521
_cell_angle_alpha                 90.026205
_cell_angle_beta                  90.049005
_cell_angle_gamma                 87.944832
_cell_volume                      2445.6929572

loop_
_atom_site_label
_atom_site_type_symbol
_atom_site_description
_atom_site_fract_x
_atom_site_fract_y
_atom_site_fract_z
_atom_type_partial_charge
O1    O     O_R   0.390810 0.844810 0.447340 -0.569525
O2    O     O_R   0.109190 0.155190 0.947340 -0.570470
O3    O     O_R   0.890810 0.655190 0.552660 -0.630866
O4    O     O_R   0.609190 0.344810 0.052660 -0.628105
O5    O     O_R   0.720550 0.655820 0.440420 -0.600309
O6    O     O_R   0.779450 0.344180 0.940420 -0.601754
O7    O     O_R   0.220550 0.844180 0.559580 -0.568225
O8    O     O_R   0.279450 0.155820 0.059580 -0.568060
C1    C     C_R   0.554069 0.626820 0.426229 0.973980
C2    C     C_R   0.945761 0.373118 0.926211 0.998197
C3    C     C_R   0.049688 0.873162 0.573635 1.003495
C4    C     C_R   0.450407 0.126878 0.073648 1.002528
O9    O     O_R   0.720530 0.844130 0.440420 -0.623341
O10   O     O_R   0.779470 0.155870 0.940420 -0.623057
O11   O     O_R   0.220530 0.655870 0.559580 -0.576165
O12   O     O_R   0.279470 0.344130 0.059580 -0.573599
O13   O     O_R   0.890830 0.844810 0.552660 -0.608842
O14   O     O_R   0.609170 0.155190 0.052660 -0.609309
O15   O     O_R   0.390830 0.655190 0.447340 -0.555112
O16   O     O_R   0.109170 0.344810 0.947340 -0.557043
C5    C     C_R   0.549613 0.869698 0.423569 0.915377
C6    C     C_R   0.950299 0.130287 0.923579 0.911296
C7    C     C_R   0.053100 0.630231 0.576690 0.951239
C8    C     C_R   0.447051 0.369720 0.076746 0.946105
O17   O     O_3   0.557310 0.749980 0.536820 -0.299674
O18   O     O_3   0.942690 0.250020 0.036820 -0.298205
O19   O     O_3   0.057310 0.750020 0.463180 -0.266334
O20   O     O_3   0.442690 0.249980 0.963180 -0.267015
V1    V     V_3+5 0.832160 0.749980 0.493170 1.156451
V2    V     V_3+5 0.667840 0.250020 0.993170 1.157318
V3    V     V_3+5 0.332160 0.750020 0.506830 1.213918
V4    V     V_3+5 0.167840 0.249980 0.006830 1.216992
C9    C     C_R   0.800879 0.594069 0.858864 0.005021
C10   C     C_R   0.696495 0.404636 0.359193 0.020529
C11   C     C_R   0.580062 0.897295 0.131815 0.041790
C12   C     C_R   0.922375 0.103134 0.631741 0.040803
C13   C     C_R   0.943542 0.448789 0.884255 -0.279692
C14   C     C_R   0.555227 0.550163 0.384945 -0.297567
C15   C     C_R   0.469245 0.051553 0.115597 -0.296643
C16   C     C_R   0.031149 0.948541 0.615581 -0.296795
C17   C     C_R   0.200072 0.492094 0.612377 -0.154412
C18   C     C_R   0.301162 0.508166 0.112435 -0.159671
C19   C     C_R   0.421473 0.017581 0.399779 -0.148789
C20   C     C_R   0.077192 0.982170 0.899831 -0.148727
C21   C     C_R   0.280092 0.443047 0.657685 -0.128721
C22   C     C_R   0.222345 0.557822 0.157663 -0.125886
C23   C     C_R   0.333891 0.077048 0.361424 -0.134456
C24   C     C_R   0.164378 0.922503 0.861529 -0.133800
C25   C     C_R   0.214677 0.454515 0.714116 -0.043805
C26   C     C_R   0.288023 0.546489 0.214108 -0.045356
C27   C     C_R   0.354973 0.065655 0.301673 -0.051945
C28   C     C_R   0.143888 0.934004 0.801761 -0.051688
C29   C     C_R   0.051049 0.506407 0.726014 0.115271
C30   C     C_R   0.450729 0.493927 0.226109 0.116899
C31   C     C_R   0.481285 0.000236 0.278272 0.127545
C32   C     C_R   0.018628 0.999833 0.778257 0.127615
C33   C     C_R   0.974584 0.563259 0.680350 0.036794
C34   C     C_R   0.526393 0.436769 0.180474 0.038748
C35   C     C_R   0.566205 0.935150 0.317391 0.016799
C36   C     C_R   0.934287 0.065131 0.817324 0.015995
C37   C     C_R   0.971376 0.507201 0.783663 -0.108817
C38   C     C_R   0.529978 0.492701 0.283873 -0.109501
C39   C     C_R   0.512034 0.994513 0.216264 -0.104137
C40   C     C_R   0.988446 0.005721 0.716217 -0.103969
C41   C     C_R   0.844737 0.578781 0.798933 0.026344
C42   C     C_R   0.655578 0.420883 0.299165 0.016340
C43   C     C_R   0.593823 0.914007 0.192924 0.009764
C44   C     C_R   0.908086 0.086521 0.692835 0.010587
C45   C     C_R   0.758695 0.629882 0.753435 0.108544
C46   C     C_R   0.741982 0.369939 0.253656 0.109811
C47   C     C_R   0.694014 0.854992 0.231234 0.123766
C48   C     C_R   0.808753 0.145950 0.731084 0.123637
C49   C     C_R   0.818212 0.620344 0.695299 -0.006554
C50   C     C_R   0.682459 0.379485 0.195478 -0.006459
C51   C     C_R   0.684003 0.866511 0.292108 -0.009140
C52   C     C_R   0.817978 0.134294 0.791955 -0.009720
C53   C     C_R   0.007686 0.437494 0.826146 0.248337
C54   C     C_R   0.494576 0.562342 0.326419 0.259012
C55   C     C_R   0.468860 0.067117 0.176641 0.272533
C56   C     C_R   0.030847 0.932998 0.676606 0.272974
C57   C     C_R   0.852081 0.529141 0.901171 -0.026290
C58   C     C_R   0.641210 0.467767 0.402134 -0.012039
C59   C     C_R   0.514537 0.965329 0.093830 -0.046917
C60   C     C_R   0.987053 0.034859 0.593796 -0.046914
C61   C     C_R   0.060094 0.558530 0.622797 -0.185812
C62   C     C_R   0.440545 0.441459 0.122906 -0.186007
C63   C     C_R   0.527141 0.942968 0.379392 -0.173433
C64   C     C_R   0.972529 0.057058 0.879369 -0.171530
H1    H     H_    0.262713 0.484816 0.569391 0.113181
H2    H     H_    0.238305 0.515406 0.069451 0.116623
H3    H     H_    0.393271 0.025622 0.446117 0.105960
H4    H     H_    0.104958 0.974031 0.946202 0.105767
H5    H     H_    0.296731 0.422886 0.748383 0.153856
H6    H     H_    0.206847 0.578740 0.248319 0.154101
H7    H     H_    0.266210 0.107653 0.274217 0.151107
H8    H     H_    0.232343 0.891770 0.774379 0.151133
H9    H     H_    0.400392 0.399070 0.649422 0.116576
H10   H     H_    0.102701 0.602213 0.149336 0.117039
H11   H     H_    0.241031 0.129880 0.378125 0.117568
H12   H     H_    0.256477 0.869403 0.878298 0.117355
N1    N     N_3   0.803323 0.541975 0.961674 -0.212206
H13   H     H_    0.658839 0.549527 0.965209 0.112423
H14   H     H_    0.863883 0.600231 0.977072 0.089953
N2    N     N_3   0.683760 0.447989 0.462685 -0.207370
H15   H     H_    0.640476 0.499763 0.490859 0.097437
H16   H     H_    0.605869 0.393124 0.474935 0.089342
N3    N     N_3   0.504271 0.946545 0.032253 -0.222716
H17   H     H_    0.369577 0.963192 0.017798 0.095698
H18   H     H_    0.597272 0.986793 0.010097 0.119365
N4    N     N_3   0.997583 0.053506 0.532226 -0.222404
H19   H     H_    0.132079 0.036385 0.517857 0.095847
H20   H     H_    0.903966 0.013537 0.510035 0.118862
N5    N     N_3   0.594294 0.685727 0.763327 -0.176887
H21   H     H_    0.628445 0.744824 0.784800 0.173237
H22   H     H_    0.497188 0.650173 0.787208 0.110832
N6    N     N_3   0.906072 0.313901 0.263637 -0.177178
H23   H     H_    0.871399 0.254636 0.284765 0.172159
H24   H     H_    0.002902 0.349172 0.287891 0.111531
N7    N     N_3   0.824449 0.787186 0.209845 -0.188251
H25   H     H_    0.911437 0.815142 0.178634 0.101744
H26   H     H_    0.754183 0.733274 0.192272 0.165843
N8    N     N_3   0.680054 0.214483 0.709620 -0.188476
H27   H     H_    0.592509 0.187068 0.678289 0.102083
H28   H     H_    0.751779 0.267991 0.692196 0.165611
N9    N     N_3   0.710002 0.676735 0.877240 -0.223244
H29   H     H_    0.796516 0.709637 0.906401 0.114751
H30   H     H_    0.585725 0.662562 0.898380 0.092182
N10   N     N_3   0.789841 0.322430 0.377285 -0.224734
H31   H     H_    0.700985 0.286828 0.404174 0.115957
H32   H     H_    0.908561 0.337860 0.401165 0.109582
N11   N     N_3   0.626336 0.810181 0.107933 -0.223453
H33   H     H_    0.730362 0.816824 0.076463 0.099664
H34   H     H_    0.508456 0.785737 0.087398 0.124754
N12   N     N_3   0.877437 0.190352 0.607826 -0.223043
H35   H     H_    0.773397 0.184028 0.576264 0.100796
H36   H     H_    0.995772 0.214364 0.587398 0.126700
N13   N     N_R   0.080548 0.350224 0.808832 0.200375
O21   O     O_R   0.221302 0.312545 0.836284 -0.418209
O22   O     O_R   0.014236 0.310760 0.763010 -0.458017
N14   N     N_R   0.425685 0.650208 0.308849 0.200405
O23   O     O_R   0.285396 0.689211 0.335746 -0.417896
O24   O     O_R   0.494201 0.688609 0.263028 -0.459102
N15   N     N_R   0.457116 0.158514 0.197167 0.199519
O25   O     O_R   0.578090 0.186259 0.234737 -0.455808
O26   O     O_R   0.324242 0.213664 0.179542 -0.449914
N16   N     N_R   0.041078 0.841591 0.697085 0.199533
O27   O     O_R   0.919235 0.814263 0.734428 -0.455349
O28   O     O_R   0.173392 0.786013 0.679638 -0.450852
N17   N     N_3   0.705809 0.667166 0.652918 -0.170685
H37   H     H_    0.775770 0.722263 0.637029 0.186977
H38   H     H_    0.660500 0.622298 0.621222 0.141657
N18   N     N_3   0.794245 0.332305 0.153133 -0.170674
H39   H     H_    0.723448 0.277471 0.137170 0.185530
H40   H     H_    0.839911 0.377027 0.121456 0.145319
N19   N     N_3   0.804048 0.808242 0.326007 -0.170117
H41   H     H_    0.891170 0.846477 0.351867 0.157610
H42   H     H_    0.725434 0.763355 0.349610 0.153088
N20   N     N_3   0.698870 0.193098 0.825763 -0.170023
H43   H     H_    0.610545 0.155279 0.851401 0.158751
H44   H     H_    0.778334 0.237415 0.849602 0.149080

loop_
_geom_bond_atom_site_label_1
_geom_bond_atom_site_label_2
_geom_bond_distance
_ccdc_geom_bond_type
O17   V3    1.758842 S    
C17   H1    1.084889 S    
C5    C63   1.490644 S    
O1    C5    1.330458 A    
N1    H13   1.045115 S    
C31   C35   1.438062 A    
O19   V1    1.759961 S    
O13   V1    2.014324 S    
C16   C60   1.403359 A    
O3    C7    1.331066 A    
C48   C52   1.402995 A    
O15   V3    1.993487 S    
N10   H31   1.045211 S    
C10   C42   1.421670 A    
N2    H16   1.045219 S    
C36   C64   1.448220 A    
C9    C41   1.422010 A    
C39   C55   1.435224 A    
O7    C3    1.328112 A    
N13   O22   1.299098 A    
C52   N20   1.429722 S    
C26   C30   1.411471 A    
C2    C13   1.478865 S    
C40   C44   1.419803 A    
O9    V1    1.995088 S    
C53   N13   1.438408 S    
C59   N3    1.436792 S    
N16   O27   1.299875 A    
N17   H38   1.044731 S    
C30   C34   1.440238 A    
O4    C8    1.331161 A    
C25   C29   1.411466 A    
N19   H42   1.041686 S    
N10   H32   1.045818 S    
N15   O25   1.299895 A    
O1    V3    2.015226 S    
C23   H11   1.082981 S    
N6    H23   1.043778 S    
O2    V4    2.013868 S    
C18   C22   1.380615 A    
C33   C49   1.427135 A    
O3    V1    1.993430 S    
N4    H19   1.045233 S    
C19   H3    1.084059 S    
C29   C37   1.437022 A    
C1    O15   1.325309 A    
C55   N15   1.438084 S    
C2    O16   1.325675 A    
C31   C39   1.436315 A    
C46   C50   1.402085 A    
N3    H17   1.045240 S    
C16   C56   1.413626 A    
C45   C49   1.401737 A    
C18   C62   1.406166 A    
C11   C43   1.422216 A    
C19   C23   1.381416 A    
O5    V1    2.034435 S    
C20   H4    1.084142 S    
C44   C48   1.418476 A    
C49   N17   1.427091 S    
O11   C7    1.335828 A    
C22   H10   1.083080 S    
N1    H14   1.044895 S    
C14   C58   1.409317 A    
N20   H44   1.041592 S    
C40   C56   1.435049 A    
C13   C57   1.398551 A    
O10   V2    1.995144 S    
C34   C62   1.453498 A    
N2    H15   1.042949 S    
N3    H18   1.045295 S    
N16   O28   1.301404 A    
N7    H26   1.043574 S    
C24   H12   1.082983 S    
C39   C43   1.419675 A    
O7    V3    1.995191 S    
C38   C42   1.418402 A    
C28   C32   1.413181 A    
O8    V4    1.995135 S    
N14   O23   1.301066 A    
C35   C63   1.448422 A    
C37   C53   1.437939 A    
C11   C59   1.402344 A    
O18   V4    1.759921 S    
C26   H6    1.078476 S    
C57   N1    1.437627 S    
C14   C54   1.416139 A    
C27   C31   1.413112 A    
C46   N6    1.439163 S    
C13   C53   1.414119 A    
C36   C52   1.426154 A    
C60   N4    1.436728 S    
C32   C36   1.437829 A    
C58   N2    1.444988 S    
C54   N14   1.438821 S    
C18   H2    1.084830 S    
C15   C55   1.413879 A    
O12   C8    1.336256 A    
O5    C1    1.327913 A    
C23   C27   1.383542 A    
C21   C25   1.381536 A    
O8    C4    1.328221 A    
C45   N5    1.439259 S    
C9    N9    1.435136 S    
O9    C5    1.331164 A    
N18   H39   1.042938 S    
O14   V2    2.015682 S    
O6    V2    2.036009 S    
N18   H40   1.044693 S    
C6    C64   1.490084 S    
N9    H29   1.045119 S    
N8    H28   1.043607 S    
N11   H33   1.045829 S    
C35   C51   1.426185 A    
C34   C50   1.427153 A    
N5    H21   1.043750 S    
O16   V4    1.993874 S    
N15   O26   1.301387 A    
C3    O13   1.322275 A    
C29   C33   1.440064 A    
C48   N8    1.438923 S    
C38   C54   1.436862 A    
N14   O24   1.299084 A    
N11   H34   1.045752 S    
C12   N12   1.434534 S    
O6    C2    1.327160 A    
N12   H36   1.045753 S    
N7    H25   1.045660 S    
C12   C44   1.422315 A    
O11   V3    2.035965 S    
N12   H35   1.045832 S    
O12   V4    2.034392 S    
C17   C61   1.406323 A    
N13   O21   1.301003 A    
C22   C26   1.381639 A    
C47   N7    1.438964 S    
C19   C63   1.402760 A    
O10   C6    1.331081 A    
C4    C15   1.477656 S    
O20   V2    1.758881 S    
C11   N11   1.434516 S    
C15   C59   1.403430 A    
C21   H9    1.083084 S    
O2    C6    1.330046 A    
C47   C51   1.403037 A    
C32   C40   1.436252 A    
N20   H43   1.044332 S    
C8    C62   1.499948 S    
C12   C60   1.402375 A    
C41   C45   1.417199 A    
C56   N16   1.438005 S    
C1    C14   1.479718 S    
C50   N18   1.427102 S    
N6    H24   1.045760 S    
C28   H8    1.078601 S    
C43   C47   1.418357 A    
C37   C41   1.420420 A    
C3    C16   1.477567 S    
N4    H20   1.045341 S    
C51   N19   1.429724 S    
C24   C28   1.383591 A    
C42   C46   1.417535 A    
C10   N10   1.435163 S    
C7    C61   1.499332 S    
C4    O14   1.322420 A    
N19   H41   1.044364 S    
N9    H30   1.045093 S    
C17   C21   1.380482 A    
C30   C38   1.437326 A    
C20   C64   1.402705 A    
C10   C58   1.405940 A    
C25   H5    1.078418 S    
N8    H27   1.045647 S    
N17   H37   1.042948 S    
C9    C57   1.406615 A    
C33   C61   1.453083 A    
O4    V2    1.993042 S    
C20   C24   1.381430 A    
C27   H7    1.078590 S    
N5    H22   1.045744 S    
