data_mof_unit_57739.cif
_audit_creation_date              2012-12-11T14:01:42-0500
_audit_creation_method            fapswitch 2.2
_symmetry_space_group_name_H-M    P1
_symmetry_Int_Tables_number       1
_space_group_crystal_system       triclinic
_cell_length_a                    18.974008
_cell_length_b                    11.000218
_cell_length_c                    18.787663
_cell_angle_alpha                 90.474202
_cell_angle_beta                  90.480098
_cell_angle_gamma                 89.215186
_cell_volume                      3920.69152998

loop_
_atom_site_label
_atom_site_type_symbol
_atom_type_description
_atom_site_fract_x
_atom_site_fract_y
_atom_site_fract_z
_atom_type_partial_charge
C1    C     C_R   0.272419 0.042759 0.853290 0.544833
C2    C     C_R   0.003337 0.665363 0.965602 -0.077850
C3    C     C_R   0.488167 0.164557 0.037856 -0.072730
C4    C     C_R   0.503337 0.165363 0.965602 -0.077850
C5    C     C_2   0.249134 0.577936 0.919540 0.361014
C6    C     C_2   0.751182 0.577633 0.080022 0.362287
C7    C     C_2   0.749134 0.077936 0.919540 0.361017
C8    C     C_2   0.251182 0.077634 0.080022 0.362288
C9    C     C_2   0.250377 0.588013 0.078133 -0.057008
C10   C     C_2   0.749312 0.589394 0.922015 -0.060083
C11   C     C_2   0.750377 0.088014 0.078133 -0.057010
C12   C     C_R   0.727572 0.042466 0.146647 0.569946
C13   C     C_2   0.249312 0.089394 0.922015 -0.060082
C14   C     C_2   0.294859 0.522142 0.037593 -0.129335
C15   C     C_2   0.705063 0.524831 0.961727 -0.128425
C16   C     C_2   0.794859 0.022143 0.037593 -0.129336
C17   C     C_2   0.205063 0.024831 0.961727 -0.128424
C18   C     C_2   0.304228 0.550237 0.962250 -0.127460
C19   C     C_2   0.695972 0.552203 0.037341 -0.128584
C20   C     C_2   0.804228 0.050237 0.962250 -0.127459
C21   C     C_2   0.195972 0.052203 0.037341 -0.128585
C22   C     C_2   0.459785 0.827470 0.566701 -0.101464
C23   C     C_R   0.772419 0.542759 0.853290 0.544840
C24   C     C_2   0.484918 0.845375 0.413585 -0.093537
C25   C     C_2   0.959773 0.327479 0.566699 -0.101411
C26   C     C_2   0.984914 0.345354 0.413585 -0.093587
C27   C     C_2   0.452160 0.754054 0.444693 0.348157
C28   C     C_2   0.423367 0.768390 0.516261 0.326823
C29   C     C_2   0.952177 0.254010 0.444696 0.348166
C30   C     C_2   0.923402 0.268301 0.516274 0.326895
C31   C     C_2   0.236764 0.550206 0.592324 -0.046521
C32   C     C_2   0.722899 0.681877 0.435666 -0.019849
C33   C     C_2   0.736781 0.050179 0.592332 -0.046546
C34   C     C_R   0.227571 0.542466 0.146647 0.569950
C35   C     C_2   0.222889 0.181900 0.435668 -0.019960
C36   C     C_2   0.219454 0.497421 0.436554 0.249303
C37   C     C_2   0.742240 0.602360 0.586208 0.250320
C38   C     C_2   0.719465 0.997410 0.436560 0.249229
C39   C     C_2   0.242231 0.102375 0.586215 0.250339
C40   C     C_R   0.471950 0.822136 0.852928 0.544699
C41   C     C_R   0.528511 0.822238 0.146753 0.544789
C42   C     C_R   0.971950 0.322136 0.852928 0.544695
C43   C     C_R   0.028511 0.322238 0.146753 0.544785
C44   C     C_2   0.168346 0.543441 0.477983 -0.111523
C45   C     C_R   0.484534 0.054524 0.073839 -0.009766
C46   C     C_2   0.785714 0.671631 0.549029 -0.114531
C47   C     C_2   0.668352 0.043402 0.477999 -0.111426
C48   C     C_2   0.285685 0.171710 0.549050 -0.114573
C49   C     C_2   0.178832 0.577264 0.553141 -0.117642
C50   C     C_2   0.783187 0.676977 0.472378 -0.057629
C51   C     C_2   0.678783 0.077069 0.553203 -0.117786
C52   C     C_2   0.283170 0.177086 0.472398 -0.057623
C53   C     C_R   0.261098 0.635878 0.851306 0.567905
C54   C     C_R   0.739096 0.635926 0.148701 0.583379
C55   C     C_R   0.761098 0.135878 0.851306 0.567898
C56   C     C_R   0.510629 0.056036 0.928156 -0.013667
C57   C     C_R   0.239096 0.135926 0.148700 0.583383
C58   C     C_R   0.270387 0.048666 0.650418 0.555491
C59   C     C_R   0.708011 0.993776 0.359221 0.545949
C60   C     C_R   0.770388 0.548667 0.650418 0.555437
C61   C     C_R   0.208005 0.493765 0.359215 0.545944
C62   C     C_R   0.438158 0.819747 0.640016 0.634056
C63   C     C_R   0.528477 0.825697 0.351231 0.559635
C64   C     C_R   0.938158 0.319748 0.640017 0.634068
C65   C     C_R   0.028474 0.325695 0.351229 0.559627
C66   C     C_R   0.258044 0.630547 0.649821 0.587492
C67   C     C_R   0.984534 0.554524 0.073839 -0.009766
C68   C     C_R   0.723666 0.694864 0.359812 0.540335
C69   C     C_R   0.758041 0.130532 0.649830 0.587448
C70   C     C_R   0.223665 0.194867 0.359811 0.540326
C71   C     C_R   0.501251 0.830142 0.073924 0.011700
C72   C     C_R   0.501109 0.830978 0.925034 0.009010
C73   C     C_R   0.001251 0.330142 0.073924 0.011699
C74   C     C_R   0.001109 0.330978 0.925034 0.009011
C75   C     C_R   0.496001 0.942737 0.037712 0.052139
C76   C     C_R   0.502791 0.943344 0.962755 0.053412
C77   C     C_R   0.996001 0.442737 0.037712 0.052140
C78   C     C_R   0.010629 0.556036 0.928156 -0.013666
C79   C     C_R   0.002791 0.443344 0.962755 0.053412
C80   C     C_R   0.504883 0.721611 0.962343 -0.155839
C81   C     C_R   0.502757 0.721102 0.035027 -0.153866
C82   C     C_R   0.004883 0.221610 0.962343 -0.155840
C83   C     C_R   0.002757 0.221102 0.035027 -0.153866
C84   C     C_3   0.341295 0.465952 0.444344 0.068283
C85   C     C_3   0.396748 0.435406 0.500630 -0.350822
C86   C     C_3   0.622987 0.593796 0.588816 -0.018207
C87   C     C_3   0.559725 0.534327 0.554404 -0.365773
C88   C     C_3   0.841301 0.965881 0.444340 0.068262
C89   C     C_R   0.988167 0.664557 0.037856 -0.072729
C90   C     C_3   0.896764 0.935215 0.500598 -0.350809
C91   C     C_3   0.122981 0.093780 0.588811 -0.018222
C92   C     C_3   0.059731 0.034242 0.554423 -0.365763
Cr1   Cr    Cr6+3 0.230530 0.836340 0.748870 1.033359
Cr2   Cr    Cr6+3 0.614360 0.677860 0.250770 1.046963
Cr3   Cr    Cr6+3 0.885640 0.177860 0.749230 1.012560
Cr4   Cr    Cr6+3 0.114360 0.177860 0.250770 1.046972
Cr5   Cr    Cr6+3 0.769470 0.836340 0.251130 1.026929
Cr6   Cr    Cr6+3 0.730530 0.336340 0.748870 1.033350
Cr7   Cr    Cr6+3 0.269470 0.336340 0.251130 1.026930
Cr8   Cr    Cr6+3 0.387420 0.989430 0.750820 1.013957
Cr9   Cr    Cr6+3 0.612580 0.989430 0.249180 1.016440
Cr10  Cr    Cr6+3 0.887420 0.489430 0.750820 1.013943
Cr11  Cr    Cr6+3 0.112580 0.489430 0.249180 1.016430
Cr12  Cr    Cr6+3 0.385640 0.677860 0.749230 1.012523
F1    F     F_    0.181705 0.569671 0.943132 -0.659690
F2    F     F_    0.818530 0.567301 0.056017 -0.658134
F3    F     F_    0.681705 0.069671 0.943133 -0.659690
F4    F     F_    0.318530 0.067301 0.056017 -0.658133
F5    F     F_    0.450982 0.643110 0.412930 -0.665979
F6    F     F_    0.362902 0.710620 0.532746 -0.649709
F7    F     F_    0.951004 0.143073 0.412924 -0.665919
F8    F     F_    0.863011 0.210386 0.532787 -0.649779
H1    H     H_    0.505298 0.634141 0.935345 0.136370
H2    H     H_    0.833816 0.681391 0.446035 0.140367
H3    H     H_    0.641806 0.146329 0.571941 0.144824
H4    H     H_    0.333804 0.181579 0.446070 0.140399
H5    H     H_    0.271526 0.474569 0.581702 0.161553
H6    H     H_    0.671897 0.685509 0.460965 0.127659
H7    H     H_    0.771655 0.974699 0.581639 0.161752
H8    H     H_    0.171880 0.185462 0.460952 0.127700
H9    H     H_    0.470979 0.057989 0.129607 0.144238
H10   H     H_    0.524191 0.060854 0.872484 0.140213
H11   H     H_    0.970978 0.557989 0.129608 0.144236
H12   H     H_    0.505991 0.633314 0.060692 0.138756
H13   H     H_    0.024191 0.560854 0.872484 0.140215
H14   H     H_    0.980100 0.749487 0.066348 0.107243
H15   H     H_    0.008582 0.750960 0.938252 0.102208
H16   H     H_    0.480100 0.249487 0.066348 0.107244
H17   H     H_    0.508582 0.250960 0.938252 0.102207
H18   H     H_    0.324044 0.444986 0.059157 0.147854
H19   H     H_    0.676098 0.448835 0.939376 0.150103
H20   H     H_    0.824044 0.944986 0.059157 0.147854
H21   H     H_    0.176098 0.948835 0.939376 0.150103
H22   H     H_    0.357893 0.552058 0.942600 0.100998
H23   H     H_    0.005298 0.134141 0.935345 0.136370
H24   H     H_    0.642385 0.555602 0.057229 0.099030
H25   H     H_    0.857893 0.052058 0.942600 0.100997
H26   H     H_    0.142385 0.055602 0.057229 0.099030
H27   H     H_    0.223086 0.667163 0.056459 0.162653
H28   H     H_    0.776261 0.667571 0.944516 0.161128
H29   H     H_    0.723086 0.167163 0.056459 0.162653
H30   H     H_    0.276261 0.167571 0.944516 0.161128
H31   H     H_    0.483303 0.936039 0.437128 0.025715
H32   H     H_    0.508411 0.874218 0.554881 0.015074
H33   H     H_    0.983289 0.436016 0.437127 0.025690
H34   H     H_    0.005991 0.133314 0.060692 0.138756
H35   H     H_    0.008337 0.374344 0.554864 0.015053
H36   H     H_    0.341649 0.564636 0.432862 0.261095
H37   H     H_    0.357493 0.412939 0.396601 0.180390
H38   H     H_    0.396201 0.337686 0.513404 0.102334
H39   H     H_    0.449495 0.453218 0.478905 0.165748
H40   H     H_    0.388814 0.489634 0.549952 0.199501
H41   H     H_    0.617671 0.694163 0.582268 0.115325
H42   H     H_    0.622907 0.571820 0.646547 0.148066
H43   H     H_    0.563934 0.433969 0.559678 0.155982
H44   H     H_    0.510803 0.566436 0.580636 0.140146
H45   H     H_    0.120364 0.579194 0.453438 0.101677
H46   H     H_    0.557430 0.558065 0.497104 0.196682
H47   H     H_    0.841671 0.064581 0.432906 0.261097
H48   H     H_    0.857486 0.912933 0.396569 0.180450
H49   H     H_    0.896278 0.837463 0.513235 0.102254
H50   H     H_    0.949497 0.953204 0.478925 0.165823
H51   H     H_    0.888805 0.989220 0.549977 0.199266
H52   H     H_    0.117643 0.194138 0.582233 0.115326
H53   H     H_    0.122910 0.071856 0.646549 0.148032
H54   H     H_    0.063962 0.933890 0.559729 0.155940
H55   H     H_    0.010805 0.066345 0.580650 0.140243
H56   H     H_    0.833780 0.705082 0.573284 0.106210
H57   H     H_    0.057429 0.057925 0.497116 0.196688
H58   H     H_    0.620370 0.079164 0.453459 0.101681
H59   H     H_    0.333738 0.205187 0.573321 0.106176
H60   H     H_    0.141973 0.646733 0.571787 0.144995
O1    O     O_R   0.215090 0.709860 0.828130 -0.489460
O2    O     O_R   0.543740 0.718170 0.330000 -0.439311
O3    O     O_R   0.956260 0.218170 0.670000 -0.522895
O4    O     O_R   0.043740 0.218170 0.330000 -0.439297
O5    O     O_R   0.320940 0.626760 0.674370 -0.486149
O6    O     O_R   0.679060 0.626760 0.325630 -0.481584
O7    O     O_R   0.820940 0.126760 0.674370 -0.486080
O8    O     O_R   0.179060 0.126760 0.325630 -0.481563
O9    O     O_3   0.334530 0.834540 0.749640 -0.261437
O10   O     O_3   0.665470 0.834540 0.250360 -0.308697
O11   O     O_3   0.834530 0.334540 0.749640 -0.261455
O12   O     O_R   0.784910 0.709860 0.171870 -0.480788
O13   O     O_3   0.165470 0.334540 0.250360 -0.308714
O14   O     O_R   0.236990 0.958390 0.823710 -0.512593
O15   O     O_R   0.763010 0.958390 0.176290 -0.496537
O16   O     O_R   0.736990 0.458390 0.823710 -0.512589
O17   O     O_R   0.263010 0.458390 0.176290 -0.496536
O18   O     O_R   0.332380 0.074750 0.830850 -0.509429
O19   O     O_R   0.667620 0.074750 0.169150 -0.498095
O20   O     O_R   0.832380 0.574750 0.830850 -0.509422
O21   O     O_R   0.167620 0.574750 0.169150 -0.498094
O22   O     O_R   0.445800 0.917770 0.825070 -0.504901
O23   O     O_R   0.715090 0.209860 0.828130 -0.489468
O24   O     O_R   0.554200 0.917770 0.174930 -0.508880
O25   O     O_R   0.945800 0.417770 0.825070 -0.504899
O26   O     O_R   0.054200 0.417770 0.174930 -0.508881
O27   O     O_R   0.456410 0.716580 0.829970 -0.526226
O28   O     O_R   0.543590 0.716580 0.170030 -0.517782
O29   O     O_R   0.956410 0.216580 0.829970 -0.526234
O30   O     O_R   0.043590 0.216580 0.170030 -0.517783
O31   O     O_R   0.321080 0.625290 0.822650 -0.546845
O32   O     O_R   0.678920 0.625290 0.177350 -0.531249
O33   O     O_R   0.821080 0.125290 0.822650 -0.546853
O34   O     O_R   0.284910 0.209860 0.171870 -0.480785
O35   O     O_R   0.178920 0.125290 0.177350 -0.531247
O36   O     O_R   0.214930 0.711450 0.668160 -0.511752
O37   O     O_R   0.785070 0.711450 0.331840 -0.526363
O38   O     O_R   0.714930 0.211450 0.668160 -0.511706
O39   O     O_R   0.285070 0.211450 0.331840 -0.526350
O40   O     O_R   0.236850 0.959870 0.675420 -0.473165
O41   O     O_R   0.763150 0.959870 0.324580 -0.516533
O42   O     O_R   0.736850 0.459870 0.675420 -0.473176
O43   O     O_R   0.263150 0.459870 0.324580 -0.516541
O44   O     O_R   0.332230 0.076350 0.670880 -0.558618
O45   O     O_R   0.445660 0.919250 0.676780 -0.510164
O46   O     O_R   0.667770 0.076350 0.329120 -0.513287
O47   O     O_R   0.832230 0.576350 0.670880 -0.558631
O48   O     O_R   0.167770 0.576350 0.329120 -0.513287
O49   O     O_3   0.274172 0.429431 0.467070 -0.626745
O50   O     O_3   0.684115 0.548840 0.554854 -0.551348
O51   O     O_3   0.774173 0.929365 0.467057 -0.626762
O52   O     O_3   0.184115 0.048838 0.554855 -0.551332
O53   O     O_R   0.554340 0.919250 0.323220 -0.543739
O54   O     O_R   0.945660 0.419250 0.676780 -0.510198
O55   O     O_R   0.054340 0.419250 0.323220 -0.543747
O56   O     O_R   0.456260 0.718170 0.670000 -0.522997

loop_
_geom_bond_atom_site_label_1
_geom_bond_atom_site_label_2
_ccdc_geom_bond_type
C44   C49   S    
C43   C73   S    
C31   C66   S    
C55   O23   A    
Cr3   O33   S    
C56   C76   A    
C2    C89   A    
C9    H27   S    
C14   C18   S    
Cr11  O13   S    
C24   C27   D    
C7    C55   S    
C75   C76   A    
C70   O8    A    
C64   O54   A    
C53   O1    A    
Cr5   O10   S    
C63   O53   A    
C5    F1    S    
C1    O14   A    
C15   C19   S    
C6    C19   D    
Cr6   O38   S    
C53   O31   A    
C46   H56   S    
C90   H50   S    
C35   C52   D    
Cr10  O11   S    
C5    C53   S    
C86   H41   S    
C74   C82   A    
C37   O50   S    
C41   O24   A    
C84   O49   S    
C23   O16   A    
C62   O56   A    
C24   H31   S    
Cr11  O55   S    
C83   H34   S    
C67   C89   A    
C65   O55   A    
Cr9   O53   S    
Cr2   O6    S    
C88   H47   S    
Cr1   O1    S    
Cr6   O11   S    
C60   O42   A    
C85   H38   S    
C31   H5    S    
Cr3   O3    S    
C88   O51   S    
C43   O30   A    
Cr1   O9    S    
Cr9   O46   S    
Cr2   O32   S    
C35   C70   S    
Cr2   O10   S    
C67   C77   A    
Cr10  O20   S    
C61   O48   A    
C45   C75   A    
C40   C72   S    
Cr2   O28   S    
C37   C46   D    
Cr9   O24   S    
C33   C69   S    
Cr11  O48   S    
C41   C71   S    
C2    H15   S    
C52   H4    S    
Cr12  O9    S    
Cr6   O42   S    
C84   H37   S    
Cr5   O41   S    
C4    C56   A    
C44   H45   S    
C35   H8    S    
C10   H28   S    
C21   H26   S    
C31   C49   D    
C41   O28   A    
C68   O37   A    
C8    F4    S    
C23   O20   A    
C29   F7    S    
Cr12  O56   S    
C89   H14   S    
C84   H36   S    
C55   O33   A    
C66   O5    A    
Cr10  O54   S    
C42   C74   S    
C81   H12   S    
C37   C60   S    
C62   O45   A    
C84   C85   S    
C60   O47   A    
C91   C92   S    
Cr7   O17   S    
C78   C79   A    
Cr7   O39   S    
Cr4   O35   S    
C40   O22   A    
C5    C18   D    
Cr7   O34   S    
C45   H9    S    
C19   H24   S    
C39   C58   S    
C57   O34   A    
C3    C45   A    
C51   H3    S    
C30   F8    S    
C50   H2    S    
Cr11  O26   S    
C56   H10   S    
C20   H25   S    
Cr1   O36   S    
C26   H33   S    
C9    C14   D    
C85   H39   S    
C29   C30   S    
C2    C78   A    
C1    O18   A    
C8    C57   S    
C22   C62   S    
C48   H59   S    
C66   O36   A    
C11   C16   D    
Cr12  O5    S    
C92   H57   S    
C16   C20   S    
Cr1   O40   S    
C8    C21   D    
C6    F2    S    
C77   C79   A    
C42   O25   A    
C72   C76   A    
C25   H35   S    
C13   H30   S    
Cr4   O8    S    
C64   O3    A    
Cr4   O30   S    
Cr8   O9    S    
C11   H29   S    
C78   H13   S    
C32   C50   D    
C38   C47   D    
Cr5   O37   S    
Cr10  O47   S    
Cr2   O2    S    
C34   O21   A    
Cr3   O7    S    
C40   O27   A    
C88   C90   S    
Cr12  O31   S    
C6    C54   S    
C24   C63   S    
C58   O40   A    
C74   C79   A    
C65   O4    A    
C17   H21   S    
C9    C34   S    
Cr12  O27   S    
C7    F3    S    
C39   O52   S    
Cr10  O25   S    
C1    C13   S    
C3    C4    A    
Cr7   O13   S    
C47   H58   S    
C86   C87   S    
Cr5   O12   S    
C14   H18   S    
C70   O39   A    
C25   C30   D    
Cr5   O15   S    
C12   O19   A    
C57   O35   A    
Cr8   O44   S    
Cr4   O4    S    
C3    H16   S    
C26   C65   S    
Cr4   O13   S    
C91   H53   S    
C34   O17   A    
Cr8   O18   S    
C91   H52   S    
C32   H6    S    
C80   C81   A    
Cr9   O19   S    
C59   O46   A    
C67   H11   S    
Cr8   O45   S    
C49   H60   S    
C47   C51   S    
C11   C12   S    
C59   O41   A    
C33   H7    S    
C4    H17   S    
C87   H43   S    
Cr8   O22   S    
C10   C23   S    
C33   C51   D    
C61   O43   A    
C46   C50   S    
C87   H46   S    
C13   C17   D    
C90   H51   S    
C10   C15   D    
C28   F6    S    
C82   H23   S    
C85   H40   S    
C72   C80   A    
Cr3   O29   S    
Cr1   O14   S    
C32   C68   S    
C71   C75   A    
C12   O15   A    
C92   H55   S    
Cr3   O11   S    
Cr7   O43   S    
C54   O32   A    
C68   O6    A    
C73   C83   A    
Cr6   O23   S    
C18   H22   S    
C43   O26   A    
C54   O12   A    
C88   H48   S    
C86   H42   S    
C16   H20   S    
C17   C21   S    
C38   O51   S    
C36   C44   D    
C38   C59   S    
C92   H54   S    
C90   H49   S    
C48   C52   S    
C15   H19   S    
C80   H1    S    
C27   F5    S    
C26   C29   D    
C7    C20   D    
C22   H32   S    
C27   C28   S    
C73   C77   A    
C87   H44   S    
C42   O29   A    
C22   C28   D    
C69   O38   A    
C86   O50   S    
C82   C83   A    
C91   O52   S    
C63   O2    A    
Cr6   O16   S    
C36   O49   S    
C25   C64   S    
C69   O7    A    
Cr9   O10   S    
C36   C61   S    
Cr11  O21   S    
C39   C48   D    
C71   C81   A    
C58   O44   A    
