data_mof_unit_53344.cif
_audit_creation_date              2012-12-10T17:57:49-0500
_audit_creation_method            fapswitch 2.2
_symmetry_space_group_name_H-M    P1
_symmetry_Int_Tables_number       1
_space_group_crystal_system       triclinic
_cell_length_a                    10.785115
_cell_length_b                    9.535932
_cell_length_c                    15.109082
_cell_angle_alpha                 90.213171
_cell_angle_beta                  90.468163
_cell_angle_gamma                 89.984144
_cell_volume                      1553.84783477

loop_
_atom_site_label
_atom_site_type_symbol
_atom_type_description
_atom_site_fract_x
_atom_site_fract_y
_atom_site_fract_z
_atom_type_partial_charge
C1    C     C_R   0.262636 0.500005 0.499959 0.788315
C2    C     C_R   0.737364 0.499995 0.500040 0.788308
C3    C     C_R   0.377533 0.285239 0.045679 0.703813
C4    C     C_R   0.622472 0.714760 0.954321 0.703814
C5    C     C_R   0.065252 0.442640 0.572910 0.394816
C6    C     C_R   0.934750 0.557363 0.427090 0.394808
C7    C     C_R   0.936452 0.442684 0.572935 0.437208
C8    C     C_R   0.063549 0.557318 0.427065 0.437204
C9    C     C_R   0.871078 0.500004 0.500016 -0.396246
C10   C     C_R   0.128922 0.499996 0.499983 -0.396251
C11   C     C_R   0.420520 0.073987 0.446425 0.573678
C12   C     C_R   0.579480 0.926013 0.553575 0.573678
C13   C     C_R   0.579338 0.074626 0.553695 0.561507
C14   C     C_R   0.420662 0.925373 0.446305 0.561510
C15   C     C_R   0.500216 0.499804 0.328732 0.859961
C16   C     C_R   0.499785 0.500196 0.671268 0.859964
C17   C     C_R   0.556336 0.609810 0.814616 0.615872
C18   C     C_R   0.443671 0.390186 0.185383 0.615870
C19   C     C_R   0.498201 0.500768 0.768002 -0.327226
C20   C     C_R   0.501803 0.499231 0.231998 -0.327227
C21   C     C_R   0.439003 0.392072 0.813361 0.575275
C22   C     C_R   0.560997 0.607929 0.186638 0.575275
C23   C     C_R   0.434168 0.393440 0.906284 -0.151177
C24   C     C_R   0.565835 0.606560 0.093715 -0.151178
C25   C     C_R   0.498164 0.500741 0.953358 -0.138255
C26   C     C_R   0.501842 0.499256 0.046642 -0.138255
C27   C     C_R   0.558580 0.609654 0.907198 -0.199956
C28   C     C_R   0.441427 0.390343 0.092802 -0.199955
C29   C     C_R   0.369985 0.288539 0.953758 0.355025
C30   C     C_R   0.630016 0.711462 0.046242 0.355023
Cu1   Cu    Cu3+1 0.500000 0.640660 0.500000 1.139055
Cu2   Cu    Cu3+1 0.500000 0.359340 0.500000 1.139053
N1    N     N_R   0.500000 0.852070 0.500000 -0.359776
N2    N     N_R   0.500000 0.147930 0.500000 -0.359774
O1    O     O_R   0.319640 0.618740 0.499990 -0.544651
O2    O     O_R   0.680360 0.381260 0.500010 -0.544659
O3    O     O_R   0.680360 0.618740 0.500010 -0.518066
O4    O     O_R   0.319640 0.381260 0.499990 -0.518066
O5    O     O_R   0.499970 0.618800 0.370260 -0.500903
O6    O     O_R   0.500030 0.381200 0.629740 -0.500905
O7    O     O_R   0.500030 0.618800 0.629740 -0.513370
O8    O     O_R   0.499970 0.381200 0.370260 -0.513369
F1    F     F_    0.615819 0.712292 0.769280 -0.514088
F2    F     F_    0.384189 0.287704 0.230719 -0.514090
F3    F     F_    0.388665 0.284296 0.766177 -0.601345
F4    F     F_    0.611329 0.715709 0.233822 -0.601344
O9    O     O_3   0.296883 0.188701 0.912978 -0.570210
H1    H     H_    0.240959 0.238889 0.871449 0.384935
O10   O     O_3   0.703110 0.811306 0.087023 -0.570210
H2    H     H_    0.759036 0.761122 0.128553 0.384933
F5    F     F_    0.317173 0.180741 0.088509 -0.507326
F6    F     F_    0.682830 0.819260 0.911491 -0.507327
O11   O     O_3   0.124595 0.388755 0.647000 -0.604089
H3    H     H_    0.212477 0.417982 0.648619 0.329695
O12   O     O_3   0.875407 0.611253 0.353001 -0.604089
H4    H     H_    0.787523 0.582032 0.351384 0.329695
O13   O     O_3   0.878834 0.388941 0.647070 -0.576221
H5    H     H_    0.790995 0.418297 0.648751 0.344232
O14   O     O_3   0.121168 0.611067 0.352932 -0.576212
H6    H     H_    0.209000 0.581688 0.351243 0.344223
F7    F     F_    0.340131 0.143194 0.392838 -0.504733
F8    F     F_    0.659869 0.856806 0.607162 -0.504731
F9    F     F_    0.658916 0.144496 0.607921 -0.535736
F10   F     F_    0.341084 0.855503 0.392079 -0.535727

loop_
_geom_bond_atom_site_label_1
_geom_bond_atom_site_label_2
_ccdc_geom_bond_type
C6    C8    A    
O12   H4    S    
Cu1   N1    S    
C11   F7    S    
C18   F2    S    
C25   C27   A    
C12   F8    S    
C21   F3    S    
O9    H1    S    
C13   F9    S    
C22   F4    S    
C20   C22   A    
C6    O12   S    
C14   F10   S    
C7    C9    A    
C4    C27   A    
C6    C9    A    
C17   F1    S    
C25   C26   A    
O14   H6    S    
O11   H3    S    
C2    O3    A    
C15   O5    A    
O13   H5    S    
C1    O4    A    
C14   N1    A    
C16   C19   S    
C29   O9    S    
C23   C29   A    
Cu1   O1    S    
C5    O11   S    
C3    C28   A    
C19   C21   A    
C30   O10   S    
C4    F6    S    
C18   C20   A    
Cu2   O4    S    
C23   C25   A    
C8    O14   S    
C15   C20   S    
C11   C14   A    
C22   C24   A    
Cu1   O3    S    
C24   C30   A    
C3    F5    S    
C17   C27   A    
Cu2   O2    S    
C16   O6    A    
C5    C10   A    
Cu2   O6    S    
C18   C28   A    
C12   C13   A    
C1    O1    A    
C8    C10   A    
O10   H2    S    
Cu1   O5    S    
C2    O2    A    
C5    C7    A    
Cu2   O8    S    
C3    C29   A    
C13   N2    A    
Cu1   O7    S    
C17   C19   A    
C12   N1    A    
C2    C9    S    
C26   C28   A    
C21   C23   A    
C7    O13   S    
C11   N2    A    
C4    C30   A    
C1    C10   S    
Cu1   Cu2   S    
C15   O8    A    
C24   C26   A    
C16   O7    A    
Cu2   N2    S    
