data_mof_unit_12634.cif
_audit_creation_date              2012-12-10T19:47:59-0500
_audit_creation_method            fapswitch 2.2
_symmetry_space_group_name_H-M    P1
_symmetry_Int_Tables_number       1
_space_group_crystal_system       triclinic
_cell_length_a                    14.641393
_cell_length_b                    14.174581
_cell_length_c                    10.670231
_cell_angle_alpha                 90.04062
_cell_angle_beta                  90.373943
_cell_angle_gamma                 90.158003
_cell_volume                      2214.39674239

loop_
_atom_site_label
_atom_site_type_symbol
_atom_type_description
_atom_site_fract_x
_atom_site_fract_y
_atom_site_fract_z
_atom_type_partial_charge
C1    C     C_R   0.326726 0.499840 0.496723 0.899695
C2    C     C_R   0.673452 0.500095 0.495515 0.896754
C3    C     C_R   0.049026 0.487595 0.392998 -0.093537
C4    C     C_R   0.950282 0.500066 0.387199 -0.107151
C5    C     C_R   0.457036 0.105112 0.403406 -0.272928
C6    C     C_R   0.573328 0.894979 0.551814 -0.272149
C7    C     C_R   0.543266 0.105444 0.596307 -0.275494
C8    C     C_R   0.426839 0.894568 0.448038 -0.273091
C9    C     C_R   0.457545 0.204354 0.405488 0.028550
C10   C     C_R   0.571755 0.795734 0.551264 0.030754
C11   C     C_R   0.542623 0.204675 0.594354 0.023680
C12   C     C_R   0.428300 0.795337 0.448689 0.031987
C13   C     C_R   0.500151 0.053398 0.499855 0.136828
C14   C     C_R   0.500116 0.946655 0.499886 0.135291
C15   C     C_R   0.499990 0.499970 0.260648 0.868862
C16   C     C_R   0.500163 0.499980 0.739307 0.879051
C17   C     C_R   0.661153 0.554181 0.131676 -0.157580
C18   C     C_R   0.339064 0.445710 0.868054 -0.150428
C19   C     C_R   0.662125 0.551238 0.871239 -0.161361
C20   C     C_R   0.339249 0.444683 0.128520 -0.167118
C21   C     C_R   0.740094 0.579072 0.067352 -0.134586
C22   C     C_R   0.260979 0.418048 0.932382 -0.146304
C23   C     C_R   0.740625 0.577480 0.937192 -0.164638
C24   C     C_R   0.261037 0.417563 0.062571 -0.139963
C25   C     C_R   0.580829 0.526520 0.935257 0.077514
C26   C     C_R   0.419845 0.471841 0.064580 0.068431
C27   C     C_R   0.580518 0.527366 0.066147 0.072113
C28   C     C_R   0.419806 0.472162 0.933682 0.073921
C29   C     C_R   0.500220 0.499748 0.871543 -0.194335
C30   C     C_R   0.500073 0.499879 0.128350 -0.189583
C31   C     C_R   0.107579 0.552842 0.333744 0.507279
C32   C     C_R   0.894330 0.422301 0.358766 0.524959
C33   C     C_R   0.912844 0.582076 0.441142 0.449378
C34   C     C_R   0.083943 0.423116 0.481951 0.478126
C35   C     C_R   0.197190 0.560484 0.375685 -0.296560
C36   C     C_R   0.805562 0.420811 0.403133 -0.306865
C37   C     C_R   0.821490 0.582203 0.475928 -0.328045
C38   C     C_R   0.175444 0.427675 0.516001 -0.331955
C39   C     C_R   0.230675 0.498591 0.467029 -0.179203
C40   C     C_R   0.769254 0.500110 0.462779 -0.184363
H1    H     H_    0.200294 0.396457 0.112698 0.136559
H2    H     H_    0.801934 0.596529 0.887017 0.124366
H3    H     H_    0.200321 0.397102 0.880893 0.128354
H4    H     H_    0.800982 0.599225 0.118834 0.135646
H5    H     H_    0.664464 0.555362 0.232806 0.145494
H6    H     H_    0.335265 0.446041 0.766843 0.131612
H7    H     H_    0.666121 0.550203 0.770085 0.129450
H8    H     H_    0.335712 0.444016 0.229614 0.140921
H9    H     H_    0.241775 0.612299 0.332949 0.174938
H10   H     H_    0.765165 0.357432 0.390464 0.190512
H11   H     H_    0.792392 0.645575 0.515899 0.176854
H12   H     H_    0.202760 0.377164 0.582541 0.173048
H13   H     H_    0.424097 0.069486 0.325560 0.138236
H14   H     H_    0.632313 0.930639 0.591190 0.135517
H15   H     H_    0.576277 0.070084 0.674093 0.136296
H16   H     H_    0.367886 0.929897 0.408645 0.138805
H17   H     H_    0.424079 0.242998 0.330910 0.132966
H18   H     H_    0.628388 0.757207 0.591692 0.122229
H19   H     H_    0.576118 0.243560 0.668921 0.131056
H20   H     H_    0.371617 0.756514 0.408287 0.126596
N1    N     N_R   0.500000 0.252470 0.500000 -0.094036
N2    N     N_R   0.500000 0.747530 0.500000 -0.092015
O1    O     O_R   0.369060 0.579480 0.500010 -0.622638
O2    O     O_R   0.630940 0.420520 0.499990 -0.618500
O3    O     O_R   0.630940 0.579480 0.499990 -0.632008
O4    O     O_R   0.369060 0.420520 0.500010 -0.617849
O5    O     O_R   0.499990 0.579480 0.316780 -0.613736
O6    O     O_R   0.500010 0.420520 0.683220 -0.624646
O7    O     O_R   0.500010 0.579480 0.683220 -0.610665
O8    O     O_R   0.499990 0.420520 0.316780 -0.627407
Zn1   Zn    Zn3+2 0.500000 0.606140 0.500000 0.940726
Zn2   Zn    Zn3+2 0.500000 0.393860 0.500000 0.934295
O9    O     O_3   0.077836 0.614373 0.241185 -0.609357
C41   C     C_3   0.039874 0.563991 0.138489 0.089934
H21   H     H_    0.964755 0.574327 0.138125 0.146092
H22   H     H_    0.053646 0.486502 0.140886 0.106144
C42   C     C_3   0.078862 0.602727 0.016536 -0.298739
H23   H     H_    0.061659 0.678728 0.007358 0.229673
H24   H     H_    0.154447 0.595746 0.018418 0.234259
C43   C     C_3   0.040803 0.548935 0.903743 -1.043493
H25   H     H_    0.051143 0.472003 0.916048 0.259003
H26   H     H_    0.076890 0.571129 0.817728 0.267035
H27   H     H_    0.966757 0.563180 0.892098 0.264444
O10   O     O_3   0.929867 0.343176 0.301372 -0.603850
C44   C     C_3   0.904896 0.342720 0.172806 0.073695
H28   H     H_    0.966151 0.320041 0.119930 0.128136
H29   H     H_    0.887716 0.413810 0.134029 0.116733
C45   C     C_3   0.828043 0.270650 0.147078 -0.345481
H30   H     H_    0.848969 0.223104 0.069536 0.191978
H31   H     H_    0.816517 0.225734 0.230904 0.244763
C46   C     C_3   0.738059 0.317554 0.109203 -0.898354
H32   H     H_    0.711594 0.362073 0.186051 0.267983
H33   H     H_    0.686284 0.262487 0.087348 0.255844
H34   H     H_    0.747456 0.362121 0.024795 0.273065
O11   O     O_3   0.964242 0.663559 0.454069 -0.602067
C47   C     C_3   0.997505 0.670318 0.578171 0.068666
H35   H     H_    0.041983 0.609055 0.600829 0.123558
H36   H     H_    0.940183 0.673550 0.646266 0.127497
C48   C     C_3   0.054502 0.760396 0.589951 -0.282101
H37   H     H_    0.109639 0.759564 0.518766 0.237925
H38   H     H_    0.010189 0.822496 0.571645 0.223155
C49   C     C_3   0.097593 0.770013 0.719897 -0.978035
H39   H     H_    0.044121 0.768046 0.793222 0.269235
H40   H     H_    0.134532 0.838356 0.726668 0.270617
H41   H     H_    0.147321 0.712255 0.736363 0.270986
O12   O     O_3   0.029082 0.353343 0.532177 -0.599351
C50   C     C_3   0.998842 0.381883 0.651583 0.062997
H42   H     H_    0.971348 0.455161 0.649858 0.124204
H43   H     H_    0.056107 0.377723 0.720416 0.132598
C51   C     C_3   0.922369 0.315476 0.692589 -0.274716
H44   H     H_    0.867760 0.314236 0.619795 0.236748
H45   H     H_    0.949815 0.242823 0.702713 0.221832
C52   C     C_3   0.880884 0.346481 0.816483 -1.013637
H46   H     H_    0.933572 0.346015 0.891644 0.259049
H47   H     H_    0.825446 0.296735 0.842203 0.273583
H48   H     H_    0.851616 0.418423 0.807926 0.270843

loop_
_geom_bond_atom_site_label_1
_geom_bond_atom_site_label_2
_ccdc_geom_bond_type
O9    C41   S    
C19   C23   A    
O11   C47   S    
C7    H15   S    
C2    O3    A    
C8    H16   S    
C42   H23   S    
C7    C11   A    
C23   H2    S    
C41   H22   S    
C9    N1    A    
C32   C36   A    
C5    H13   S    
C28   C29   A    
C10   H18   S    
C17   H5    S    
C37   C40   A    
C44   H28   S    
C38   C39   A    
C37   H11   S    
C19   H7    S    
C31   O9    S    
C46   H33   S    
O12   C50   S    
C47   C48   S    
C33   O11   S    
C49   H41   S    
O7    Zn1   S    
C51   H44   S    
O4    Zn2   S    
C20   C24   A    
C41   C42   S    
C47   H36   S    
C35   H9    S    
C50   H42   S    
C16   O6    A    
O5    Zn1   S    
O6    Zn2   S    
C52   H48   S    
C42   H24   S    
C34   C38   A    
C13   C14   S    
C27   C30   A    
C24   H1    S    
C50   H43   S    
C10   N2    A    
C6    H14   S    
C43   H27   S    
C11   H19   S    
C18   H6    S    
C2    O2    A    
C44   H29   S    
C25   C29   A    
C32   O10   S    
C41   H21   S    
C34   O12   S    
C36   C40   A    
C18   C28   A    
O10   C44   S    
C43   H26   S    
C46   H32   S    
C3    C34   A    
C16   C29   S    
O3    Zn1   S    
C33   C37   A    
C17   C27   A    
C35   C39   A    
C5    C9    A    
C6    C14   A    
C21   H4    S    
C12   N2    A    
C22   H3    S    
C45   C46   S    
C8    C12   A    
C15   O5    A    
C47   H35   S    
C1    O4    A    
C20   H8    S    
C3    C31   A    
C51   C52   S    
C4    C32   A    
N1    Zn2   S    
C48   H38   S    
O1    Zn1   S    
C26   C30   A    
C21   C23   A    
C50   C51   S    
C22   C24   A    
C3    C4    S    
C36   H10   S    
C15   C30   S    
C52   H46   S    
C44   C45   S    
C15   O8    A    
C4    C33   A    
C1    O1    A    
C8    C14   A    
C18   C22   A    
C5    C13   A    
C16   O7    A    
C45   H31   S    
C43   H25   S    
C11   N1    A    
C6    C10   A    
C25   C27   A    
C26   C28   A    
C48   H37   S    
C49   H40   S    
C46   H34   S    
C42   C43   S    
C20   C26   A    
C31   C35   A    
N2    Zn1   S    
C9    H17   S    
O2    Zn2   S    
C49   H39   S    
C19   C25   A    
C51   H45   S    
C1    C39   S    
C12   H20   S    
C2    C40   S    
C7    C13   A    
C48   C49   S    
C38   H12   S    
C45   H30   S    
O8    Zn2   S    
C52   H47   S    
C17   C21   A    
