data_mof_unit_30831.cif
_audit_creation_date              2012-12-11T15:17:34-0500
_audit_creation_method            fapswitch 2.2
_symmetry_space_group_name_H-M    P1
_symmetry_Int_Tables_number       1
_space_group_crystal_system       triclinic
_cell_length_a                    15.693418
_cell_length_b                    15.712934
_cell_length_c                    34.42034
_cell_angle_alpha                 90.249943
_cell_angle_beta                  89.749476
_cell_angle_gamma                 119.963524
_cell_volume                      7353.16992421

loop_
_atom_site_label
_atom_site_type_symbol
_atom_type_description
_atom_site_fract_x
_atom_site_fract_y
_atom_site_fract_z
_atom_type_partial_charge
C1    C     C_R   0.577661 0.442685 0.554718 0.569508
C2    C     C_R   0.499206 0.005221 0.209259 0.388666
C3    C     C_3   0.764784 0.656570 0.607102 0.066391
C4    C     C_3   0.840663 0.765400 0.601800 -0.255404
C5    C     C_3   0.935856 0.794200 0.623509 -0.457782
C6    C     C_3   0.333005 0.093581 0.604569 0.080296
C7    C     C_3   0.220356 0.038995 0.605869 -0.251142
C8    C     C_3   0.181483 0.100397 0.625326 -0.456644
C9    C     C_3   0.360031 0.047594 0.067299 0.038015
C10   C     C_3   0.275305 0.054541 0.048942 -0.261537
C11   C     C_3   0.312678 0.149487 0.025925 -0.443773
C12   C     C_3   0.673910 0.621986 0.055059 0.031622
C13   C     C_R   0.507004 0.486998 0.206046 0.391476
C14   C     C_3   0.740450 0.585128 0.071490 -0.269075
C15   C     C_3   0.788592 0.557024 0.039122 -0.471530
C16   C     C_3   0.923693 0.359687 0.045846 0.028962
C17   C     C_3   0.815412 0.295859 0.057442 -0.253229
C18   C     C_3   0.747301 0.279985 0.023294 -0.454329
C19   C     C_3   0.052958 0.621127 0.538812 0.003695
C20   C     C_3   0.115673 0.722840 0.520834 -0.245188
C21   C     C_3   0.169754 0.718348 0.484603 -0.453020
C22   C     C_3   0.333865 0.347745 0.553979 -0.002220
C23   C     C_3   0.280983 0.262155 0.525529 -0.250028
C24   C     C_R   0.966761 0.478725 0.206297 0.415084
C25   C     C_3   0.229625 0.286888 0.493629 -0.435613
C26   C     C_3   0.656689 0.995095 0.556412 -0.005860
C27   C     C_3   0.639863 0.898046 0.573924 -0.289700
C28   C     C_3   0.597444 0.815275 0.543960 -0.440597
C29   C     C_3   0.659126 0.897541 0.087317 0.083240
C30   C     C_3   0.769388 0.953408 0.096524 -0.260514
C31   C     C_3   0.810273 0.884303 0.101840 -0.458857
C32   C     C_3   0.231868 0.349647 0.086260 0.074558
C33   C     C_3   0.167511 0.241160 0.097195 -0.279416
C34   C     C_3   0.061166 0.214109 0.104789 -0.442912
C35   C     C_R   0.152442 0.584697 0.837386 -0.162779
C36   C     C_3   0.091842 0.759406 0.100841 0.065633
C37   C     C_3   0.068839 0.766997 0.058272 -0.256317
C38   C     C_3   0.014612 0.824451 0.054025 -0.496261
C39   C     C_3   0.176279 0.719335 0.628924 0.046184
C40   C     C_3   0.246287 0.707699 0.656431 -0.243977
C41   C     C_3   0.347192 0.744298 0.637801 -0.471327
C42   C     C_3   0.255721 0.367743 0.652525 0.013034
C43   C     C_3   0.238269 0.411867 0.689388 -0.273638
C44   C     C_3   0.140446 0.409848 0.687708 -0.471307
C45   C     C_3   0.733928 0.012339 0.660865 0.041253
C46   C     C_R   0.548848 0.582941 0.846766 -0.146451
C47   C     C_3   0.810897 0.029217 0.691534 -0.252836
C48   C     C_3   0.858850 0.966935 0.683588 -0.505528
C49   C     C_3   0.620587 0.898568 0.188780 0.002342
C50   C     C_3   0.711822 0.917398 0.211467 -0.249903
C51   C     C_3   0.692179 0.827894 0.235394 -0.457693
C52   C     C_3   0.276883 0.378098 0.187166 0.002641
C53   C     C_3   0.204256 0.290062 0.211369 -0.252396
C54   C     C_3   0.132493 0.312006 0.233114 -0.468900
C55   C     C_3   0.190056 0.709217 0.190485 0.031861
C56   C     C_3   0.203395 0.643227 0.219716 -0.293893
C57   C     C_R   0.434759 0.991780 0.850690 -0.121100
C58   C     C_3   0.309914 0.689260 0.233186 -0.492902
C59   C     C_3   0.923321 0.648022 0.849206 0.038670
C60   C     C_3   0.828977 0.650766 0.841895 -0.235653
C61   C     C_3   0.849836 0.756605 0.841462 -0.451588
C62   C     C_3   0.234973 0.395171 0.823472 0.038635
C63   C     C_3   0.143906 0.310086 0.804838 -0.258506
C64   C     C_3   0.064274 0.337054 0.797831 -0.454147
C65   C     C_3   0.652817 0.893644 0.826716 0.056636
C66   C     C_3   0.741598 0.912788 0.801655 -0.262823
C67   C     C_3   0.715862 0.831722 0.771633 -0.453729
C68   C     C_R   0.437597 0.017819 0.350992 -0.133802
C69   C     C_3   0.653519 0.944313 0.321206 0.022335
C70   C     C_3   0.636929 0.879080 0.356814 -0.258704
C71   C     C_3   0.608494 0.775146 0.344384 -0.466772
C72   C     C_3   0.295143 0.354585 0.321050 0.023428
C73   C     C_3   0.249758 0.376444 0.356662 -0.256026
C74   C     C_3   0.182228 0.414932 0.344151 -0.470629
C75   C     C_3   0.054797 0.701650 0.324540 0.032553
C76   C     C_3   0.062858 0.778120 0.295225 -0.240644
C77   C     C_3   0.169754 0.856991 0.288529 -0.445895
C78   C     C_R   0.594229 0.550107 0.346205 -0.146001
C79   C     C_R   0.955789 0.400601 0.347771 -0.143647
C80   C     C_R   0.175926 0.579773 0.875733 0.164887
C81   C     C_R   0.557603 0.134714 0.554462 0.573469
C82   C     C_R   0.547065 0.598802 0.886509 0.192081
C83   C     C_R   0.407196 0.956792 0.888364 0.196456
C84   C     C_R   0.445575 0.040051 0.390370 0.198256
C85   C     C_R   0.607267 0.546508 0.385896 0.184919
C86   C     C_R   0.945027 0.393179 0.387832 0.194198
C87   C     C_R   0.011179 0.539193 0.895822 0.194090
C88   C     C_R   0.383962 0.454006 0.890240 0.227018
C89   C     C_R   0.554468 0.942796 0.893823 0.204132
C90   C     C_R   0.614355 0.072017 0.389316 0.200341
C91   C     C_R   0.460105 0.384412 0.388119 0.199645
C92   C     C_R   0.863419 0.421467 0.554877 0.562580
C93   C     C_R   0.930286 0.540181 0.389032 0.197907
C94   C     C_R   0.989706 0.550740 0.857103 0.292247
C95   C     C_R   0.384673 0.441616 0.849693 0.297621
C96   C     C_R   0.577951 0.971666 0.854787 0.277882
C97   C     C_R   0.603906 0.045245 0.349985 0.288950
C98   C     C_R   0.443801 0.392675 0.348534 0.293586
C99   C     C_R   0.947849 0.550622 0.348795 0.277848
C100  C     C_R   0.059550 0.569387 0.827396 -0.050531
C101  C     C_R   0.466727 0.508449 0.827790 -0.020378
C102  C     C_R   0.516861 0.995365 0.832872 -0.032751
C103  C     C_R   0.442934 0.576287 0.053786 0.554752
C104  C     C_R   0.518205 0.027218 0.330010 -0.054972
C105  C     C_R   0.516004 0.472333 0.326905 -0.051827
C106  C     C_R   0.951637 0.475354 0.327596 -0.052786
C107  C     C_R   0.104357 0.552865 0.905113 0.027133
C108  C     C_R   0.460703 0.539535 0.908268 0.024939
C109  C     C_R   0.463525 0.925561 0.909761 -0.000091
C110  C     C_R   0.537529 0.077096 0.409161 -0.024634
C111  C     C_R   0.545013 0.459692 0.406996 -0.026286
C112  C     C_R   0.920227 0.456154 0.408351 -0.025319
C113  C     C_R   0.578129 0.442037 0.445031 0.588396
C114  C     C_R   0.136495 0.558906 0.054897 0.572700
C115  C     C_R   0.557341 0.134406 0.445628 0.592215
C116  C     C_R   0.865836 0.422521 0.445647 0.574572
C117  C     C_R   0.442919 0.576744 0.945599 0.630765
C118  C     C_R   0.135983 0.558180 0.945410 0.632122
C119  C     C_R   0.422986 0.865398 0.945525 0.619937
C120  C     C_R   0.921877 0.456076 0.590799 -0.065196
C121  C     C_R   0.537836 0.470553 0.588799 -0.055808
C122  C     C_R   0.536729 0.075206 0.590317 -0.044337
C123  C     C_R   0.458590 0.927540 0.089446 -0.051693
C124  C     C_R   0.468017 0.535482 0.087704 -0.056520
C125  C     C_R   0.423046 0.866325 0.054024 0.576484
C126  C     C_R   0.075587 0.537958 0.090191 -0.065171
C127  C     C_R   0.907629 0.386139 0.619386 0.228555
C128  C     C_R   0.595262 0.562216 0.607633 0.210500
C129  C     C_R   0.449096 0.044826 0.611490 0.205304
C130  C     C_R   0.398270 0.958573 0.107983 0.228456
C131  C     C_R   0.562466 0.587750 0.104525 0.221830
C132  C     C_R   0.008215 0.440163 0.101052 0.207996
C133  C     C_R   0.929599 0.415893 0.658123 0.175693
C134  C     C_R   0.564195 0.580246 0.643674 0.183120
C135  C     C_R   0.445740 0.019824 0.650949 0.155500
C136  C     C_R   0.000894 0.546513 0.708473 0.402084
C137  C     C_R   0.413713 0.986621 0.146885 0.196311
C138  C     C_R   0.575941 0.568347 0.142851 0.194163
C139  C     C_R   0.969383 0.420303 0.138844 0.185299
C140  C     C_R   0.982568 0.516608 0.667378 -0.043045
C141  C     C_R   0.483787 0.502664 0.663269 -0.035716
C142  C     C_R   0.532260 0.035696 0.669661 -0.031939
C143  C     C_R   0.491896 0.987972 0.167187 -0.042082
C144  C     C_R   0.496797 0.494401 0.163966 -0.035301
C145  C     C_R   0.995341 0.497857 0.165343 -0.033864
C146  C     C_R   0.019849 0.586726 0.637217 0.222887
C147  C     C_R   0.473114 0.503870 0.706202 0.364912
C148  C     C_R   0.418615 0.418296 0.641779 0.246567
C149  C     C_R   0.615227 0.053915 0.647428 0.246336
C150  C     C_R   0.560424 0.969557 0.147227 0.227756
C151  C     C_R   0.406807 0.431679 0.144992 0.224266
C152  C     C_R   0.059003 0.595517 0.153894 0.211847
C153  C     C_R   0.983662 0.557342 0.598941 0.178431
C154  C     C_R   0.443719 0.404266 0.603984 0.208715
C155  C     C_R   0.612589 0.062831 0.606829 0.240041
C156  C     C_R   0.546903 0.945916 0.107179 0.207631
C157  C     C_R   0.395302 0.448366 0.105536 0.211393
C158  C     C_R   0.535810 0.032590 0.712338 0.431657
C159  C     C_R   0.091132 0.616013 0.115143 0.184121
C160  C     C_R   0.037403 0.570647 0.785819 0.334873
C161  C     C_R   0.466982 0.505390 0.785064 0.333563
C162  C     C_R   0.532585 0.017532 0.790854 0.373943
C163  C     C_R   0.511954 0.020121 0.287523 0.339338
C164  C     C_R   0.512242 0.476519 0.284359 0.339099
C165  C     C_R   0.953746 0.474418 0.284758 0.344843
C166  C     C_3   0.932877 0.255476 0.610452 0.069442
C167  C     C_3   0.946927 0.226264 0.569501 -0.247240
C168  C     C_3   0.011330 0.178794 0.569965 -0.507436
Cl1   Cl    Cl    0.299496 0.617390 0.886020 -0.637278
Cl2   Cl    Cl    0.333945 0.021561 0.169226 -0.543802
Cl3   Cl    Cl    0.694445 0.636104 0.163543 -0.611365
Cl4   Cl    Cl    0.889894 0.297166 0.152787 -0.557324
Cl5   Cl    Cl    0.922997 0.513516 0.932629 -0.608074
Cl6   Cl    Cl    0.284447 0.361447 0.916968 -0.527933
Cl7   Cl    Cl    0.643792 0.934103 0.922127 -0.500240
Cl8   Cl    Cl    0.724974 0.096681 0.412332 -0.486275
Cl9   Cl    Cl    0.370937 0.277826 0.412507 -0.523440
Cl10  Cl    Cl    0.922539 0.634608 0.413986 -0.491182
Cl11  Cl    Cl    0.655163 0.695137 0.907212 -0.595664
Cl12  Cl    Cl    0.300391 0.953851 0.906578 -0.551462
Cl13  Cl    Cl    0.337874 0.022079 0.414112 -0.520543
Cl14  Cl    Cl    0.705835 0.653123 0.406703 -0.508120
Cl15  Cl    Cl    0.962128 0.301998 0.410357 -0.533415
Cl16  Cl    Cl    0.889337 0.324174 0.694453 -0.560120
Cl17  Cl    Cl    0.626947 0.701078 0.662738 -0.675089
Cl18  Cl    Cl    0.332606 0.966229 0.676470 -0.617073
Cr1   Cr    Cr6+3 0.522350 0.263930 0.500020 1.095630
Cr2   Cr    Cr6+3 0.736070 0.258420 0.500020 1.117410
Cr3   Cr    Cr6+3 0.741580 0.477650 0.500020 1.124376
Cr4   Cr    Cr6+3 0.263930 0.522350 0.000020 1.096677
Cr5   Cr    Cr6+3 0.258420 0.736070 0.000020 1.091157
Cr6   Cr    Cr6+3 0.477650 0.741580 0.000020 1.120505
H1    H     H_    0.208252 0.602056 0.815356 0.176835
H2    H     H_    0.982428 0.292700 0.550833 0.165750
H3    H     H_    0.238408 0.369828 0.715205 0.200466
H4    H     H_    0.297736 0.489420 0.692579 0.166903
H5    H     H_    0.136370 0.447241 0.661068 0.129949
H6    H     H_    0.133149 0.448527 0.713385 0.188174
H7    H     H_    0.079031 0.332665 0.687953 0.180883
H8    H     H_    0.769757 0.023092 0.632148 0.169058
H9    H     H_    0.671415 0.935538 0.663605 0.152059
H10   H     H_    0.869050 0.107919 0.691936 0.203138
H11   H     H_    0.775140 0.010650 0.720463 0.193406
H12   H     H_    0.802572 0.887763 0.683363 0.210045
H13   H     H_    0.085481 0.231208 0.581494 0.130246
H14   H     H_    0.913214 0.980063 0.706712 0.157594
H15   H     H_    0.897692 0.986942 0.655149 0.134624
H16   H     H_    0.595921 0.832001 0.170565 0.118260
H17   H     H_    0.560899 0.882323 0.210024 0.124761
H18   H     H_    0.773381 0.935152 0.190990 0.180485
H19   H     H_    0.734123 0.981291 0.231164 0.203752
H20   H     H_    0.628440 0.805997 0.255116 0.140216
H21   H     H_    0.757975 0.845176 0.253034 0.165635
H22   H     H_    0.676224 0.765536 0.215868 0.239231
H23   H     H_    0.235143 0.402536 0.168946 0.110020
H24   H     H_    0.019536 0.157692 0.539949 0.172893
H25   H     H_    0.323013 0.439251 0.207418 0.123985
H26   H     H_    0.161708 0.225458 0.192167 0.184124
H27   H     H_    0.245592 0.271315 0.232522 0.202882
H28   H     H_    0.084397 0.249127 0.252172 0.171617
H29   H     H_    0.085620 0.322982 0.211996 0.207655
H30   H     H_    0.172865 0.379003 0.251332 0.141770
H31   H     H_    0.216744 0.782481 0.204044 0.196574
H32   H     H_    0.237581 0.721804 0.164577 0.166573
H33   H     H_    0.155394 0.630561 0.245402 0.184135
H34   H     H_    0.182212 0.571295 0.205953 0.157175
H35   H     H_    0.977088 0.111664 0.588259 0.140643
H36   H     H_    0.360008 0.705821 0.207901 0.140429
H37   H     H_    0.317727 0.637277 0.252585 0.147698
H38   H     H_    0.331407 0.757873 0.249639 0.179616
H39   H     H_    0.977286 0.691335 0.825968 0.137663
H40   H     H_    0.953540 0.683332 0.877915 0.173427
H41   H     H_    0.797026 0.615450 0.813504 0.189360
H42   H     H_    0.774695 0.609411 0.865173 0.229190
H43   H     H_    0.883453 0.793943 0.869346 0.201048
H44   H     H_    0.780238 0.757185 0.837642 0.176663
H45   H     H_    0.900109 0.797846 0.817096 0.149709
H46   H     H_    0.792784 0.611523 0.593001 0.174277
H47   H     H_    0.266601 0.458566 0.803028 0.130177
H48   H     H_    0.211619 0.416502 0.850670 0.201463
H49   H     H_    0.164630 0.290282 0.776741 0.176623
H50   H     H_    0.113947 0.244987 0.824230 0.212805
H51   H     H_    0.037926 0.350589 0.825932 0.177528
H52   H     H_    0.001115 0.275807 0.782539 0.191926
H53   H     H_    0.093349 0.404102 0.779700 0.160810
H54   H     H_    0.583710 0.850838 0.809715 0.151009
H55   H     H_    0.648875 0.848012 0.851981 0.210976
H56   H     H_    0.769945 0.983657 0.786129 0.205527
H57   H     H_    0.756602 0.639177 0.638756 0.162195
H58   H     H_    0.801660 0.919498 0.820691 0.170054
H59   H     H_    0.681306 0.758876 0.785779 0.169915
H60   H     H_    0.783787 0.844093 0.756589 0.156293
H61   H     H_    0.664230 0.832020 0.749723 0.214088
H62   H     H_    0.714998 0.947512 0.303999 0.166601
H63   H     H_    0.587829 0.910012 0.302083 0.113940
H64   H     H_    0.705207 0.910586 0.374445 0.237023
H65   H     H_    0.576564 0.874807 0.375195 0.156544
H66   H     H_    0.542209 0.743268 0.325578 0.140045
H67   H     H_    0.591175 0.728387 0.370543 0.197540
H68   H     H_    0.857180 0.781218 0.570358 0.180809
H69   H     H_    0.670295 0.775743 0.328323 0.177858
H70   H     H_    0.234356 0.296291 0.303741 0.165692
H71   H     H_    0.331446 0.420206 0.301977 0.112184
H72   H     H_    0.207055 0.308345 0.373978 0.232588
H73   H     H_    0.308337 0.433049 0.375356 0.153852
H74   H     H_    0.223566 0.483035 0.326722 0.133117
H75   H     H_    0.152063 0.432346 0.370260 0.190940
H76   H     H_    0.120768 0.358561 0.326492 0.171430
H77   H     H_    0.097705 0.667837 0.312999 0.095879
H78   H     H_    0.087498 0.738733 0.352651 0.178326
H79   H     H_    0.809742 0.810995 0.612797 0.198391
H80   H     H_    0.030416 0.741358 0.267100 0.217116
H81   H     H_    0.021038 0.813354 0.306076 0.205908
H82   H     H_    0.202088 0.897512 0.315970 0.176754
H83   H     H_    0.173476 0.909806 0.266326 0.200814
H84   H     H_    0.213194 0.823246 0.278041 0.162877
H85   H     H_    0.921304 0.780321 0.655123 0.178576
H86   H     H_    0.988384 0.873588 0.619152 0.138048
H87   H     H_    0.614116 0.630825 0.830276 0.140442
H88   H     H_    0.969845 0.751857 0.612273 0.233521
H89   H     H_    0.358099 0.153381 0.582951 0.204736
H90   H     H_    0.362764 0.128543 0.633370 0.189891
H91   H     H_    0.191136 0.020209 0.575787 0.155133
H92   H     H_    0.192715 0.969294 0.622250 0.223449
H93   H     H_    0.206515 0.116377 0.655985 0.209933
H94   H     H_    0.099844 0.059411 0.624991 0.122377
H95   H     H_    0.207589 0.170538 0.609634 0.189115
H96   H     H_    0.409800 0.049179 0.043762 0.132962
H97   H     H_    0.401512 0.112617 0.086672 0.169455
H98   H     H_    0.388203 0.011740 0.834574 0.200011
H99   H     H_    0.233719 0.990933 0.029156 0.183519
H100  H     H_    0.224787 0.052218 0.072182 0.177995
H101  H     H_    0.352764 0.214208 0.045318 0.189821
H102  H     H_    0.249429 0.152080 0.012881 0.177998
H103  H     H_    0.362525 0.152970 0.002195 0.183377
H104  H     H_    0.717164 0.681645 0.033935 0.167316
H105  H     H_    0.612194 0.562297 0.038316 0.136318
H106  H     H_    0.798765 0.643358 0.089722 0.208946
H107  H     H_    0.696232 0.519658 0.090002 0.193799
H108  H     H_    0.731476 0.498105 0.020703 0.175479
H109  H     H_    0.369180 0.997721 0.336365 0.181824
H110  H     H_    0.835230 0.529752 0.052013 0.144141
H111  H     H_    0.835727 0.621860 0.020749 0.178002
H112  H     H_    0.938369 0.326105 0.020066 0.178194
H113  H     H_    0.938394 0.433768 0.036540 0.124316
H114  H     H_    0.802052 0.223267 0.067811 0.230699
H115  H     H_    0.797895 0.332217 0.081436 0.194059
H116  H     H_    0.759680 0.351577 0.012237 0.176095
H117  H     H_    0.669532 0.235490 0.032883 0.158958
H118  H     H_    0.760636 0.240167 0.999444 0.190181
H119  H     H_    0.999578 0.573171 0.516497 0.168450
H120  H     H_    0.648065 0.613283 0.330031 0.189009
H121  H     H_    0.101574 0.590562 0.546215 0.089219
H122  H     H_    0.067589 0.753207 0.512800 0.205412
H123  H     H_    0.170352 0.773131 0.542399 0.167183
H124  H     H_    0.219968 0.690199 0.492092 0.133857
H125  H     H_    0.214029 0.793148 0.472174 0.196859
H126  H     H_    0.116370 0.669672 0.462337 0.176256
H127  H     H_    0.388577 0.413053 0.537200 0.126404
H128  H     H_    0.278979 0.364482 0.566971 0.112388
H129  H     H_    0.335095 0.244907 0.512036 0.213900
H130  H     H_    0.225278 0.195968 0.541281 0.150384
H131  H     H_    0.964657 0.345405 0.332302 0.192177
H132  H     H_    0.174252 0.303217 0.506441 0.140941
H133  H     H_    0.191548 0.223355 0.473555 0.209115
H134  H     H_    0.284138 0.351580 0.476768 0.174625
H135  H     H_    0.714293 0.018243 0.533602 0.164268
H136  H     H_    0.589004 0.982791 0.541187 0.128294
H137  H     H_    0.710776 0.907146 0.584384 0.164377
H138  H     H_    0.587792 0.876502 0.598779 0.163076
H139  H     H_    0.525054 0.802381 0.533507 0.137723
H140  H     H_    0.586895 0.746574 0.557448 0.205571
H141  H     H_    0.648501 0.833902 0.518894 0.175604
H142  H     H_    0.904448 0.190372 0.629572 0.185780
H143  H     H_    0.649167 0.859796 0.058939 0.187143
H144  H     H_    0.617219 0.838571 0.108765 0.134249
H145  H     H_    0.809677 0.004938 0.072373 0.175700
H146  H     H_    0.783234 0.997758 0.123335 0.227803
H147  H     H_    0.771451 0.832386 0.125973 0.226359
H148  H     H_    0.889741 0.927630 0.109023 0.139154
H149  H     H_    0.801951 0.842763 0.074616 0.181538
H150  H     H_    0.206210 0.359976 0.057593 0.188380
H151  H     H_    0.221862 0.398837 0.106716 0.115449
H152  H     H_    0.169187 0.194587 0.073148 0.157884
H153  H     H_    0.006515 0.310494 0.622089 0.084455
H154  H     H_    0.196845 0.224208 0.123417 0.226347
H155  H     H_    0.057677 0.261569 0.128017 0.208275
H156  H     H_    0.018213 0.136366 0.114318 0.144569
H157  H     H_    0.027662 0.222281 0.077759 0.206818
H158  H     H_    0.136022 0.834622 0.113037 0.219041
H159  H     H_    0.021778 0.722902 0.117850 0.146741
H160  H     H_    0.138496 0.804444 0.041366 0.210979
H161  H     H_    0.022545 0.691976 0.046126 0.158471
H162  H     H_    0.944084 0.787887 0.070257 0.150777
H163  H     H_    0.998723 0.828206 0.022879 0.170239
H164  H     H_    0.874354 0.173641 0.556813 0.220340
H165  H     H_    0.060197 0.900354 0.065322 0.150436
H166  H     H_    0.207420 0.798531 0.622313 0.204723
H167  H     H_    0.174214 0.683058 0.600978 0.119514
H168  H     H_    0.255010 0.749529 0.683639 0.249715
H169  H     H_    0.215197 0.628940 0.663733 0.159416
H170  H     H_    0.340686 0.699060 0.611886 0.133034
H171  H     H_    0.397185 0.738450 0.658989 0.185554
H172  H     H_    0.379843 0.822175 0.628848 0.173467
H173  H     H_    0.187785 0.297468 0.645791 0.143823
H174  H     H_    0.268286 0.417925 0.627604 0.093362
N1    N     N_R   0.943714 0.519033 0.772574 -0.141917
N2    N     N_R   0.418120 0.954506 0.231730 -0.220712
N3    N     N_R   0.543553 0.569388 0.228116 -0.220469
N4    N     N_R   0.990375 0.420568 0.227124 -0.215257
N5    N     N_R   0.093975 0.601665 0.721655 -0.229385
N6    N     N_R   0.434750 0.418744 0.726731 -0.170166
N7    N     N_R   0.580712 0.988865 0.730118 -0.212980
N8    N     N_R   0.587037 0.064234 0.226550 -0.137926
N9    N     N_R   0.472657 0.398805 0.223801 -0.146057
N10   N     N_R   0.933985 0.532760 0.225218 -0.148527
N11   N     N_R   0.111897 0.613491 0.759577 -0.247710
N12   N     N_R   0.504523 0.590257 0.764682 -0.254472
N13   N     N_R   0.431085 0.419310 0.765404 -0.156478
N14   N     N_R   0.578930 0.981477 0.768603 -0.210968
N15   N     N_R   0.593205 0.071747 0.265076 -0.152734
N16   N     N_R   0.475488 0.393706 0.262348 -0.155240
N17   N     N_R   0.926704 0.529860 0.263732 -0.151332
N18   N     N_R   0.490025 0.063727 0.772999 -0.194615
N19   N     N_R   0.424199 0.962281 0.270143 -0.270194
N20   N     N_R   0.546775 0.564403 0.266509 -0.261414
N21   N     N_R   0.983525 0.418064 0.265626 -0.254048
N22   N     N_R   0.925849 0.507339 0.734590 -0.148405
N23   N     N_R   0.507282 0.589406 0.726086 -0.164396
N24   N     N_R   0.492173 0.071671 0.734518 -0.127487
O1    O     O_R   0.498680 0.159540 0.541860 -0.496863
O2    O     O_R   0.358060 0.532760 0.040030 -0.503219
O3    O     O_R   0.174700 0.641940 0.040030 -0.475562
O4    O     O_R   0.467240 0.825300 0.040030 -0.503123
O5    O     O_R   0.498590 0.161190 0.456930 -0.427567
O6    O     O_R   0.838810 0.337400 0.456930 -0.432260
O7    O     O_R   0.662600 0.501410 0.456930 -0.422762
O8    O     O_R   0.161190 0.498590 0.956930 -0.461765
O9    O     O_R   0.337400 0.838810 0.956930 -0.455024
O10   O     O_R   0.501410 0.662600 0.956930 -0.428178
O11   O     O_R   0.532680 0.359580 0.461300 -0.469915
O12   O     O_R   0.840460 0.339140 0.541860 -0.482119
O13   O     O_R   0.640420 0.173100 0.461300 -0.464870
O14   O     O_R   0.826900 0.467320 0.461300 -0.462652
O15   O     O_R   0.359580 0.532680 0.961300 -0.436457
O16   O     O_R   0.173100 0.640420 0.961300 -0.475856
O17   O     O_R   0.467320 0.826900 0.961300 -0.440378
O18   O     O_3   0.666667 0.333333 0.499990 -0.295241
O19   O     O_3   0.333333 0.666667 0.999990 -0.278435
O20   O     O_3   0.862443 0.287128 0.610117 -0.458818
O21   O     O_3   0.676068 0.637458 0.588866 -0.528457
O22   O     O_3   0.364505 0.027630 0.592138 -0.550768
O23   O     O_R   0.660860 0.501320 0.541860 -0.481761
O24   O     O_3   0.321566 0.959130 0.088541 -0.515891
O25   O     O_3   0.641452 0.662203 0.084728 -0.551575
O26   O     O_3   0.985940 0.362398 0.076118 -0.548190
O27   O     O_3   0.002321 0.629430 0.571546 -0.564296
O28   O     O_3   0.378526 0.321049 0.583527 -0.564941
O29   O     O_3   0.690617 0.071568 0.584627 -0.540019
O30   O     O_3   0.626204 0.965869 0.083197 -0.545537
O31   O     O_3   0.330323 0.371463 0.081848 -0.552470
O32   O     O_3   0.149112 0.712763 0.103381 -0.533230
O33   O     O_3   0.082359 0.684972 0.646274 -0.535420
O34   O     O_R   0.159540 0.498680 0.041860 -0.518468
O35   O     O_3   0.332164 0.345915 0.658329 -0.525899
O36   O     O_3   0.703556 0.082330 0.666284 -0.480369
O37   O     O_3   0.644139 0.982169 0.165753 -0.519422
O38   O     O_3   0.333558 0.350081 0.163871 -0.524714
O39   O     O_3   0.089473 0.671158 0.180911 -0.545466
O40   O     O_3   0.902962 0.549601 0.848945 -0.496085
O41   O     O_3   0.304248 0.365018 0.831482 -0.504899
O42   O     O_3   0.665267 0.985223 0.839160 -0.509868
O43   O     O_3   0.681002 0.042245 0.331408 -0.488387
O44   O     O_3   0.359033 0.318859 0.331329 -0.487169
O45   O     O_R   0.339140 0.840460 0.041860 -0.470375
O46   O     O_3   0.954400 0.631376 0.330044 -0.487839
O47   O     O_R   0.501320 0.660860 0.041860 -0.507814
O48   O     O_R   0.532760 0.358060 0.540030 -0.488330
O49   O     O_R   0.641940 0.174700 0.540030 -0.465057
O50   O     O_R   0.825300 0.467240 0.540030 -0.498475

loop_
_geom_bond_atom_site_label_1
_geom_bond_atom_site_label_2
_ccdc_geom_bond_type
C11   H102  S    
C68   H109  S    
C85   Cl14  S    
C42   O35   S    
C96   C102  A    
C19   C20   S    
C134  Cl17  S    
C136  C140  S    
C168  H35   S    
C3    O21   S    
C66   H56   S    
C45   H8    S    
C57   C102  A    
C80   C107  A    
C167  H164  S    
C83   Cl12  S    
C152  O39   S    
N7    N14   A    
C144  C151  A    
C88   C108  A    
C59   H40   S    
C20   H122  S    
C63   H49   S    
C87   C94   A    
C90   Cl8   S    
C35   C80   A    
C39   H166  S    
C19   H119  S    
C161  N13   A    
Cr6   O19   S    
C154  O28   S    
C135  C142  A    
C1    O48   A    
C57   C83   A    
N8    N15   A    
Cr3   O23   S    
C135  Cl18  S    
C73   H72   S    
Cr1   O5    S    
C130  O24   S    
C8    H94   S    
C23   H129  S    
C88   C95   A    
C59   C60   S    
C4    H68   S    
C6    H90   S    
C142  C158  S    
C113  O7    A    
C123  C156  A    
C45   C47   S    
C34   H156  S    
C121  C154  A    
C166  O20   S    
C36   H158  S    
C79   H131  S    
C121  C128  A    
C70   H64   S    
C163  N15   A    
C72   C73   S    
C10   H100  S    
C25   H134  S    
C15   H110  S    
C52   H23   S    
C6    O22   S    
C62   H47   S    
C71   H66   S    
C75   C76   S    
N12   N23   A    
C37   C38   S    
C75   O46   S    
C147  N23   A    
C133  Cl16  S    
C34   H157  S    
C16   H112  S    
C46   H87   S    
C105  C164  S    
C111  C113  S    
C132  O26   S    
Cr1   O1    S    
C38   H165  S    
C86   Cl15  S    
C22   O28   S    
C115  O13   A    
C137  C143  A    
C7    H91   S    
C113  O11   A    
C72   H71   S    
C128  O21   S    
C138  Cl3   S    
C60   H41   S    
C4    C5    S    
C6    C7    S    
Cr2   O49   S    
C27   H138  S    
C21   H125  S    
C89   C96   A    
C149  C155  A    
C131  C138  A    
C32   O31   S    
C134  C141  A    
C29   O30   S    
C76   H81   S    
C81   O1    A    
C91   C98   A    
C119  O17   A    
C69   C70   S    
C41   H170  S    
C141  C147  S    
C93   C112  A    
C149  O36   S    
C87   C107  A    
C20   C21   S    
C79   C106  A    
C21   H124  S    
C116  O14   A    
C22   C23   S    
C14   H107  S    
C162  N14   A    
C160  N11   A    
C57   H98   S    
C55   H32   S    
C28   H140  S    
C136  N22   A    
C65   H54   S    
C66   H58   S    
C44   H6    S    
C12   H105  S    
Cr2   O13   S    
C122  C155  A    
C77   H83   S    
C97   O43   S    
C150  O37   S    
C29   H143  S    
C59   H39   S    
C36   O32   S    
C120  C127  A    
C7    C8    S    
C64   H51   S    
C126  C159  A    
C132  C139  A    
C11   H103  S    
C52   H25   S    
C147  N6    A    
C94   O40   S    
C142  C149  A    
C36   C37   S    
C24   C145  S    
C65   O42   S    
C114  C126  S    
Cr6   O17   S    
C71   H67   S    
C88   Cl6   S    
Cr5   O19   S    
C43   H3    S    
C13   C144  S    
C96   O42   S    
C129  C135  A    
C70   H65   S    
C38   H163  S    
C118  O8    A    
C17   H114  S    
C114  O34   A    
C160  N1    A    
C94   C100  A    
N2    N19   A    
C9    C10   S    
C107  C118  S    
C30   H145  S    
C1    O23   A    
C66   C67   S    
C152  C159  A    
C33   H154  S    
C48   H15   S    
C69   H62   S    
C46   C101  A    
C18   H118  S    
C22   H128  S    
C156  O30   S    
C39   C40   S    
C54   H29   S    
C47   H10   S    
C29   C30   S    
C58   H38   S    
C41   H172  S    
C128  C134  A    
C119  O9    A    
C74   H75   S    
C49   H16   S    
C126  C132  A    
C45   O36   S    
C37   H161  S    
C17   C18   S    
C137  Cl2   S    
C51   H22   S    
C33   H152  S    
C78   H120  S    
C123  C130  A    
C61   H43   S    
Cr3   O18   S    
C157  O31   S    
C3    C4    S    
C26   O29   S    
C112  C116  S    
C31   H147  S    
C52   C53   S    
C78   C85   A    
C11   H101  S    
C99   C106  A    
C95   O41   S    
C122  C129  A    
C108  C117  S    
C42   H173  S    
C5    H86   S    
C3    H57   S    
C125  O45   A    
Cr4   O34   S    
C75   H78   S    
C48   H12   S    
C72   H70   S    
C14   H106  S    
C168  H24   S    
C68   C104  A    
C92   C120  S    
C138  C144  A    
C26   H135  S    
C35   C100  A    
C13   N9    A    
C56   C58   S    
C161  N12   A    
C1    C121  S    
C24   N10   A    
C145  C152  A    
C10   C11   S    
C3    H46   S    
C63   C64   S    
N1    N22   A    
C16   H113  S    
C50   H18   S    
C77   H84   S    
C49   C50   S    
C49   O37   S    
C168  H13   S    
C32   H151  S    
C151  O38   S    
C95   C101  A    
C158  N24   A    
C53   H27   S    
C55   C56   S    
C12   H104  S    
N5    N11   A    
N6    N13   A    
C40   H168  S    
C73   C74   S    
Cr5   O3    S    
C26   C27   S    
Cr2   O12   S    
C56   H33   S    
Cr4   O8    S    
C151  C157  A    
C30   C31   S    
C123  C125  S    
C25   H133  S    
C81   O49   A    
C62   H48   S    
C162  N18   A    
C163  N19   A    
Cr6   O10   S    
C103  O47   A    
C51   H20   S    
C165  N21   A    
C16   C17   S    
C82   Cl11  S    
Cr1   O48   S    
Cr6   O4    S    
Cr5   O16   S    
C70   C71   S    
C164  N20   A    
C125  O4    A    
C93   C99   A    
C90   C97   A    
C9    H96   S    
C159  O32   S    
C67   H60   S    
C4    H79   S    
C166  H153  S    
C5    H88   S    
C148  C154  A    
C9    O24   S    
C103  C124  S    
C39   O33   S    
C87   Cl5   S    
N3    N20   A    
C68   C84   A    
C106  C165  S    
C60   H42   S    
C140  C146  A    
C167  C168  S    
C117  O15   A    
C53   C54   S    
C28   H139  S    
C13   N3    A    
C40   H169  S    
C116  O6    A    
C24   N4    A    
C62   C63   S    
C16   O26   S    
Cr4   O19   S    
C102  C162  S    
C124  C157  A    
C52   O38   S    
C50   C51   S    
C47   H11   S    
C139  Cl4   S    
C73   H73   S    
C8    H93   S    
C23   H130  S    
Cr6   O47   S    
C15   H108  S    
C6    H89   S    
C42   C43   S    
C89   Cl7   S    
C109  C119  S    
C55   H31   S    
C114  O3    A    
Cr5   O9    S    
C34   H155  S    
C55   O39   S    
C77   H82   S    
C127  C133  A    
C85   C111  A    
C10   H99   S    
C64   H52   S    
C81   C122  S    
C32   C33   S    
C27   H137  S    
C63   H50   S    
C146  C153  A    
C76   H80   S    
C127  O20   S    
Cr3   O14   S    
C97   C104  A    
C15   H111  S    
C35   H1    S    
C92   O12   A    
N9    N16   A    
C117  O10   A    
C133  C140  A    
C92   O50   A    
C49   H17   S    
C60   C61   S    
C155  O29   S    
C130  C137  A    
C110  C115  S    
C79   C86   A    
C7    H92   S    
C37   H160  S    
C153  O27   S    
C30   H146  S    
C103  O2    A    
C158  N7    A    
N4    N21   A    
C43   C44   S    
C32   H150  S    
C104  C163  S    
C148  O35   S    
N10   N17   A    
C20   H123  S    
C131  O25   S    
C28   H141  S    
C21   H126  S    
C98   C105  A    
C78   C105  A    
C84   Cl13  S    
C115  O5    A    
C54   H30   S    
C89   C109  A    
C91   C111  A    
C41   H171  S    
C141  C148  A    
C8    H95   S    
C74   H76   S    
C143  C150  A    
C64   H53   S    
C165  N17   A    
C129  O22   S    
C83   C109  A    
C71   H69   S    
C51   H21   S    
C42   H174  S    
C44   H5    S    
C46   C82   A    
C2    C143  S    
C36   H159  S    
C29   H144  S    
Cr2   O6    S    
C62   O41   S    
Cr1   O11   S    
Cr3   O7    S    
C80   Cl1   S    
C67   H61   S    
C12   O25   S    
C5    H85   S    
C76   C77   S    
Cr3   O50   S    
C75   H77   S    
C136  N5    A    
C84   C110  A    
C124  C131  A    
C43   H4    S    
C86   C112  A    
C146  O33   S    
C31   H149  S    
N18   N24   A    
C26   H136  S    
C100  C160  S    
C47   C48   S    
C72   O44   S    
C38   H162  S    
C59   O40   S    
C17   H115  S    
C33   C34   S    
C2    N8    A    
C18   H116  S    
C19   H121  S    
C39   H167  S    
C2    N2    A    
C40   C41   S    
C12   C14   S    
C50   H19   S    
C82   C108  A    
C166  C167  S    
C167  H2    S    
C90   C110  A    
Cr4   O2    S    
C58   H36   S    
C69   H63   S    
C19   O27   S    
C53   H26   S    
C118  O16   A    
C139  C145  A    
C166  H142  S    
C18   H117  S    
C69   O43   S    
C22   H127  S    
C14   C15   S    
C93   Cl10  S    
C54   H28   S    
Cr4   O15   S    
C98   O44   S    
C56   H34   S    
C61   H45   S    
C101  C161  S    
C58   H37   S    
Cr1   O18   S    
C9    H97   S    
C74   H74   S    
C25   H132  S    
C91   Cl9   S    
C120  C153  A    
C23   C25   S    
C65   H55   S    
C99   O46   S    
Cr5   O45   S    
C44   H7    S    
C45   H9    S    
C65   C66   S    
Cr2   O18   S    
C48   H14   S    
C27   C28   S    
C61   H44   S    
C150  C156  A    
C164  N16   A    
C31   H148  S    
C67   H59   S    
