data_mof_unit_33746.cif
_audit_creation_date              2012-12-10T19:45:03-0500
_audit_creation_method            fapswitch 2.2
_symmetry_space_group_name_H-M    P1
_symmetry_Int_Tables_number       1
_space_group_crystal_system       triclinic
_cell_length_a                    15.131349
_cell_length_b                    10.967092
_cell_length_c                    13.770543
_cell_angle_alpha                 92.695439
_cell_angle_beta                  89.037745
_cell_angle_gamma                 89.162978
_cell_volume                      2282.0574311

loop_
_atom_site_label
_atom_site_type_symbol
_atom_type_description
_atom_site_fract_x
_atom_site_fract_y
_atom_site_fract_z
_atom_type_partial_charge
C1    C     C_R   0.497955 0.262148 0.497822 0.760320
C2    C     C_R   0.496266 0.901875 0.691258 0.094815
C3    C     C_R   0.601896 0.081572 0.269540 -0.167746
C4    C     C_R   0.428332 0.940573 0.756770 -0.122229
C5    C     C_R   0.614858 0.083720 0.168580 0.331331
C6    C     C_R   0.435822 0.924106 0.856832 0.324842
C7    C     C_R   0.542360 0.106825 0.109431 -0.138936
C8    C     C_R   0.511644 0.864831 0.890254 -0.209853
C9    C     C_R   0.498514 0.927598 0.415318 -0.278661
C10   C     C_R   0.493428 0.073002 0.585057 -0.260408
C11   C     C_R   0.497161 0.872141 0.505021 -0.073326
C12   C     C_R   0.498404 0.738025 0.502299 0.778473
C13   C     C_R   0.496769 0.128224 0.495391 -0.091145
C14   C     C_R   0.495383 0.946716 0.591618 0.025798
C15   C     C_R   0.501083 0.053590 0.409167 0.007260
C16   C     C_R   0.329184 0.502794 0.500884 0.879823
C17   C     C_R   0.671195 0.499273 0.499275 0.878316
C18   C     C_R   0.560306 0.430191 0.789279 -0.081629
C19   C     C_R   0.439127 0.568699 0.210543 -0.080957
C20   C     C_R   0.436713 0.566846 0.797497 0.652053
C21   C     C_R   0.564663 0.435769 0.202476 0.654476
C22   C     C_R   0.438730 0.573060 0.901066 -0.106098
C23   C     C_R   0.048582 0.279513 0.527158 0.195820
C24   C     C_R   0.562941 0.429998 0.098894 -0.108633
C25   C     C_R   0.500082 0.500173 0.948204 -0.009412
C26   C     C_R   0.500953 0.501819 0.051725 -0.013731
C27   C     C_R   0.560382 0.425497 0.891890 -0.023781
C28   C     C_R   0.440074 0.575446 0.108047 -0.015252
C29   C     C_R   0.381696 0.651300 0.958213 -0.261499
C30   C     C_R   0.621156 0.353581 0.041757 -0.258769
C31   C     C_R   0.381521 0.653192 0.060433 0.257279
C32   C     C_R   0.619639 0.349005 0.939662 0.256796
C33   C     C_R   0.814245 0.600099 0.468065 0.167885
C34   C     C_R   0.949737 0.717720 0.484897 0.197392
C35   C     C_R   0.189462 0.391049 0.513195 0.152427
C36   C     C_R   0.767999 0.497465 0.497610 -0.245101
C37   C     C_R   0.232953 0.501839 0.502390 -0.260147
C38   C     C_R   0.815252 0.393146 0.525597 0.419899
C39   C     C_R   0.185923 0.611416 0.491887 0.409775
C40   C     C_R   0.908315 0.389606 0.515213 -0.023315
C41   C     C_R   0.092527 0.610798 0.489253 -0.038716
C42   C     C_R   0.954158 0.498156 0.500182 -0.121394
C43   C     C_R   0.047667 0.499241 0.501425 -0.127541
C44   C     C_R   0.905965 0.605880 0.484054 -0.001038
C45   C     C_R   0.458501 0.128955 0.150914 -0.228826
C46   C     C_R   0.095736 0.389062 0.515167 0.024407
C47   C     C_R   0.955914 0.279257 0.520216 0.237977
C48   C     C_R   0.042466 0.719662 0.478505 0.221748
C49   C     C_3   0.709585 0.773210 0.452682 -0.617332
C50   C     C_3   0.264259 0.219592 0.429217 -0.661980
C51   C     C_3   0.290378 0.573251 0.758844 -0.293407
C52   C     C_3   0.711104 0.434588 0.241123 -0.321623
C53   C     C_3   0.361872 0.837258 0.165608 -0.745158
C54   C     C_3   0.638340 0.162633 0.836595 -0.689599
C55   C     C_3   0.717773 0.231311 0.523178 -0.264705
C56   C     C_R   0.578484 0.823359 0.825155 -0.205132
C57   C     C_3   0.269505 0.745537 0.407371 -0.251677
C58   C     C_3   0.898331 0.134687 0.402066 -0.780967
C59   C     C_3   0.081005 0.870154 0.362732 -0.744789
C60   C     C_3   0.100262 0.136576 0.642850 -0.677853
C61   C     C_3   0.877461 0.853293 0.605276 -0.718434
C62   C     C_3   0.710868 0.948855 0.069683 -0.748072
C63   C     C_3   0.279784 0.977535 0.897381 -0.725588
C64   C     C_R   0.445328 0.121471 0.251037 -0.141603
C65   C     C_R   0.571833 0.844056 0.726285 -0.096772
C66   C     C_R   0.516877 0.097209 0.310911 0.130025
Cu1   Cu    Cu3+1 0.500010 0.499980 0.597420 0.982219
Cu2   Cu    Cu3+1 0.499990 0.500020 0.402580 0.966059
H1    H     H_    0.501089 0.872337 0.347857 0.166552
H2    H     H_    0.636857 0.778651 0.851893 0.146708
H3    H     H_    0.378809 0.127069 0.280609 0.123975
H4    H     H_    0.626642 0.818613 0.677755 0.117725
H5    H     H_    0.656885 0.058799 0.315173 0.104175
H6    H     H_    0.372277 0.989973 0.729514 0.135833
H7    H     H_    0.812210 0.721858 0.354994 0.248941
H8    H     H_    0.738113 0.865814 0.458660 0.224365
H9    H     H_    0.687902 0.746715 0.525946 0.205880
H10   H     H_    0.652389 0.778423 0.404225 0.225357
H11   H     H_    0.292868 0.288496 0.568176 0.246947
H12   H     H_    0.491794 0.128758 0.652242 0.162841
H13   H     H_    0.204418 0.201633 0.385443 0.227824
H14   H     H_    0.296808 0.130736 0.442751 0.225056
H15   H     H_    0.310441 0.275699 0.387467 0.222021
H16   H     H_    0.258261 0.593013 0.830767 0.127360
H17   H     H_    0.295800 0.472381 0.745213 0.150215
H18   H     H_    0.245046 0.609271 0.704223 0.204823
H19   H     H_    0.703607 0.535315 0.254112 0.180640
H20   H     H_    0.743899 0.415433 0.169511 0.136567
H21   H     H_    0.756941 0.400749 0.296172 0.178108
H22   H     H_    0.265594 0.756759 0.077932 0.249846
H23   H     H_    0.607940 0.377429 0.744851 0.208827
H24   H     H_    0.325350 0.922730 0.150635 0.220398
H25   H     H_    0.432582 0.847504 0.144405 0.237582
H26   H     H_    0.357644 0.826066 0.244875 0.221053
H27   H     H_    0.736162 0.245679 0.920745 0.260082
H28   H     H_    0.655932 0.077986 0.873384 0.228469
H29   H     H_    0.663793 0.153922 0.760487 0.243855
H30   H     H_    0.565012 0.171110 0.835282 0.223773
H31   H     H_    0.706447 0.261088 0.448037 0.143649
H32   H     H_    0.654517 0.228119 0.563375 0.174093
H33   H     H_    0.743306 0.136013 0.518697 0.189749
H34   H     H_    0.390247 0.618860 0.254717 0.176365
H35   H     H_    0.240083 0.695117 0.343814 0.143238
H36   H     H_    0.340789 0.725336 0.408338 0.172850
H37   H     H_    0.263048 0.844772 0.396520 0.191262
H38   H     H_    0.933018 0.095923 0.543833 0.257651
H39   H     H_    0.962673 0.110675 0.365601 0.221929
H40   H     H_    0.867008 0.211664 0.364952 0.235344
H41   H     H_    0.853498 0.055827 0.394507 0.222442
H42   H     H_    0.069471 0.899486 0.513943 0.253886
H43   H     H_    0.012341 0.892094 0.342065 0.208582
H44   H     H_    0.106967 0.796823 0.311248 0.236995
H45   H     H_    0.338247 0.714526 0.923970 0.182037
H46   H     H_    0.121792 0.952555 0.354954 0.222002
H47   H     H_    0.077496 0.096860 0.495318 0.250429
H48   H     H_    0.142158 0.053166 0.647570 0.233771
H49   H     H_    0.033699 0.118744 0.673776 0.206270
H50   H     H_    0.131232 0.211851 0.686405 0.236457
H51   H     H_    0.924130 0.903119 0.471156 0.258321
H52   H     H_    0.833738 0.935529 0.612699 0.228591
H53   H     H_    0.938147 0.870380 0.647880 0.218315
H54   H     H_    0.841243 0.775585 0.635140 0.246288
H55   H     H_    0.751506 0.076201 0.174870 0.248320
H56   H     H_    0.666642 0.292951 0.075811 0.190866
H57   H     H_    0.778727 0.941972 0.037760 0.233023
H58   H     H_    0.663390 0.944992 0.009273 0.232338
H59   H     H_    0.700199 0.870184 0.116339 0.226721
H60   H     H_    0.381475 0.952550 0.996077 0.258809
H61   H     H_    0.237445 0.002602 0.962141 0.220530
H62   H     H_    0.259396 0.886855 0.866988 0.235024
H63   H     H_    0.268908 0.048030 0.843436 0.232946
H64   H     H_    0.550966 0.108813 0.031365 0.160085
H65   H     H_    0.519185 0.851330 0.967077 0.135896
H66   H     H_    0.402935 0.146817 0.104930 0.159637
N1    N     N_R   0.499960 0.499900 0.743810 -0.238138
N2    N     N_2   0.900375 0.828072 0.503767 -0.431742
N3    N     N_2   0.700641 0.062401 0.126778 -0.447408
N4    N     N_2   0.371652 0.974210 0.925251 -0.452132
N5    N     N_R   0.500040 0.500100 0.256190 -0.233392
N6    N     N_2   0.772764 0.686686 0.408402 -0.422743
N7    N     N_2   0.240694 0.281746 0.521131 -0.381107
N8    N     N_2   0.322005 0.733723 0.114431 -0.447336
N9    N     N_2   0.678434 0.267128 0.886084 -0.430496
N10   N     N_2   0.911220 0.167134 0.504115 -0.394865
N11   N     N_2   0.084873 0.831734 0.462031 -0.368437
N12   N     N_2   0.094168 0.167968 0.542294 -0.391768
O1    O     O_R   0.500000 0.319630 0.582270 -0.609918
O2    O     O_3   0.629719 0.373085 0.250124 -0.566916
O3    O     O_3   0.774735 0.305274 0.579734 -0.559015
O4    O     O_3   0.230825 0.720811 0.498279 -0.557924
O5    O     O_R   0.500000 0.680370 0.417730 -0.617707
O6    O     O_R   0.499990 0.319660 0.417730 -0.548288
O7    O     O_R   0.500010 0.680340 0.582270 -0.540327
O8    O     O_R   0.370260 0.499960 0.582280 -0.554702
O9    O     O_R   0.629740 0.500040 0.417720 -0.538546
O10   O     O_R   0.370250 0.499990 0.417740 -0.610523
O11   O     O_R   0.629750 0.500010 0.582260 -0.581008
O12   O     O_3   0.372917 0.631775 0.749737 -0.550459

loop_
_geom_bond_atom_site_label_1
_geom_bond_atom_site_label_2
_ccdc_geom_bond_type
C40   C47   A    
C57   H37   S    
H27   N9    S    
C22   C29   A    
C58   H41   S    
Cu1   N1    S    
C12   O7    A    
C2    C65   A    
C51   H17   S    
C39   C41   A    
H47   N12   S    
C45   H66   S    
C42   C44   A    
Cu1   O8    S    
C18   H23   S    
C7    C45   A    
C35   C37   A    
C9    H1    S    
C55   H33   S    
C58   H39   S    
Cu1   O1    S    
H7    N6    S    
C20   C22   A    
C62   H59   S    
C19   H34   S    
C63   H62   S    
C33   N6    S    
C56   C65   A    
C33   C36   A    
C49   H10   S    
C1    O6    A    
C61   H53   S    
C53   N8    S    
C64   H3    S    
H60   N4    S    
C32   N9    S    
C22   C25   A    
C55   H32   S    
C16   O10   A    
C59   H43   S    
C54   H29   S    
C60   H50   S    
C17   C36   S    
C63   H63   S    
C30   C32   A    
H42   N11   S    
C17   O11   A    
C38   O3    S    
C4    H6    S    
C50   N7    S    
C16   C37   S    
Cu2   O9    S    
C40   C42   A    
C54   N9    S    
C53   H26   S    
C52   O2    S    
C23   C46   A    
C20   O12   S    
C57   O4    S    
C61   H52   S    
C41   C43   A    
C12   O5    A    
C8    C56   A    
C52   H21   S    
C60   N12   S    
C2    C14   S    
C51   H18   S    
C50   H15   S    
C55   O3    S    
C52   H19   S    
C57   H35   S    
C23   N12   S    
C23   C47   A    
C53   H25   S    
Cu1   Cu2   S    
C21   O2    S    
C52   H20   S    
C34   C44   A    
C4    C6    A    
C10   C14   A    
C5    C7    A    
C10   H12   S    
C6    C8    A    
C3    C5    A    
C25   C26   A    
C15   C66   S    
C47   N10   S    
C61   H54   S    
C64   C66   A    
C6    N4    S    
C2    C4    A    
Cu2   O6    S    
C39   O4    S    
C34   N2    S    
C29   C31   A    
C48   N11   S    
C53   H24   S    
C59   H44   S    
C49   H8    S    
C60   H49   S    
Cu1   O11   S    
H38   N10   S    
C19   C28   A    
C9    C11   A    
C7    H64   S    
H22   N8    S    
C35   N7    S    
C18   N1    A    
C59   N11   S    
C30   H56   S    
C56   H2    S    
C13   C15   A    
C16   O8    A    
C63   N4    S    
C60   H48   S    
C3    C66   A    
C1    C13   S    
C42   C43   A    
C21   C24   A    
C17   O9    A    
C50   H14   S    
C62   H58   S    
C57   H36   S    
C29   H45   S    
C45   C64   A    
C27   C32   A    
C33   C44   A    
C54   H28   S    
C28   C31   A    
C18   C27   A    
C24   C26   A    
Cu2   O10   S    
C10   C13   A    
C62   H57   S    
C11   C12   S    
C5    N3    S    
C25   C27   A    
C65   H4    S    
H55   N3    S    
C51   O12   S    
C26   C28   A    
H51   N2    S    
Cu1   O7    S    
C31   N8    S    
C36   C38   A    
C8    H65   S    
C37   C39   A    
Cu2   O5    S    
C38   C40   A    
H11   N7    S    
C59   H46   S    
C11   C14   A    
C41   C48   A    
C49   H9    S    
C58   H40   S    
C63   H61   S    
C20   N1    A    
C9    C15   A    
C62   N3    S    
C3    H5    S    
C43   C46   A    
C24   C30   A    
C1    O1    A    
C58   N10   S    
C34   C48   A    
C61   N2    S    
C19   N5    A    
C49   N6    S    
C55   H31   S    
C21   N5    A    
C54   H30   S    
Cu2   N5    S    
C35   C46   A    
C51   H16   S    
C50   H13   S    
