data_mof_unit_39941.cif
_audit_creation_date              2012-12-11T15:27:33-0500
_audit_creation_method            fapswitch 2.2
_symmetry_space_group_name_H-M    P1
_symmetry_Int_Tables_number       1
_space_group_crystal_system       triclinic
_cell_length_a                    23.067958
_cell_length_b                    7.30514
_cell_length_c                    15.074882
_cell_angle_alpha                 90.000124
_cell_angle_beta                  107.224381
_cell_angle_gamma                 90.000034
_cell_volume                      2426.41067381

loop_
_atom_site_label
_atom_site_type_symbol
_atom_type_description
_atom_site_fract_x
_atom_site_fract_y
_atom_site_fract_z
_atom_type_partial_charge
O1    O     O_R   0.711000 0.648610 0.341170 -0.545808
O2    O     O_R   0.289000 0.351390 0.658830 -0.528276
O3    O     O_R   0.789000 0.148610 0.158830 -0.545808
O4    O     O_R   0.211000 0.851390 0.841170 -0.528276
O5    O     O_R   0.829650 0.322030 0.336650 -0.526628
O6    O     O_R   0.170350 0.677970 0.663350 -0.525233
O7    O     O_R   0.670350 0.822030 0.163350 -0.526628
O8    O     O_R   0.329650 0.177970 0.836650 -0.525233
C1    C     C_R   0.854395 0.485806 0.356509 0.712301
C2    C     C_R   0.145537 0.514212 0.643732 0.708655
C3    C     C_R   0.645605 0.985806 0.143491 0.712301
C4    C     C_R   0.354463 0.014212 0.856268 0.708657
O9    O     O_R   0.713950 0.319280 0.352070 -0.531692
O10   O     O_R   0.286050 0.680720 0.647930 -0.530660
O11   O     O_R   0.786050 0.819280 0.147930 -0.531692
O12   O     O_R   0.213950 0.180720 0.852070 -0.530660
O13   O     O_R   0.672470 0.142870 0.174360 -0.540855
O14   O     O_R   0.327530 0.857130 0.825640 -0.543677
O15   O     O_R   0.827530 0.642870 0.325640 -0.540854
O16   O     O_R   0.172470 0.357130 0.674360 -0.543677
C5    C     C_R   0.700548 0.487052 0.375232 0.826826
C6    C     C_R   0.296890 0.513004 0.621712 0.817644
C7    C     C_R   0.799452 0.987052 0.124768 0.826827
C8    C     C_R   0.203110 0.013004 0.878288 0.817645
O17   O     O_3   0.736530 0.478650 0.191680 -0.385841
O18   O     O_3   0.263470 0.521350 0.808320 -0.382766
O19   O     O_3   0.763470 0.978650 0.308320 -0.385840
O20   O     O_3   0.236530 0.021350 0.691680 -0.382766
V1    V     V_3+5 0.752500 0.206170 0.260820 1.481175
V2    V     V_3+5 0.247500 0.793830 0.739180 1.504200
V3    V     V_3+5 0.747500 0.706170 0.239180 1.481175
V4    V     V_3+5 0.252500 0.293830 0.760820 1.504201
C9    C     C_R   0.830869 0.995553 0.053020 -0.249481
C10   C     C_R   0.178820 0.012685 0.958541 -0.257569
C11   C     C_R   0.669131 0.495554 0.446981 -0.249482
C12   C     C_R   0.321180 0.512685 0.541460 -0.257570
C13   C     C_R   0.829611 0.985843 0.891213 0.400032
C14   C     C_R   0.180844 0.145945 0.108333 0.424663
C15   C     C_R   0.670389 0.485844 0.608787 0.400031
C16   C     C_R   0.319156 0.645947 0.391668 0.424666
C17   C     C_R   0.798355 0.981330 0.958402 0.284352
C18   C     C_R   0.210436 0.104547 0.041253 0.291023
C19   C     C_R   0.701645 0.481331 0.541598 0.284353
C20   C     C_R   0.289564 0.604547 0.458748 0.291023
C21   C     C_R   0.894401 0.002554 0.080815 0.336814
C22   C     C_R   0.118984 0.957206 0.945187 0.347030
C23   C     C_R   0.605599 0.502556 0.419185 0.336813
C24   C     C_R   0.381016 0.457208 0.554813 0.347030
C25   C     C_R   0.926003 0.031394 0.013722 -0.113498
C26   C     C_R   0.085726 0.032047 0.002554 -0.121393
C27   C     C_R   0.573997 0.531397 0.486278 -0.113498
C28   C     C_R   0.414274 0.532050 0.497447 -0.121393
C29   C     C_R   0.893219 0.014713 0.917852 -0.228637
C30   C     C_R   0.117834 0.110760 0.089124 -0.227206
C31   C     C_R   0.606781 0.514714 0.582148 -0.228638
C32   C     C_R   0.382166 0.610764 0.410877 -0.227207
C33   C     C_R   0.989621 0.068684 0.039150 -0.135935
C34   C     C_R   0.021294 0.039827 0.973357 -0.138198
C35   C     C_R   0.510379 0.568687 0.460851 -0.135936
C36   C     C_R   0.478706 0.539830 0.526643 -0.138199
C37   C     C_R   0.987887 0.050773 0.878527 0.379096
C38   C     C_R   0.021615 0.152979 0.124146 0.379479
C39   C     C_R   0.512114 0.550775 0.621474 0.379096
C40   C     C_R   0.478385 0.652984 0.375855 0.379483
C41   C     C_R   0.924801 0.028313 0.850511 0.406460
C42   C     C_R   0.085393 0.162807 0.151633 0.421353
C43   C     C_R   0.575199 0.528314 0.649489 0.406460
C44   C     C_R   0.414607 0.662813 0.348369 0.421357
C45   C     C_1   0.416938 0.006875 0.918327 -0.182178
C46   C     C_1   0.583149 0.993121 0.081357 -0.159743
C47   C     C_1   0.083061 0.506875 0.581673 -0.182177
C48   C     C_1   0.916851 0.493121 0.418643 -0.159744
C49   C     C_1   0.469217 0.002328 0.969666 0.007500
C50   C     C_1   0.530876 0.997630 0.029987 0.018743
C51   C     C_1   0.030783 0.502328 0.530334 0.007504
C52   C     C_1   0.969124 0.497630 0.470013 0.018745
O21   O     O_3   0.893893 0.040413 0.756847 -0.525443
C53   C     C_3   0.902511 0.876805 0.712712 -0.153086
H1    H     H_    0.884700 0.757033 0.742099 0.115767
H2    H     H_    0.950869 0.853559 0.717035 0.159861
H3    H     H_    0.877182 0.888169 0.637986 0.145013
O22   O     O_3   0.115562 0.231506 0.238710 -0.534082
C54   C     C_3   0.112078 0.102246 0.306851 -0.211795
H4    H     H_    0.122033 0.960116 0.288591 0.117916
H5    H     H_    0.067032 0.107047 0.319354 0.187139
H6    H     H_    0.146559 0.137180 0.373269 0.149412
O23   O     O_3   0.606107 0.540411 0.743154 -0.525442
C55   C     C_3   0.597488 0.376802 0.787287 -0.153084
H7    H     H_    0.615299 0.257030 0.757899 0.115765
H8    H     H_    0.549130 0.353557 0.782964 0.159861
H9    H     H_    0.622818 0.388164 0.862013 0.145013
O24   O     O_3   0.384438 0.731516 0.261292 -0.534084
C56   C     C_3   0.387925 0.602266 0.193148 -0.211791
H10   H     H_    0.377987 0.460124 0.211413 0.117904
H11   H     H_    0.432966 0.607113 0.180629 0.187149
H12   H     H_    0.353434 0.637174 0.126737 0.149406
O25   O     O_3   0.094024 0.834156 0.874536 -0.620556
H13   H     H_    0.060239 0.769238 0.889162 0.280303
O26   O     O_3   0.923856 0.959596 0.172383 -0.622144
H14   H     H_    0.961674 0.892855 0.174616 0.285157
O27   O     O_3   0.405976 0.334158 0.625464 -0.620556
H15   H     H_    0.439761 0.269240 0.610837 0.280303
O28   O     O_3   0.576144 0.459599 0.327617 -0.622143
H16   H     H_    0.538326 0.392858 0.325384 0.285159
O29   O     O_3   0.268332 0.173094 0.053576 -0.539953
C57   C     C_3   0.310282 0.027035 0.070394 -0.235472
H17   H     H_    0.303698 0.929984 0.123268 0.160046
H18   H     H_    0.356772 0.084105 0.097213 0.171839
H19   H     H_    0.307776 0.951184 0.005756 0.106300
O30   O     O_3   0.737648 0.932551 0.931234 -0.540694
C58   C     C_3   0.701775 0.087318 0.934243 -0.254344
H20   H     H_    0.654796 0.058111 0.890867 0.154833
H21   H     H_    0.717727 0.213360 0.906938 0.123623
H22   H     H_    0.699546 0.112545 0.005479 0.131128
O31   O     O_3   0.231668 0.673093 0.446424 -0.539954
C59   C     C_3   0.189718 0.527033 0.429605 -0.235465
H23   H     H_    0.196305 0.429975 0.376736 0.160042
H24   H     H_    0.143229 0.584101 0.402780 0.171840
H25   H     H_    0.192222 0.451189 0.494244 0.106302
O32   O     O_3   0.762352 0.432551 0.568766 -0.540694
C60   C     C_3   0.798225 0.587317 0.565756 -0.254343
H26   H     H_    0.845204 0.558110 0.609133 0.154833
H27   H     H_    0.782273 0.713360 0.593061 0.123622
H28   H     H_    0.800454 0.612542 0.494520 0.131128
O33   O     O_3   0.798958 0.940594 0.800425 -0.564566
C61   C     C_3   0.767432 0.094425 0.753803 -0.074064
H29   H     H_    0.761619 0.078337 0.678482 0.175442
H30   H     H_    0.792245 0.225561 0.776040 0.160959
H31   H     H_    0.721353 0.099871 0.762169 0.151210
O34   O     O_3   0.210111 0.257095 0.182268 -0.543500
C62   C     C_3   0.247161 0.149632 0.254575 -0.138024
H32   H     H_    0.222350 0.029701 0.270338 0.180264
H33   H     H_    0.261545 0.234090 0.318448 0.121822
H34   H     H_    0.289105 0.106863 0.238928 0.173581
O35   O     O_3   0.701042 0.440593 0.699575 -0.564565
C63   C     C_3   0.732568 0.594425 0.746198 -0.074065
H35   H     H_    0.738383 0.578331 0.821519 0.175437
H36   H     H_    0.707754 0.725559 0.723964 0.160964
H37   H     H_    0.778647 0.599876 0.737828 0.151211
O36   O     O_3   0.289888 0.757094 0.317733 -0.543499
C64   C     C_3   0.252842 0.649626 0.245424 -0.138025
H38   H     H_    0.277655 0.529701 0.229662 0.180263
H39   H     H_    0.238456 0.734084 0.181552 0.121823
H40   H     H_    0.210898 0.606847 0.261070 0.173584
O37   O     O_3   0.015873 0.097871 0.812114 -0.528042
C65   C     C_3   0.020902 0.290236 0.810248 -0.160983
H41   H     H_    0.050227 0.344171 0.877678 0.116887
H42   H     H_    0.042545 0.327715 0.756141 0.157821
H43   H     H_    0.975482 0.356938 0.791701 0.126301
O38   O     O_3   0.991005 0.241694 0.177995 -0.524635
C66   C     C_3   0.977365 0.421396 0.143932 -0.170149
H44   H     H_    0.953154 0.492630 0.187485 0.157012
H45   H     H_    0.019417 0.500488 0.148530 0.125645
H46   H     H_    0.946857 0.421248 0.071247 0.114169
O39   O     O_3   0.484127 0.597873 0.687887 -0.528042
C67   C     C_3   0.479098 0.790238 0.689753 -0.160982
H47   H     H_    0.449771 0.844170 0.622324 0.116889
H48   H     H_    0.457457 0.827718 0.743862 0.157820
H49   H     H_    0.524518 0.856940 0.708296 0.126297
O40   O     O_3   0.508996 0.741698 0.322006 -0.524636
C68   C     C_3   0.522637 0.921399 0.356071 -0.170157
H50   H     H_    0.553147 0.921247 0.428755 0.114173
H51   H     H_    0.546848 0.992634 0.312517 0.157013
H52   H     H_    0.480586 0.000492 0.351477 0.125644

loop_
_geom_bond_atom_site_label_1
_geom_bond_atom_site_label_2
_ccdc_geom_bond_type
O17   V3    S    
O23   C55   S    
O1    C5    A    
O27   H15   S    
O19   V1    S    
C9    C21   A    
C49   C50   S    
O3    C7    A    
C58   H20   S    
C10   C18   A    
C1    C48   S    
C38   O38   S    
C4    C45   S    
C62   H34   S    
O15   V3    S    
O37   C65   S    
C3    C46   S    
C25   C33   A    
O35   C63   S    
C15   O35   S    
O21   C53   S    
O7    C3    A    
C35   C40   A    
C61   H29   S    
C36   C39   A    
C14   O34   S    
O9    V1    S    
C67   H47   S    
C14   C18   A    
C64   H39   S    
O4    C8    A    
C53   H2    S    
C57   H17   S    
O31   C59   S    
O25   H13   S    
O1    V3    S    
O13   V1    S    
C59   H23   S    
O2    V4    S    
C66   H46   S    
O3    V1    S    
C37   O37   S    
O30   C58   S    
C60   H28   S    
C28   C36   A    
C1    O15   A    
C15   C31   A    
C54   H4    S    
C20   O31   S    
C2    O16   A    
C7    C9    S    
C46   C50   T    
C66   H44   S    
C45   C49   T    
C10   C22   A    
C11   C19   A    
C16   C20   A    
O5    V1    S    
C48   C52   T    
C19   O32   S    
C13   C29   A    
C2    C47   S    
C34   C37   A    
O11   C7    A    
C11   C23   A    
C35   C36   A    
O12   C8    A    
O10   V2    S    
C63   H37   S    
C68   H51   S    
C68   H50   S    
C65   H42   S    
C39   C43   A    
O7    V3    S    
C38   C42   A    
O8    V4    S    
C33   C38   A    
C23   O28   S    
O36   C64   S    
C63   H36   S    
C21   O26   S    
C64   H40   S    
C53   H1    S    
C15   C19   A    
C61   H31   S    
C16   C32   A    
C32   C44   A    
C8    C10   S    
C26   C34   A    
C51   C52   S    
O5    C1    A    
C42   O22   S    
C65   H43   S    
C31   C43   A    
O26   H14   S    
C14   C30   A    
C55   H9    S    
C21   C25   A    
O8    C4    A    
C40   O40   S    
O9    C5    A    
C58   H21   S    
C56   H10   S    
C26   C30   A    
C60   H26   S    
C5    C11   S    
O6    V2    S    
C22   O25   S    
C55   H8    S    
C56   H12   S    
C17   O30   S    
O33   C61   S    
C12   C20   A    
C27   C35   A    
C62   H32   S    
C40   C44   A    
C13   O33   S    
O28   H16   S    
C68   H52   S    
C29   C41   A    
O32   C60   S    
C65   H41   S    
O16   V4    S    
C3    O13   A    
C61   H30   S    
C41   O21   S    
C54   H5    S    
C67   H49   S    
C63   H35   S    
C62   H33   S    
O6    C2    A    
C23   C27   A    
O11   V3    S    
C30   C42   A    
O12   V4    S    
C6    C12   S    
O29   C57   S    
C22   C26   A    
C43   O23   S    
C59   H25   S    
C9    C17   A    
O40   C68   S    
O10   C6    A    
O20   V2    S    
O34   C62   S    
C39   O39   S    
O2    C6    A    
C47   C51   T    
C53   H3    S    
C33   C34   A    
C57   H18   S    
C25   C29   A    
C24   O27   S    
C16   O36   S    
C67   H48   S    
O24   C56   S    
C44   O24   S    
C59   H24   S    
C12   C24   A    
C58   H22   S    
C27   C31   A    
C66   H45   S    
C13   C17   A    
C18   O29   S    
C60   H27   S    
O14   V2    S    
C37   C41   A    
C24   C28   A    
C54   H6    S    
C55   H7    S    
C56   H11   S    
O22   C54   S    
C4    O14   A    
O39   C67   S    
O38   C66   S    
C64   H38   S    
O18   V4    S    
O4    V2    S    
C28   C32   A    
C57   H19   S    
