data_mof_unit_41301.cif
_audit_creation_date              2012-12-10T17:23:12-0500
_audit_creation_method            fapswitch 2.2
_symmetry_space_group_name_H-M    P1
_symmetry_Int_Tables_number       1
_space_group_crystal_system       triclinic
_cell_length_a                    15.830736
_cell_length_b                    10.822352
_cell_length_c                    9.692344
_cell_angle_alpha                 93.499802
_cell_angle_beta                  91.831685
_cell_angle_gamma                 94.605803
_cell_volume                      1650.96478122

loop_
_atom_site_label
_atom_site_type_symbol
_atom_type_description
_atom_site_fract_x
_atom_site_fract_y
_atom_site_fract_z
_atom_type_partial_charge
C1    C     C_R   0.501803 0.263139 0.495925 0.795252
C2    C     C_3   0.083120 0.499978 0.495795 0.023891
C3    C     C_3   0.979692 0.612604 0.540234 0.372474
C4    C     C_3   0.916339 0.499783 0.502836 -0.025987
C5    C     C_3   0.029877 0.583381 0.409374 -0.189025
C6    C     C_3   0.966757 0.468597 0.374951 0.218630
C7    C     C_1   0.174739 0.500031 0.493746 0.024416
C8    C     C_1   0.824719 0.498574 0.505437 0.029673
C9    C     C_R   0.630666 0.157352 0.656092 -0.205462
C10   C     C_R   0.671613 0.115868 0.770300 -0.106789
C11   C     C_R   0.646563 0.999333 0.816155 0.293310
C12   C     C_R   0.340153 0.499642 0.498130 0.834719
C13   C     C_R   0.592090 0.915619 0.730658 -0.225413
C14   C     C_R   0.553593 0.954064 0.608407 0.089203
C15   C     C_R   0.565600 0.081197 0.583182 0.094287
C16   C     C_R   0.510986 0.130690 0.488041 -0.105406
C17   C     C_R   0.457014 0.052631 0.398847 -0.179642
C18   C     C_R   0.454107 0.925415 0.408376 -0.134693
C19   C     C_R   0.501071 0.874126 0.512604 -0.060192
C20   C     C_R   0.647431 0.605921 0.151712 0.480372
C21   C     C_R   0.721925 0.592092 0.080681 -0.235497
C22   C     C_R   0.719049 0.611643 0.940544 -0.212360
C23   C     C_R   0.500247 0.738203 0.504570 0.846821
C24   C     C_R   0.640408 0.610712 0.872363 -0.143510
C25   C     C_R   0.568014 0.557309 0.932832 0.134377
C26   C     C_R   0.569298 0.557357 0.081438 0.015816
C27   C     C_R   0.434435 0.442573 0.062528 0.482316
C28   C     C_R   0.435438 0.445018 0.916506 -0.079842
C29   C     C_R   0.659625 0.498158 0.501814 0.836824
C30   C     C_3   0.971524 0.419392 0.586412 0.223193
C31   C     C_3   0.020999 0.384023 0.457126 -0.162868
C32   C     C_1   0.250367 0.499873 0.494398 -0.097852
C33   C     C_1   0.749204 0.498065 0.505439 -0.125995
C34   C     C_3   0.034760 0.532512 0.627798 -0.294225
Cu1   Cu    Cu3+1 0.499990 0.499990 0.640660 0.956925
Cu2   Cu    Cu3+1 0.500010 0.500010 0.359340 1.065215
H1    H     H_    0.038363 0.290107 0.422153 0.162320
H2    H     H_    0.574682 0.826411 0.768032 0.150129
H3    H     H_    0.413226 0.866448 0.335432 0.165730
H4    H     H_    0.782974 0.607978 0.135486 0.214411
H5    H     H_    0.776648 0.637684 0.888437 0.218349
H6    H     H_    0.637766 0.652392 0.775345 0.197713
H7    H     H_    0.383077 0.400773 0.852699 0.207651
H8    H     H_    0.054649 0.651284 0.336181 0.174482
H9    H     H_    0.063392 0.558513 0.732649 0.165145
H10   H     H_    0.415801 0.089819 0.323540 0.203977
H11   H     H_    0.648324 0.250863 0.627918 0.143903
H12   H     H_    0.718676 0.178104 0.828435 0.144625
N1    N     N_R   0.500800 0.501210 0.147910 -0.263405
N2    N     N_R   0.500830 0.501290 0.852040 -0.224033
O1    O     O_R   0.499990 0.319640 0.618810 -0.573763
O2    O     O_R   0.500000 0.319660 0.381240 -0.548072
O3    O     O_R   0.379070 0.499980 0.618770 -0.596372
O4    O     O_R   0.379080 0.500000 0.381190 -0.495876
O5    O     O_R   0.500000 0.680340 0.618760 -0.619144
O6    O     O_R   0.500010 0.680360 0.381190 -0.506339
O7    O     O_R   0.620920 0.500000 0.618810 -0.607246
O8    O     O_R   0.620930 0.500020 0.381230 -0.580374
N3    N     N_2   0.672508 0.969620 0.951139 -0.395484
H13   H     H_    0.659399 0.877602 0.970236 0.304673
C35   C     C_3   0.646482 0.054146 0.061126 -0.527588
H14   H     H_    0.672285 0.029988 0.162474 0.267971
H15   H     H_    0.576119 0.048890 0.064030 0.230474
H16   H     H_    0.671123 0.151376 0.047316 0.186491
S1    S     S_3+6 0.341406 0.361134 0.120602 -0.004193
O9    O     O_2   0.358715 0.286546 0.241943 -0.301882
O10   O     O_2   0.278084 0.453086 0.157130 -0.312189
O11   O     O_3   0.297761 0.262015 0.992435 -0.572119
H17   H     H_    0.242331 0.230460 0.026673 0.377068
S2    S     S_3+6 0.657139 0.754030 0.243897 -0.008979
O12   O     O_2   0.581336 0.823451 0.211193 -0.324074
O13   O     O_2   0.667227 0.743255 0.397056 -0.316181
O14   O     O_3   0.744984 0.836084 0.194923 -0.541432
H18   H     H_    0.764748 0.891691 0.276514 0.391508
N4    N     N_2   0.937297 0.332638 0.682178 -0.421322
H19   H     H_    0.897880 0.372214 0.751832 0.248323
C36   C     C_3   0.998992 0.261098 0.746874 -0.591110
H20   H     H_    0.966195 0.193777 0.813322 0.240392
H21   H     H_    0.045487 0.323347 0.812222 0.212353
H22   H     H_    0.032830 0.208177 0.667158 0.256814
N5    N     N_2   0.927024 0.434741 0.239926 -0.423366
H23   H     H_    0.879714 0.363630 0.241436 0.254530
C37   C     C_3   0.984987 0.416810 0.129643 -0.634920
H24   H     H_    0.948466 0.397751 0.029863 0.220149
H25   H     H_    0.022693 0.336750 0.148259 0.230843
H26   H     H_    0.028310 0.501814 0.121717 0.246684
S3    S     S_3+6 0.951097 0.763345 0.594689 0.027574
O15   O     O_2   0.893993 0.808956 0.485395 -0.227482
O16   O     O_2   0.905160 0.757520 0.727716 -0.296006
O17   O     O_3   0.038759 0.861753 0.618227 -0.503853
H27   H     H_    0.074592 0.823869 0.687004 0.339566

loop_
_geom_bond_atom_site_label_1
_geom_bond_atom_site_label_2
_ccdc_geom_bond_type
S3    O15   D    
Cu1   O3    S    
C24   H6    S    
O14   H18   S    
Cu1   Cu2   S    
C4    C8    S    
N5    H23   S    
C23   O6    A    
C36   H20   S    
C27   S1    S    
Cu2   O8    S    
C30   C31   S    
C22   H5    S    
C15   C16   A    
C29   C33   S    
C18   C19   A    
C35   H15   S    
C18   H3    S    
C25   N2    A    
C28   N2    A    
C2    C7    S    
O11   H17   S    
S1    O10   D    
S2    O12   D    
C9    C10   A    
C12   O3    A    
Cu2   O2    S    
C2    C34   S    
C6    C31   S    
N3    H13   S    
C6    N5    S    
C13   C14   A    
C12   C32   S    
C20   S2    S    
S2    O14   S    
C11   N3    S    
N5    C37   S    
C36   H21   S    
N3    C35   S    
C30   C34   S    
C3    S3    S    
C17   H10   S    
C4    C6    S    
C26   N1    A    
C34   H9    S    
C16   C17   A    
C3    C34   S    
C25   C26   A    
Cu1   O5    S    
C31   H1    S    
C2    C31   S    
C35   H16   S    
C19   C23   S    
N4    H19   S    
Cu2   O6    S    
C1    O1    A    
C37   H24   S    
S1    O11   S    
C20   C21   A    
Cu1   N2    S    
C17   C18   A    
C1    C16   S    
C24   C25   A    
N4    C36   S    
C13   H2    S    
C37   H25   S    
C5    H8    S    
C29   O7    A    
C9    H11   S    
S3    O16   D    
Cu1   O1    S    
C22   C24   A    
C2    C5    S    
C3    C4    S    
C36   H22   S    
C7    C32   T    
C14   C19   A    
C3    C5    S    
C23   O5    A    
C28   H7    S    
Cu1   O7    S    
C9    C15   A    
C10   H12   S    
C30   N4    S    
C11   C13   A    
O17   H27   S    
C5    C6    S    
C21   H4    S    
C20   C26   A    
C8    C33   T    
C35   H14   S    
C1    O2    A    
C4    C30   S    
Cu2   O4    S    
C10   C11   A    
C37   H26   S    
C29   O8    A    
S1    O9    D    
S3    O17   S    
C27   C28   A    
C14   C15   A    
S2    O13   D    
C21   C22   A    
C12   O4    A    
Cu2   N1    S    
C27   N1    A    
