data_mof_unit_18048.cif
_audit_creation_date              2012-12-10T21:11:38-0500
_audit_creation_method            fapswitch 2.2
_symmetry_space_group_name_H-M    P1
_symmetry_Int_Tables_number       1
_space_group_crystal_system       triclinic
_cell_length_a                    17.27052
_cell_length_b                    16.902496
_cell_length_c                    10.57595
_cell_angle_alpha                 88.772894
_cell_angle_beta                  93.835405
_cell_angle_gamma                 89.301103
_cell_volume                      3079.36889424

loop_
_atom_site_label
_atom_site_type_symbol
_atom_type_description
_atom_site_fract_x
_atom_site_fract_y
_atom_site_fract_z
_atom_type_partial_charge
C1    C     C_R   0.351452 0.500403 0.501220 0.853972
C2    C     C_R   0.445559 0.167975 0.422904 0.123234
C3    C     C_R   0.450027 0.751104 0.417017 0.215277
C4    C     C_R   0.550147 0.249284 0.583143 0.213050
C5    C     C_R   0.550742 0.747536 0.582440 0.225328
C6    C     C_R   0.449527 0.252255 0.417599 0.237188
C7    C     C_R   0.500707 0.876308 0.499385 -0.081301
C8    C     C_R   0.500408 0.123760 0.499912 -0.082052
C9    C     C_1   0.500728 0.963802 0.499576 -0.018106
C10   C     C_1   0.500575 0.036257 0.499769 -0.017743
C11   C     C_R   0.509698 0.500745 0.259645 0.904420
C12   C     C_R   0.648713 0.499555 0.500274 0.855419
C13   C     C_R   0.488842 0.499290 0.739532 0.909448
C14   C     C_R   0.543385 0.647711 0.092717 0.177822
C15   C     C_R   0.450256 0.352796 0.905350 0.160981
C16   C     C_R   0.432670 0.640123 0.885683 0.177836
C17   C     C_R   0.562221 0.359756 0.110819 0.186526
C18   C     C_R   0.515071 0.718757 0.031064 0.154195
C19   C     C_R   0.478143 0.281596 0.967309 0.153425
C20   C     C_R   0.454953 0.715117 0.932711 0.180004
C21   C     C_R   0.539147 0.284895 0.064296 0.179205
C22   C     C_R   0.470867 0.570690 0.936827 -0.022136
C23   C     C_R   0.889785 0.505869 0.626349 0.056306
C24   C     C_R   0.523750 0.429359 0.060910 -0.021884
C25   C     C_R   0.512849 0.573939 0.053712 -0.022287
C26   C     C_R   0.481323 0.426316 0.944433 -0.019634
C27   C     C_R   0.470080 0.497882 0.873721 -0.172378
C28   C     C_R   0.525306 0.502222 0.124080 -0.171863
C29   C     C_R   0.851961 0.574733 0.581903 -0.163380
C30   C     C_R   0.156793 0.433339 0.611555 -0.166122
C31   C     C_R   0.154673 0.575457 0.592587 -0.166009
C32   C     C_R   0.854282 0.433371 0.610991 -0.176783
C33   C     C_R   0.776415 0.572625 0.525619 0.165291
C34   C     C_R   0.121153 0.505638 0.631123 0.054907
C35   C     C_R   0.228078 0.429717 0.556354 0.154985
C36   C     C_R   0.225826 0.574360 0.537017 0.168438
C37   C     C_R   0.779086 0.428290 0.554391 0.171024
C38   C     C_R   0.735505 0.499358 0.521358 -0.097623
C39   C     C_R   0.267276 0.501275 0.527715 -0.106117
C40   C     C_3   0.576376 0.209092 0.121118 -0.921053
C41   C     C_3   0.417842 0.790762 0.875275 -0.921157
C42   C     C_3   0.443542 0.203463 0.925023 -0.952994
C43   C     C_3   0.548928 0.797049 0.074210 -0.952354
C44   C     C_3   0.612465 0.650605 0.188231 -0.828487
C45   C     C_1   0.971649 0.507039 0.651362 -0.040859
C46   C     C_3   0.383062 0.349837 0.806081 -0.814739
C47   C     C_3   0.364607 0.633481 0.788908 -0.825678
C48   C     C_3   0.631267 0.365885 0.205761 -0.843034
C49   C     C_3   0.747084 0.647061 0.455791 -0.904826
C50   C     C_3   0.253797 0.349709 0.513398 -0.881621
C51   C     C_3   0.249128 0.649861 0.472707 -0.899980
C52   C     C_3   0.754678 0.345268 0.522670 -0.916203
C53   C     C_3   0.402316 0.900318 0.222133 -0.807646
C54   C     C_3   0.593592 0.101887 0.780689 -0.818266
C55   C     C_3   0.605351 0.892577 0.771349 -0.809143
C56   C     C_1   0.040839 0.506838 0.652900 -0.040925
C57   C     C_3   0.391553 0.108356 0.229521 -0.813923
C58   C     C_3   0.398905 0.712287 0.316176 -0.814341
C59   C     C_3   0.597889 0.288855 0.687707 -0.795610
C60   C     C_3   0.602206 0.705150 0.684206 -0.792030
C61   C     C_3   0.398095 0.294512 0.316078 -0.795177
C62   C     C_R   0.446566 0.835414 0.421102 0.126985
C63   C     C_R   0.554129 0.164897 0.578743 0.128376
C64   C     C_R   0.555039 0.831821 0.577068 0.124030
H1    H     H_    0.883744 0.629732 0.583641 0.141811
H2    H     H_    0.462000 0.826788 0.830691 0.249445
H3    H     H_    0.448793 0.196584 0.821837 0.254807
H4    H     H_    0.471252 0.150636 0.973011 0.254748
H5    H     H_    0.381192 0.202236 0.944151 0.245325
H6    H     H_    0.543890 0.803163 0.177590 0.256773
H7    H     H_    0.611198 0.799178 0.054826 0.245502
H8    H     H_    0.520560 0.849834 0.027142 0.253711
H9    H     H_    0.596703 0.682481 0.273728 0.262741
H10   H     H_    0.634887 0.590811 0.217368 0.216613
H11   H     H_    0.661233 0.681219 0.145709 0.222705
H12   H     H_    0.125940 0.379384 0.631231 0.141960
H13   H     H_    0.361337 0.409282 0.773400 0.224549
H14   H     H_    0.401699 0.317002 0.723513 0.249910
H15   H     H_    0.333085 0.319577 0.845537 0.226149
H16   H     H_    0.379296 0.662799 0.699231 0.260015
H17   H     H_    0.348614 0.571386 0.769473 0.217106
H18   H     H_    0.312308 0.662044 0.824425 0.226834
H19   H     H_    0.647644 0.427813 0.225849 0.216210
H20   H     H_    0.617326 0.335963 0.295380 0.258300
H21   H     H_    0.682999 0.337385 0.168271 0.227527
H22   H     H_    0.791471 0.694099 0.457421 0.227015
H23   H     H_    0.122287 0.630589 0.597719 0.141827
H24   H     H_    0.733961 0.633244 0.355264 0.242822
H25   H     H_    0.696031 0.673160 0.496794 0.272077
H26   H     H_    0.210136 0.303362 0.528784 0.224768
H27   H     H_    0.260490 0.353608 0.410133 0.239513
H28   H     H_    0.308187 0.329196 0.564917 0.265731
H29   H     H_    0.202526 0.695878 0.470037 0.228076
H30   H     H_    0.300709 0.675820 0.522342 0.264737
H31   H     H_    0.259607 0.637087 0.372876 0.237793
H32   H     H_    0.799911 0.316931 0.468117 0.233443
H33   H     H_    0.750745 0.310024 0.611315 0.240641
H34   H     H_    0.887625 0.379650 0.635315 0.148846
H35   H     H_    0.700919 0.340705 0.462669 0.269812
H36   H     H_    0.363266 0.925026 0.398065 0.232155
H37   H     H_    0.457305 0.933598 0.221238 0.244731
H38   H     H_    0.353889 0.937144 0.177755 0.236006
H39   H     H_    0.406630 0.847188 0.164389 0.260347
H40   H     H_    0.636001 0.074194 0.608242 0.234102
H41   H     H_    0.539290 0.067360 0.779261 0.245996
H42   H     H_    0.585967 0.156234 0.834544 0.263923
H43   H     H_    0.641686 0.066914 0.830237 0.237740
H44   H     H_    0.640677 0.916749 0.591588 0.230236
H45   H     H_    0.623814 0.217842 0.194611 0.244974
H46   H     H_    0.552460 0.930251 0.773621 0.243132
H47   H     H_    0.656227 0.925331 0.811517 0.238135
H48   H     H_    0.599444 0.839182 0.831603 0.260377
H49   H     H_    0.360257 0.082424 0.411162 0.230965
H50   H     H_    0.444085 0.070635 0.223364 0.243791
H51   H     H_    0.396173 0.162229 0.169924 0.260985
H52   H     H_    0.339786 0.076196 0.191385 0.237827
H53   H     H_    0.339751 0.738899 0.310260 0.233302
H54   H     H_    0.423557 0.720582 0.223512 0.229075
H55   H     H_    0.392532 0.648902 0.330079 0.282085
H56   H     H_    0.532643 0.173554 0.167479 0.249720
H57   H     H_    0.564585 0.290566 0.772694 0.231151
H58   H     H_    0.652901 0.256292 0.713433 0.225830
H59   H     H_    0.614178 0.349286 0.665568 0.282373
H60   H     H_    0.661694 0.729446 0.688974 0.224671
H61   H     H_    0.577604 0.712502 0.777111 0.226839
H62   H     H_    0.609590 0.641927 0.671968 0.277832
H63   H     H_    0.423299 0.288087 0.223585 0.225704
H64   H     H_    0.339169 0.269028 0.309658 0.224987
H65   H     H_    0.390042 0.357563 0.329112 0.276616
H66   H     H_    0.601649 0.174189 0.046346 0.239935
H67   H     H_    0.371363 0.781757 0.800225 0.244356
H68   H     H_    0.391426 0.825173 0.949643 0.239154
N1    N     N_R   0.500000 0.707230 0.500000 -0.128946
N2    N     N_R   0.500000 0.292770 0.500000 -0.130575
N3    N     N_2   0.385921 0.878454 0.350310 -0.291773
N4    N     N_2   0.613047 0.121752 0.653239 -0.294173
N5    N     N_2   0.617994 0.870983 0.642886 -0.294551
N6    N     N_2   0.381783 0.128671 0.359483 -0.293493
O1    O     O_R   0.389110 0.566570 0.499990 -0.618615
O2    O     O_R   0.610890 0.433430 0.500010 -0.622750
O3    O     O_R   0.610890 0.566570 0.500010 -0.615218
O4    O     O_R   0.389110 0.433430 0.499990 -0.617705
O5    O     O_R   0.499990 0.566540 0.316770 -0.607035
O6    O     O_R   0.500010 0.433460 0.683230 -0.604994
O7    O     O_R   0.500010 0.566540 0.683230 -0.606295
O8    O     O_R   0.499990 0.433460 0.316770 -0.605434
Zn1   Zn    Zn3+2 0.500000 0.588860 0.500000 0.910645
Zn2   Zn    Zn3+2 0.500000 0.411140 0.500000 0.909805

loop_
_geom_bond_atom_site_label_1
_geom_bond_atom_site_label_2
_ccdc_geom_bond_type
C59   H57   S    
C34   C56   S    
C43   H8    S    
C23   C45   S    
C55   H48   S    
C14   C18   A    
C53   N3    S    
C17   C48   S    
C13   O7    A    
O6    Zn2   S    
O2    Zn2   S    
C20   C41   S    
C41   H67   S    
C57   H51   S    
C25   C28   A    
C5    N1    A    
C21   C40   S    
C4    C63   A    
O1    Zn1   S    
C26   C27   A    
C54   H43   S    
C23   C29   A    
C6    C61   S    
C4    N2    A    
C60   H61   S    
C19   C21   A    
C24   C26   A    
H44   N5    S    
C47   H18   S    
C33   C49   S    
C29   C33   A    
C52   H33   S    
C58   H54   S    
C12   O3    A    
C13   O6    A    
C60   H60   S    
C1    O4    A    
C15   C19   A    
C50   H26   S    
C45   C56   T    
C53   H37   S    
C22   C25   A    
C16   C22   A    
C12   O2    A    
N1    Zn1   S    
C9    C10   T    
H49   N6    S    
C1    O1    A    
H36   N3    S    
C61   H65   S    
C59   H58   S    
C47   H17   S    
C42   H4    S    
C49   H24   S    
C2    C6    A    
C47   H16   S    
C16   C47   S    
O7    Zn1   S    
C57   H52   S    
O8    Zn2   S    
C64   N5    S    
C59   H59   S    
C17   C24   A    
C31   H23   S    
C30   C34   A    
C2    N6    S    
O4    Zn2   S    
C46   H14   S    
C37   C52   S    
C54   H42   S    
C15   C26   A    
C51   H30   S    
C42   H5    S    
C17   C21   A    
C48   H20   S    
C5    C64   A    
C3    N1    A    
C62   N3    S    
C44   H11   S    
C35   C39   A    
C7    C62   A    
C37   C38   A    
C41   H68   S    
C30   H12   S    
C1    C39   S    
C53   H38   S    
C16   C20   A    
C54   N4    S    
C35   C50   S    
C31   C34   A    
C61   H63   S    
C32   C37   A    
C44   H10   S    
C41   H2    S    
C36   C51   S    
C51   H29   S    
C29   H1    S    
C30   C35   A    
C50   H28   S    
C40   H56   S    
O5    Zn1   S    
C43   H6    S    
C22   C27   A    
C55   H46   S    
C42   H3    S    
C14   C44   S    
C3    C62   A    
C7    C9    S    
C40   H66   S    
C43   H7    S    
H40   N4    S    
C54   H41   S    
C55   H47   S    
C48   H21   S    
C49   H22   S    
C36   C39   A    
C2    C8    A    
C24   C28   A    
C49   H25   S    
C46   H13   S    
C19   C42   S    
C11   O8    A    
C40   H45   S    
N2    Zn2   S    
C5    C60   S    
C52   H35   S    
C33   C38   A    
C55   N5    S    
C48   H19   S    
C23   C32   A    
C60   H62   S    
C6    N2    A    
C18   C43   S    
C63   N4    S    
C46   H15   S    
C57   H50   S    
C11   C28   S    
C53   H39   S    
C4    C59   S    
C58   H55   S    
C32   H34   S    
C57   N6    S    
C52   H32   S    
C61   H64   S    
C18   C20   A    
C58   H53   S    
C14   C25   A    
C12   C38   S    
C44   H9    S    
C7    C64   A    
O3    Zn1   S    
C8    C63   A    
C3    C58   S    
C50   H27   S    
C8    C10   S    
C31   C36   A    
C13   C27   S    
C15   C46   S    
C11   O5    A    
C51   H31   S    
