data_mof_unit_56689.cif
_audit_creation_date              2012-12-10T16:57:12-0500
_audit_creation_method            fapswitch 2.2
_symmetry_space_group_name_H-M    P1
_symmetry_Int_Tables_number       1
_space_group_crystal_system       triclinic
_cell_length_a                    15.895415
_cell_length_b                    10.928876
_cell_length_c                    9.727596
_cell_angle_alpha                 88.496418
_cell_angle_beta                  89.803639
_cell_angle_gamma                 90.089177
_cell_volume                      1689.27438313

loop_
_atom_site_label
_atom_site_type_symbol
_atom_type_description
_atom_site_fract_x
_atom_site_fract_y
_atom_site_fract_z
_atom_type_partial_charge
C1    C     C_R   0.496653 0.265688 0.502067 0.853067
C2    C     C_3   0.949897 0.408038 0.615272 -0.105447
C3    C     C_3   0.917003 0.504314 0.504422 0.052964
C4    C     C_3   0.953946 0.637200 0.530065 0.559296
C5    C     C_3   0.052414 0.628898 0.530262 -0.461593
C6    C     C_1   0.824610 0.502979 0.501142 0.000481
C7    C     C_1   0.175530 0.497329 0.500421 0.086289
C8    C     C_1   0.250955 0.498441 0.500618 -0.046578
C9    C     C_2   0.455969 0.937164 0.414070 0.438410
C10   C     C_2   0.508762 0.866345 0.491162 -0.142643
C11   C     C_2   0.469994 0.069195 0.399727 -0.142405
C12   C     C_R   0.340408 0.499458 0.500270 0.863606
C13   C     C_2   0.485285 0.134649 0.510602 -0.308678
C14   C     C_2   0.451314 0.429137 0.923744 0.221170
C15   C     C_2   0.462765 0.417454 0.077707 -0.040250
C16   C     C_R   0.499642 0.734442 0.498010 0.881812
C17   C     C_R   0.659629 0.500223 0.499762 0.809477
C18   C     C_3   0.048908 0.407227 0.615638 0.008667
C19   C     C_3   0.047310 0.461184 0.357687 0.243800
C20   C     C_3   0.949554 0.459256 0.363438 -0.450857
C21   C     C_1   0.749150 0.501452 0.499705 -0.118809
C22   C     C_3   0.083289 0.496870 0.501236 0.015530
Cu1   Cu    Cu3+1 0.500020 0.500020 0.638630 0.988137
Cu2   Cu    Cu3+1 0.499980 0.499980 0.361370 1.049142
H1    H     H_    0.929145 0.315578 0.582650 0.183524
H2    H     H_    0.462099 0.113222 0.299151 0.180217
H3    H     H_    0.484884 0.091460 0.612561 0.177761
H4    H     H_    0.553606 0.530198 0.889714 0.181632
H5    H     H_    0.438684 0.334975 0.128381 0.143343
H6    H     H_    0.069719 0.313607 0.589848 0.218240
H7    H     H_    0.066911 0.533413 0.281427 0.166587
H8    H     H_    0.925103 0.365280 0.347044 0.226377
H9    H     H_    0.923445 0.515124 0.276819 0.234537
H10   H     H_    0.078674 0.660118 0.629176 0.192546
H11   H     H_    0.080413 0.693008 0.451913 0.230089
N1    N     N_2   0.499090 0.498660 0.846910 -0.277748
N2    N     N_2   0.499070 0.498630 0.153040 -0.115712
O1    O     O_R   0.500010 0.321960 0.617040 -0.563379
O2    O     O_R   0.499990 0.321920 0.382900 -0.591719
O3    O     O_R   0.379450 0.500030 0.617120 -0.550670
O4    O     O_R   0.379420 0.499980 0.382980 -0.535227
O5    O     O_R   0.500010 0.678080 0.617100 -0.585138
O6    O     O_R   0.499990 0.678040 0.382960 -0.509891
O7    O     O_R   0.620580 0.500020 0.617020 -0.592204
O8    O     O_R   0.620550 0.499970 0.382880 -0.558284
N3    N     N_3   0.086568 0.432860 0.749960 -0.563587
H12   H     H_    0.058983 0.508967 0.794124 0.260895
H13   H     H_    0.077137 0.357545 0.816786 0.261495
N4    N     N_3   0.913747 0.425505 0.752703 -0.601734
H14   H     H_    0.848245 0.419545 0.747478 0.233700
H15   H     H_    0.931377 0.351235 0.816097 0.251198
S1    S     S_3+6 0.922441 0.749887 0.398987 -0.004872
O9    O     O_2   0.829157 0.744587 0.375135 -0.300249
O10   O     O_2   0.944622 0.875077 0.448362 -0.235100
O11   O     O_3   0.973034 0.728584 0.249347 -0.580315
H16   H     H_    0.952754 0.795075 0.186806 0.390541
S2    S     S_3+6 0.365515 0.879651 0.330992 0.008383
O12   O     O_2   0.391346 0.820554 0.199801 -0.281003
O13   O     O_2   0.321393 0.787231 0.422984 -0.328659
O14   O     O_3   0.299353 0.995754 0.293728 -0.508089
H17   H     H_    0.250359 0.957042 0.249520 0.388315
N5    N     N_3   0.581493 0.917763 0.555697 -0.607612
H18   H     H_    0.578772 0.895269 0.660752 0.237518
H19   H     H_    0.635051 0.876237 0.515272 0.249038
N6    N     N_3   0.387541 0.357270 0.860775 -0.494972
H20   H     H_    0.399675 0.265227 0.884899 0.206953
H21   H     H_    0.329920 0.379607 0.905663 0.229809
N7    N     N_3   0.503263 0.619697 0.103239 -0.392652
H22   H     H_    0.456503 0.641509 0.031238 0.243562
H23   H     H_    0.564398 0.639244 0.069533 0.204255
S3    S     S_3+6 0.086284 0.319297 0.289670 -0.011509
O15   O     O_2   0.057463 0.311447 0.143145 -0.282100
O16   O     O_2   0.180768 0.315783 0.292041 -0.279430
O17   O     O_3   0.047870 0.198054 0.379774 -0.539445
H24   H     H_    0.072774 0.125685 0.335989 0.402755
N8    N     N_3   0.924794 0.685832 0.661758 -0.532245
H25   H     H_    0.859536 0.677279 0.671378 0.235968
H26   H     H_    0.952715 0.641653 0.746044 0.229715

loop_
_geom_bond_atom_site_label_1
_geom_bond_atom_site_label_2
_ccdc_geom_bond_type
O11   H16   S    
C2    C18   S    
C19   S3    S    
C19   C20   S    
C3    C6    S    
C19   H7    S    
C7    C8    T    
C12   O4    A    
Cu1   O5    S    
C4    S1    S    
Cu2   O8    S    
N8    H26   S    
C14   N1    D    
S2    O13   D    
Cu1   O3    S    
N2    N7    S    
Cu2   O2    S    
N4    H14   S    
C15   N2    D    
N5    H19   S    
C5    C22   S    
N7    H22   S    
N4    H15   S    
Cu1   Cu2   S    
C18   H6    S    
C9    C10   D    
S1    O11   S    
Cu2   O4    S    
C10   N5    S    
C18   N3    S    
S1    O10   D    
C15   H5    S    
N3    H13   S    
O17   H24   S    
C19   C22   S    
N8    H25   S    
S3    O16   D    
S2    O14   S    
C11   H2    S    
N6    H21   S    
C6    C21   T    
C17   C21   S    
Cu1   O7    S    
O14   H17   S    
C12   O3    A    
N5    H18   S    
C2    N4    S    
C8    C12   S    
C5    H10   S    
Cu2   N2    S    
C3    C20   S    
C9    C11   S    
C16   O6    A    
C1    O1    A    
C20   H9    S    
N6    H20   S    
C1    C13   S    
C3    C4    S    
Cu1   O1    S    
C16   O5    A    
S1    O9    D    
C20   H8    S    
N3    H12   S    
C18   C22   S    
C17   O8    A    
C4    C5    S    
S3    O17   S    
C7    C22   S    
C2    C3    S    
C17   O7    A    
S3    O15   D    
C10   C16   S    
C11   C13   D    
S2    O12   D    
C5    H11   S    
C14   N6    S    
C2    H1    S    
C9    S2    S    
C4    N8    S    
C1    O2    A    
H4    N1    S    
N7    H23   S    
Cu1   N1    S    
Cu2   O6    S    
C14   C15   S    
C13   H3    S    
