data_mof_unit_29592.cif
_audit_creation_date              2012-12-10T17:59:17-0500
_audit_creation_method            fapswitch 2.2
_symmetry_space_group_name_H-M    P1
_symmetry_Int_Tables_number       1
_space_group_crystal_system       triclinic
_cell_length_a                    10.844092
_cell_length_b                    9.644758
_cell_length_c                    10.900669
_cell_angle_alpha                 90.296503
_cell_angle_beta                  94.226663
_cell_angle_gamma                 89.963176
_cell_volume                      1136.97020911

loop_
_atom_site_label
_atom_site_type_symbol
_atom_type_description
_atom_site_fract_x
_atom_site_fract_y
_atom_site_fract_z
_atom_type_partial_charge
C1    C     C_R   0.262440 0.500017 0.498873 0.791448
C2    C     C_3   0.633652 0.543906 0.937936 0.248611
C3    C     C_R   0.063568 0.374304 0.491007 -0.149812
C4    C     C_R   0.063613 0.625710 0.493840 -0.146070
C5    C     C_R   0.935799 0.374444 0.487278 -0.175530
C6    C     C_R   0.935859 0.625541 0.490065 -0.174207
C7    C     C_R   0.871179 0.499961 0.491023 -0.012566
C8    C     C_R   0.128293 0.500009 0.495349 -0.035000
C9    C     C_R   0.410891 0.073198 0.432455 0.442481
C10   C     C_R   0.410642 0.925919 0.432663 0.446433
C11   C     C_R   0.587943 0.927092 0.569709 0.191455
C12   C     C_R   0.588185 0.073601 0.569402 0.211403
C13   C     C_R   0.496792 0.499230 0.259863 0.876545
C14   C     C_R   0.737379 0.499961 0.496758 0.806925
C15   C     C_R   0.499679 0.500032 0.739470 0.885907
C16   C     C_3   0.403085 0.616490 0.062965 0.382105
C17   C     C_3   0.444765 0.349253 0.064680 0.413678
C18   C     C_3   0.394569 0.599344 0.919378 -0.125163
C19   C     C_3   0.458227 0.350456 0.922105 -0.141148
C20   C     C_3   0.636774 0.518508 0.084584 0.211898
C21   C     C_3   0.496066 0.497238 0.121177 -0.125511
C22   C     C_3   0.500341 0.499272 0.877163 -0.050374
Cu1   Cu    Cu3+1 0.500020 0.640660 0.500000 1.013555
Cu2   Cu    Cu3+1 0.500020 0.359340 0.500000 1.014251
H1    H     H_    0.305729 0.544729 0.893924 0.156936
H2    H     H_    0.363368 0.336652 0.876379 0.156879
H3    H     H_    0.111108 0.275693 0.490950 0.199865
H4    H     H_    0.111180 0.724329 0.496143 0.198887
H5    H     H_    0.888477 0.276213 0.480978 0.154047
H6    H     H_    0.888608 0.723839 0.486050 0.151225
N1    N     N_R   0.500030 0.852070 0.500030 -0.260010
N2    N     N_R   0.500030 0.147930 0.500030 -0.252161
O1    O     O_R   0.319660 0.618740 0.499990 -0.550134
O2    O     O_R   0.319660 0.381260 0.499990 -0.558447
O3    O     O_R   0.499990 0.618790 0.317690 -0.515593
O4    O     O_R   0.499990 0.381210 0.317690 -0.497208
O5    O     O_R   0.680370 0.618830 0.500010 -0.604552
O6    O     O_R   0.680370 0.381170 0.500010 -0.599587
O7    O     O_R   0.500030 0.618780 0.682310 -0.567955
O8    O     O_R   0.500030 0.381220 0.682310 -0.594184
Cl1   Cl    Cl    0.442007 0.793358 0.106946 -0.590553
Cl2   Cl    Cl    0.515201 0.193639 0.134971 -0.544449
N3    N     N_3   0.687004 0.861642 0.641524 -0.548332
H7    H     H_    0.660401 0.768366 0.677456 0.291299
H8    H     H_    0.759374 0.846302 0.585406 0.217547
N4    N     N_3   0.688509 0.139636 0.639468 -0.553394
H9    H     H_    0.662202 0.232221 0.677856 0.279146
H10   H     H_    0.759013 0.156115 0.581535 0.219618
N5    N     N_3   0.277601 0.597885 0.103798 -0.588692
H11   H     H_    0.278363 0.606961 0.199247 0.268951
H12   H     H_    0.218797 0.675269 0.066230 0.266883
N6    N     N_3   0.312161 0.334248 0.081818 -0.588194
H13   H     H_    0.296642 0.346371 0.174341 0.284641
H14   H     H_    0.281683 0.235084 0.054448 0.281731
N7    N     N_3   0.377272 0.730195 0.850644 -0.539468
H15   H     H_    0.450365 0.799362 0.864781 0.290420
H16   H     H_    0.297408 0.779980 0.876545 0.247163
N8    N     N_3   0.524598 0.230339 0.873906 -0.553169
H17   H     H_    0.604166 0.201485 0.925963 0.258418
H18   H     H_    0.466423 0.143604 0.871048 0.263261
N9    N     N_3   0.700893 0.632124 0.155866 -0.578989
H19   H     H_    0.654377 0.724691 0.163007 0.289256
H20   H     H_    0.786468 0.653012 0.121525 0.213188
N10   N     N_3   0.708897 0.393596 0.122981 -0.513588
H21   H     H_    0.802366 0.416773 0.144119 0.229156
H22   H     H_    0.709318 0.317451 0.056168 0.237574
N11   N     N_3   0.655434 0.690765 0.908316 -0.573871
H23   H     H_    0.620371 0.759903 0.969503 0.257912
H24   H     H_    0.750200 0.712273 0.911363 0.230106
N12   N     N_3   0.732659 0.467719 0.879765 -0.614362
H25   H     H_    0.817365 0.478305 0.931341 0.216632
H26   H     H_    0.714971 0.363882 0.861893 0.220633
Cl3   Cl    Cl    0.292837 0.156987 0.342824 -0.560983
Cl4   Cl    Cl    0.290680 0.840870 0.345158 -0.534813

loop_
_geom_bond_atom_site_label_1
_geom_bond_atom_site_label_2
_ccdc_geom_bond_type
C7    C14   S    
C20   N10   S    
Cu2   O6    S    
N3    H7    S    
Cu2   N2    S    
C2    C22   S    
C16   C21   S    
Cu1   O5    S    
C2    C20   S    
C14   O6    A    
C1    C8    S    
C10   Cl4   S    
C9    C10   A    
Cu1   O3    S    
Cu2   O4    S    
C4    C8    A    
Cu1   Cu2   S    
N10   H21   S    
C19   C22   S    
N7    H15   S    
C3    H3    S    
C11   N1    A    
N10   H22   S    
C18   C22   S    
N6    H13   S    
C14   O5    A    
C11   N3    S    
N3    H8    S    
C15   O7    A    
C6    C7    A    
C18   H1    S    
C9    Cl3   S    
C18   N7    S    
N9    H20   S    
Cu1   O7    S    
C10   N1    A    
C17   N6    S    
C4    C6    A    
C17   C19   S    
N6    H14   S    
C1    O2    A    
C13   O3    A    
C5    H5    S    
N7    H16   S    
C19   N8    S    
N9    H19   S    
Cu2   O2    S    
C15   O8    A    
C3    C8    A    
N4    H9    S    
C1    O1    A    
C13   C21   S    
N11   H23   S    
N4    H10   S    
C2    N11   S    
C16   N5    S    
N12   H25   S    
C20   C21   S    
C13   O4    A    
C16   C18   S    
N5    H11   S    
C4    H4    S    
N5    H12   S    
N11   H24   S    
C20   N9    S    
C5    C7    A    
C19   H2    S    
C17   Cl2   S    
Cu2   O8    S    
N12   H26   S    
C9    N2    A    
Cu1   O1    S    
N8    H17   S    
C2    N12   S    
N8    H18   S    
C16   Cl1   S    
C6    H6    S    
C15   C22   S    
C12   N2    A    
C11   C12   A    
Cu1   N1    S    
C3    C5    A    
C12   N4    S    
C17   C21   S    
