data_mof_unit_24612.cif
_audit_creation_date              2012-12-10T20:39:14-0500
_audit_creation_method            fapswitch 2.2
_symmetry_space_group_name_H-M    P1
_symmetry_Int_Tables_number       1
_space_group_crystal_system       triclinic
_cell_length_a                    19.246884
_cell_length_b                    10.709242
_cell_length_c                    9.832479
_cell_angle_alpha                 90.325973
_cell_angle_beta                  89.932722
_cell_angle_gamma                 90.631883
_cell_volume                      2026.50873735

loop_
_atom_site_label
_atom_site_type_symbol
_atom_type_description
_atom_site_fract_x
_atom_site_fract_y
_atom_site_fract_z
_atom_type_partial_charge
C1    C     C_R   0.499799 0.260379 0.499539 0.891365
C2    C     C_R   0.854526 0.493927 0.504007 0.055592
C3    C     C_R   0.537656 0.064247 0.594314 -0.006639
C4    C     C_R   0.365534 0.501582 0.500139 0.847289
C5    C     C_R   0.501579 0.129052 0.495885 -0.154803
C6    C     C_R   0.469045 0.066354 0.388142 -0.232331
C7    C     C_R   0.463945 0.937160 0.388514 0.153929
C8    C     C_R   0.495759 0.872150 0.497175 -0.183143
C9    C     C_R   0.535373 0.936739 0.593937 0.083819
C10   C     C_3   0.534758 0.930555 0.746852 -0.051329
C11   C     C_3   0.534995 0.074302 0.746321 -0.061726
C12   C     C_R   0.290104 0.507846 0.500358 -0.028781
C13   C     C_R   0.439920 0.477836 0.071391 0.224749
C14   C     C_R   0.558215 0.530991 0.072046 -0.153618
C15   C     C_R   0.558450 0.529431 0.928110 -0.160578
C16   C     C_R   0.496879 0.739802 0.499858 0.888471
C17   C     C_R   0.439783 0.478767 0.928508 0.215325
C18   C     C_3   0.395869 0.363405 0.921517 -0.511988
C19   C     C_3   0.396770 0.361443 0.075752 -0.520528
C20   C     C_R   0.634300 0.494856 0.499676 0.863593
C21   C     C_R   0.253933 0.517226 0.623734 -0.202165
C22   C     C_R   0.182011 0.522390 0.623832 -0.165594
C23   C     C_R   0.930049 0.502143 0.502954 0.299488
C24   C     C_R   0.145568 0.517779 0.500541 0.092600
C25   C     C_R   0.181844 0.510869 0.377102 -0.164500
C26   C     C_R   0.253728 0.506439 0.377023 -0.207344
C27   C     C_3   0.418485 0.876228 0.280092 -0.369987
C28   C     C_3   0.457723 0.862864 0.145603 -0.837346
C29   C     C_3   0.597704 0.862515 0.809891 -0.332673
C30   C     C_3   0.660233 0.844218 0.715188 -0.855213
C31   C     C_3   0.597423 0.147445 0.807043 -0.333259
C32   C     C_3   0.586501 0.175322 0.958134 -0.892611
C33   C     C_3   0.713067 0.338661 0.290851 -0.426441
C34   C     C_R   0.069952 0.515760 0.500657 0.284463
C35   C     C_3   0.680828 0.221510 0.353871 -0.816143
C36   C     C_R   0.817008 0.551050 0.608405 -0.162885
C37   C     C_R   0.745250 0.547124 0.606535 -0.254749
C38   C     C_R   0.709752 0.486953 0.500069 -0.052499
C39   C     C_R   0.747234 0.421437 0.398165 0.164386
C40   C     C_R   0.819711 0.428091 0.400696 -0.200186
H1    H     H_    0.281033 0.520364 0.720124 0.148583
H2    H     H_    0.842970 0.600928 0.690271 0.154655
H3    H     H_    0.849216 0.379638 0.323140 0.146665
H4    H     H_    0.505736 0.807866 0.159262 0.274623
H5    H     H_    0.424153 0.814173 0.069876 0.233488
H6    H     H_    0.472022 0.956342 0.105183 0.242387
H7    H     H_    0.397355 0.784383 0.312666 0.213071
H8    H     H_    0.371887 0.934510 0.262694 0.186459
H9    H     H_    0.484538 0.892684 0.786154 0.120440
H10   H     H_    0.646521 0.777394 0.632470 0.258446
H11   H     H_    0.677617 0.933218 0.668622 0.253467
H12   H     H_    0.605320 0.555314 0.126131 0.147512
H13   H     H_    0.704143 0.805637 0.774083 0.232688
H14   H     H_    0.614796 0.909774 0.904786 0.207020
H15   H     H_    0.579449 0.768610 0.841173 0.206721
H16   H     H_    0.484264 0.112497 0.780025 0.149022
H17   H     H_    0.540506 0.235559 0.972578 0.266590
H18   H     H_    0.578572 0.088039 0.016554 0.252329
H19   H     H_    0.632745 0.225531 0.999330 0.252918
H20   H     H_    0.647232 0.098709 0.792568 0.218072
H21   H     H_    0.602950 0.238327 0.754074 0.230902
H22   H     H_    0.425417 0.280934 0.118164 0.209894
H23   H     H_    0.606027 0.550778 0.874136 0.154391
H24   H     H_    0.717371 0.593242 0.687763 0.158370
H25   H     H_    0.642328 0.245953 0.433166 0.245784
H26   H     H_    0.654205 0.165265 0.273842 0.251251
H27   H     H_    0.721931 0.163862 0.400698 0.250316
H28   H     H_    0.673902 0.390278 0.231951 0.225086
H29   H     H_    0.751857 0.307507 0.214305 0.195918
H30   H     H_    0.442979 0.118206 0.309036 0.160417
H31   H     H_    0.343549 0.381730 0.878995 0.197896
H32   H     H_    0.423201 0.283542 0.874038 0.210376
H33   H     H_    0.344816 0.377218 0.121414 0.197398
H34   H     H_    0.155057 0.527745 0.720401 0.148422
H35   H     H_    0.154793 0.508504 0.280579 0.148272
H36   H     H_    0.280618 0.501553 0.280499 0.147988
N1    N     N_R   0.034697 0.481524 0.387022 -0.180056
N2    N     N_R   0.965891 0.474829 0.388146 -0.179627
N3    N     N_R   0.965246 0.537342 0.616387 -0.178983
N4    N     N_R   0.034112 0.543697 0.615365 -0.180366
N5    N     N_R   0.499530 0.499140 0.142800 -0.102245
N6    N     N_R   0.499530 0.499180 0.857150 -0.104614
O1    O     O_R   0.500010 0.316790 0.614690 -0.625746
O2    O     O_R   0.500000 0.316760 0.385350 -0.612437
O3    O     O_R   0.398140 0.500000 0.614710 -0.620858
O4    O     O_R   0.398130 0.499970 0.385370 -0.626880
O5    O     O_R   0.500000 0.683240 0.614650 -0.617965
O6    O     O_R   0.499990 0.683210 0.385310 -0.608802
O7    O     O_R   0.601870 0.500030 0.614630 -0.630938
O8    O     O_R   0.601860 0.500000 0.385290 -0.620574
Zn1   Zn    Zn3+2 0.500000 0.500020 0.653130 0.929412
Zn2   Zn    Zn3+2 0.500000 0.499980 0.346870 0.936834

loop_
_geom_bond_atom_site_label_1
_geom_bond_atom_site_label_2
_ccdc_geom_bond_type
C27   H8    S    
C30   H11   S    
O5    Zn1   S    
C31   H21   S    
C36   H2    S    
C32   H18   S    
O3    Zn1   S    
C7    C8    A    
N1    N2    A    
C1    O2    A    
C28   H6    S    
C29   C30   S    
C1    C5    S    
C36   C37   A    
C18   C19   S    
C34   N1    A    
C5    C6    A    
C4    O4    A    
C29   H14   S    
C35   H25   S    
C19   H22   S    
C27   H7    S    
C13   N5    A    
C7    C27   S    
C17   N6    A    
C34   N4    A    
N5    Zn2   S    
C40   H3    S    
C14   H12   S    
O6    Zn2   S    
C8    C9    A    
C16   O5    A    
C26   H36   S    
C4    C12   S    
C9    C10   S    
C33   H29   S    
C30   H10   S    
C11   C31   S    
C8    C16   S    
C21   C22   A    
C32   H17   S    
C15   N6    A    
C18   H32   S    
C30   H13   S    
C28   H5    S    
C13   C19   S    
C19   H33   S    
C24   C25   A    
C39   C40   A    
C4    O3    A    
C29   H15   S    
C35   H26   S    
C25   C26   A    
C20   O8    A    
C12   C21   A    
C28   H4    S    
C24   C34   S    
N6    Zn1   S    
C12   C26   A    
C25   H35   S    
C31   H20   S    
C37   C38   A    
C3    C9    A    
C20   C38   S    
O8    Zn2   S    
C31   C32   S    
C35   H27   S    
C17   C18   S    
C33   C39   S    
C21   H1    S    
C22   C24   A    
O7    Zn1   S    
C22   H34   S    
C2    C23   S    
C37   H24   S    
C2    C36   A    
C18   H31   S    
C6    H30   S    
C3    C5    A    
C6    C7    A    
C1    O1    A    
O1    Zn1   S    
C20   O7    A    
C14   N5    A    
C13   C17   A    
O4    Zn2   S    
C10   C29   S    
C38   C39   A    
C33   C35   S    
C23   N2    A    
C3    C11   S    
C10   C11   S    
N3    N4    A    
C2    C40   A    
C27   C28   S    
C16   O6    A    
C15   H23   S    
C14   C15   A    
O2    Zn2   S    
C32   H19   S    
C23   N3    A    
C10   H9    S    
C11   H16   S    
C33   H28   S    
