data_mof_unit_58017.cif
_audit_creation_date              2012-12-10T16:51:19-0500
_audit_creation_method            fapswitch 2.2
_symmetry_space_group_name_H-M    P1
_symmetry_Int_Tables_number       1
_space_group_crystal_system       triclinic
_cell_length_a                    27.805073
_cell_length_b                    8.686639
_cell_length_c                    7.425566
_cell_angle_alpha                 103.22369
_cell_angle_beta                  92.265781
_cell_angle_gamma                 91.956964
_cell_volume                      1742.87456469

loop_
_atom_site_label
_atom_site_type_symbol
_atom_type_description
_atom_site_fract_x
_atom_site_fract_y
_atom_site_fract_z
_atom_type_partial_charge
C1    C     C_R   0.498577 0.199679 0.453139 0.886314
C2    C     C_R   0.501423 0.800321 0.546861 0.886314
C3    C     C_R   0.102371 0.514516 0.505983 -0.089047
C4    C     C_R   0.897629 0.485486 0.494013 -0.089047
C5    C     C_R   0.127615 0.376014 0.446919 -0.063321
C6    C     C_R   0.872385 0.623988 0.553076 -0.063321
C7    C     C_R   0.102499 0.233646 0.371639 -0.081419
C8    C     C_R   0.897501 0.766356 0.628356 -0.081419
C9    C     C_R   0.128650 0.661349 0.567226 -0.097341
C10   C     C_R   0.871349 0.338653 0.432770 -0.097342
C11   C     C_R   0.354781 0.505350 0.519316 -0.151227
C12   C     C_R   0.645219 0.494651 0.480684 -0.151227
C13   C     C_R   0.974116 0.351643 0.448759 0.028039
C14   C     C_R   0.025884 0.648358 0.551235 0.028039
C15   C     C_R   0.974701 0.643129 0.560712 0.018394
C16   C     C_R   0.025299 0.356872 0.439282 0.018394
C17   C     C_R   0.949049 0.493842 0.498962 0.046020
C18   C     C_R   0.050951 0.506160 0.501033 0.046020
C19   C     C_R   0.946965 0.207940 0.421690 -0.134055
C20   C     C_R   0.053035 0.792061 0.578304 -0.134055
C21   C     C_R   0.897087 0.198725 0.397342 0.314236
C22   C     C_R   0.102913 0.801276 0.602653 0.314236
C23   C     C_R   0.407518 0.498735 0.505616 0.853244
C24   C     C_R   0.592482 0.501265 0.494384 0.853244
C25   C     C_R   0.052584 0.222087 0.362083 0.236286
C26   C     C_R   0.947416 0.777915 0.637911 0.236287
C27   C     C_2   0.497888 0.031662 0.426875 -0.331134
C28   C     C_2   0.502112 0.968338 0.573125 -0.331134
C29   C     C_R   0.177988 0.383109 0.455863 0.656650
C30   C     C_R   0.822012 0.616893 0.544134 0.656650
C31   C     C_R   0.179627 0.661438 0.580406 0.616660
C32   C     C_R   0.820373 0.338563 0.419592 0.616660
C33   C     C_R   0.278891 0.575158 0.393243 -0.092287
C34   C     C_R   0.721109 0.424843 0.606756 -0.092287
C35   C     C_R   0.328558 0.565285 0.386973 -0.193372
C36   C     C_R   0.671442 0.434716 0.613027 -0.193372
C37   C     C_R   0.330068 0.455061 0.660920 0.195801
C38   C     C_R   0.669932 0.544940 0.339080 0.195801
C39   C     C_R   0.279793 0.467561 0.667754 0.297860
C40   C     C_R   0.720206 0.532440 0.332246 0.297860
C41   C     C_R   0.254368 0.525897 0.532036 0.211567
C42   C     C_R   0.745632 0.474105 0.467963 0.211567
Cu1   Cu    Cu3+1 0.505380 0.517380 0.684380 1.015332
Cu2   Cu    Cu3+1 0.494620 0.482620 0.315620 1.015331
H1    H     H_    0.465598 0.370491 0.948105 0.260177
H2    H     H_    0.534401 0.629509 0.051895 0.260178
H3    H     H_    0.122005 0.129209 0.313780 0.232054
H4    H     H_    0.877996 0.870793 0.686215 0.232054
N1    N     N_R   0.202752 0.523561 0.525196 -0.463302
N2    N     N_R   0.797248 0.476441 0.474802 -0.463302
N3    N     N_2   0.486510 0.456430 0.038510 -0.202500
N4    N     N_2   0.513490 0.543570 0.961490 -0.202499
O1    O     O_R   0.503500 0.286120 0.619780 -0.589340
O2    O     O_R   0.496500 0.713880 0.380220 -0.589340
O3    O     O_R   0.494410 0.256780 0.308360 -0.581144
O4    O     O_R   0.505590 0.743220 0.691640 -0.581144
O5    O     O_R   0.434810 0.514700 0.655690 -0.559485
O6    O     O_R   0.565190 0.485300 0.344310 -0.559484
O7    O     O_R   0.425720 0.485350 0.344280 -0.563834
O8    O     O_R   0.574280 0.514650 0.655720 -0.563834
O9    O     O_2   0.202275 0.250446 0.395743 -0.455711
O10   O     O_2   0.797725 0.749556 0.604254 -0.455711
O11   O     O_2   0.793775 0.203610 0.352743 -0.433269
O12   O     O_2   0.206225 0.796391 0.647256 -0.433269
Br1   Br    Br    0.362739 0.357304 0.836833 -0.446131
Br2   Br    Br    0.637261 0.642697 0.163168 -0.446131
Br3   Br    Br    0.244884 0.404106 0.860111 -0.355666
Br4   Br    Br    0.755115 0.595895 0.139888 -0.355666
H5    H     H_    0.653447 0.395071 0.722182 0.206319
H6    H     H_    0.346553 0.604930 0.277818 0.206319
H7    H     H_    0.740831 0.380936 0.711931 0.197112
H8    H     H_    0.259169 0.619065 0.288068 0.197112
Br5   Br    Br    0.868433 0.987578 0.320061 -0.337286
Br6   Br    Br    0.131567 0.012424 0.679933 -0.337286
H9    H     H_    0.963541 0.099973 0.428896 0.212613
H10   H     H_    0.036459 0.900028 0.571097 0.212613
Br7   Br    Br    0.029450 0.020848 0.209201 -0.446592
Br8   Br    Br    0.970550 0.979154 0.790791 -0.446593
H11   H     H_    0.493904 0.959743 0.286062 0.182785
H12   H     H_    0.506096 0.040256 0.713938 0.182785

loop_
_geom_bond_atom_site_label_1
_geom_bond_atom_site_label_2
_ccdc_geom_bond_type
H2    N4    S    
C8    C26   A    
C14   C18   A    
C34   C42   A    
C39   C41   A    
C29   N1    A    
C23   O7    A    
C26   Br8   S    
C25   Br7   S    
C19   C21   A    
C27   H11   S    
Cu1   N4    S    
H1    N3    S    
Cu2   O7    S    
C21   Br5   S    
C20   H10   S    
C3    C18   A    
C23   O5    A    
C11   C23   S    
C11   C37   A    
C1    O1    A    
C33   H8    S    
Cu1   O1    S    
C38   Br2   S    
C35   H6    S    
Cu2   O6    S    
C37   Br1   S    
C12   C36   A    
C40   C42   A    
C30   N2    A    
C31   N1    A    
C41   N1    S    
C5    C29   A    
C10   C21   A    
C29   O9    S    
C13   C19   A    
N3    N4    D    
C14   C20   A    
C4    C6    A    
C2    O2    A    
C5    C7    A    
Cu1   O5    S    
C15   C26   A    
C6    C8    A    
C7    H3    S    
Cu1   Cu2   S    
C8    H4    S    
C3    C9    A    
C10   C32   A    
C24   O8    A    
C32   N2    A    
Cu1   O8    S    
C42   N2    S    
C4    C17   A    
Cu2   N3    S    
C24   O6    A    
C6    C30   A    
C20   C22   A    
C30   O10   S    
C22   Br6   S    
C4    C10   A    
C36   H5    S    
C16   C25   A    
C15   C17   A    
C39   Br3   S    
C31   O12   S    
C32   O11   S    
C3    C5    A    
C12   C24   S    
C7    C25   A    
C13   C17   A    
C33   C41   A    
C11   C35   A    
C1    O3    A    
C37   C39   A    
C2    O4    A    
C38   C40   A    
Cu2   O3    S    
C19   H9    S    
C33   C35   A    
C34   C36   A    
C12   C38   A    
C28   H12   S    
C9    C31   A    
Cu2   O2    S    
Cu1   O4    S    
C16   C18   A    
C9    C22   A    
C40   Br4   S    
C13   C16   A    
C27   C28   D    
C1    C27   S    
C14   C15   A    
C2    C28   S    
C34   H7    S    
