data_mof_unit_9544.cif
_audit_creation_date              2012-12-10T17:02:31-0500
_audit_creation_method            fapswitch 2.2
_symmetry_space_group_name_H-M    P1
_symmetry_Int_Tables_number       1
_space_group_crystal_system       triclinic
_cell_length_a                    10.827497
_cell_length_b                    11.212379
_cell_length_c                    9.765555
_cell_angle_alpha                 110.338005
_cell_angle_beta                  99.213427
_cell_angle_gamma                 90.964542
_cell_volume                      1093.93705377

loop_
_atom_site_label
_atom_site_type_symbol
_atom_type_description
_atom_site_fract_x
_atom_site_fract_y
_atom_site_fract_z
_atom_type_partial_charge
C1    C     C_R   0.490035 0.255616 0.442591 0.870568
C2    C     C_R   0.510315 0.744375 0.557419 0.835010
C3    C     C_2   0.492276 0.120562 0.413801 -0.415783
C4    C     C_2   0.508565 0.879406 0.586252 -0.404263
C5    C     C_2   0.494189 0.068883 0.520071 0.255381
C6    C     C_2   0.506397 0.931004 0.479893 0.257871
C7    C     C_2   0.512587 0.507520 0.081055 -0.087381
C8    C     C_2   0.487142 0.492682 0.918897 -0.083668
C9    C     C_R   0.264447 0.518768 0.503099 0.813314
C10   C     C_R   0.738885 0.504239 0.500740 0.797868
C11   C     C_R   0.167928 0.690584 0.764363 -0.197879
C12   C     C_R   0.850775 0.383589 0.233735 -0.205761
C13   C     C_R   0.121526 0.763359 0.889369 -0.223289
C14   C     C_R   0.887012 0.368345 0.098183 -0.175871
C15   C     C_R   0.992665 0.765004 0.887773 0.333392
C16   C     C_R   0.997707 0.433199 0.094597 0.307585
C17   C     C_R   0.910534 0.689838 0.758029 -0.154334
C18   C     C_R   0.077456 0.498605 0.229411 -0.201737
C19   C     C_R   0.955634 0.605855 0.632962 0.019105
C20   C     C_R   0.045642 0.504482 0.366794 0.048857
C21   C     C_R   0.086706 0.611071 0.635016 0.071647
C22   C     C_R   0.922251 0.467735 0.368792 0.063516
C23   C     C_R   0.874457 0.521177 0.503054 -0.193091
C24   C     C_R   0.131835 0.547367 0.502658 -0.201258
Cu1   Cu    Cu3+1 0.521920 0.521810 0.644910 0.913898
Cu2   Cu    Cu3+1 0.478080 0.478190 0.355090 0.922569
H1    H     H_    0.267361 0.705352 0.768473 0.175453
H2    H     H_    0.766237 0.329222 0.229906 0.174821
H3    H     H_    0.186626 0.824202 0.985620 0.127632
H4    H     H_    0.826194 0.308731 0.997564 0.144210
H5    H     H_    0.812558 0.705272 0.753815 0.165251
H6    H     H_    0.161106 0.550716 0.225798 0.152230
H7    H     H_    0.502113 0.937299 0.699444 0.169925
H8    H     H_    0.499220 0.062713 0.300739 0.169144
H9    H     H_    0.409411 0.427266 0.846375 0.165281
H10   H     H_    0.590023 0.573332 0.153656 0.168584
H11   H     H_    0.629380 0.613836 0.933887 0.190589
H12   H     H_    0.371294 0.384576 0.066112 0.190573
N1    N     N_2   0.445130 0.445420 0.137360 -0.296165
N2    N     N_2   0.554870 0.554580 0.862640 -0.294715
O1    O     O_R   0.511700 0.332340 0.577400 -0.564512
O2    O     O_R   0.488300 0.667660 0.422600 -0.572337
O3    O     O_R   0.474680 0.295500 0.332650 -0.574158
O4    O     O_R   0.525320 0.704500 0.667350 -0.594729
O5    O     O_R   0.338170 0.518410 0.622370 -0.587431
O6    O     O_R   0.661830 0.481590 0.377630 -0.584101
O7    O     O_R   0.301150 0.481570 0.377630 -0.582592
O8    O     O_R   0.698850 0.518430 0.622370 -0.586277
N3    N     N_2   0.031821 0.435476 0.959774 -0.431665
H13   H     H_    0.126429 0.450415 0.961383 0.242226
C25   C     C_3   0.959080 0.357054 0.817846 -0.684673
H14   H     H_    0.999531 0.372420 0.727159 0.232450
H15   H     H_    0.860906 0.384572 0.808550 0.239554
H16   H     H_    0.961236 0.254572 0.804146 0.219508
N4    N     N_2   0.947536 0.850326 0.013077 -0.434540
H17   H     H_    0.016245 0.900951 0.101923 0.246909
C26   C     C_3   0.839529 0.804950 0.056471 -0.713328
H18   H     H_    0.825776 0.872779 0.166014 0.225669
H19   H     H_    0.853585 0.709828 0.065674 0.234522
H20   H     H_    0.753551 0.800587 0.975613 0.230698
N5    N     N_2   0.520112 0.857656 0.331006 -0.435058
H21   H     H_    0.589637 0.795064 0.318618 0.258198
C27   C     C_3   0.404500 0.813475 0.223922 -0.672057
H22   H     H_    0.350695 0.738752 0.245349 0.249305
H23   H     H_    0.426785 0.773164 0.110408 0.221529
H24   H     H_    0.344072 0.893275 0.228507 0.210251
N6    N     N_2   0.479569 0.142017 0.668677 -0.432869
H25   H     H_    0.409859 0.204395 0.680404 0.259583
C28   C     C_3   0.594684 0.186844 0.776478 -0.678576
H26   H     H_    0.648267 0.261642 0.755061 0.249075
H27   H     H_    0.655590 0.107540 0.772894 0.217393
H28   H     H_    0.571731 0.227340 0.889644 0.222952

loop_
_geom_bond_atom_site_label_1
_geom_bond_atom_site_label_2
_ccdc_geom_bond_type
C10   O6    A    
C28   H28   S    
C19   C23   A    
N4    H17   S    
C27   H23   S    
C9    C24   S    
C9    O5    A    
C19   C21   A    
C25   H14   S    
Cu1   O5    S    
C10   C23   S    
C20   C22   A    
C7    H10   S    
C2    C4    S    
N5    H21   S    
C11   H1    S    
C5    N6    S    
C25   H16   S    
N4    C26   S    
C12   C14   A    
C27   H24   S    
C6    N5    S    
C7    C8    S    
C11   C21   A    
N6    C28   S    
C11   C13   A    
Cu1   O8    S    
C26   H18   S    
C5    C6    S    
Cu2   O7    S    
C2    O2    A    
Cu1   O4    S    
C1    O1    A    
C17   C19   A    
C14   H4    S    
Cu2   O3    S    
C9    O7    A    
H11   N2    S    
C1    C3    S    
C13   C15   A    
Cu1   N2    S    
C10   O8    A    
C28   H26   S    
C17   H5    S    
N3    H13   S    
C14   C16   A    
Cu2   N1    S    
C26   H19   S    
C4    C6    D    
C18   H6    S    
Cu2   O6    S    
C25   H15   S    
Cu1   O1    S    
N6    H25   S    
C12   C22   A    
H12   N1    S    
C16   N3    S    
Cu2   O2    S    
C18   C20   A    
C16   C18   A    
C12   H2    S    
C21   C24   A    
C13   H3    S    
C28   H27   S    
C7    N1    D    
C4    H7    S    
C26   H20   S    
C8    N2    D    
C3    H8    S    
C3    C5    D    
Cu1   Cu2   S    
C15   C17   A    
C1    O3    A    
N5    C27   S    
C22   C23   A    
C20   C24   A    
C2    O4    A    
C27   H22   S    
N3    C25   S    
C8    H9    S    
C15   N4    S    
