data_mof_unit_18578.cif
_audit_creation_date              2012-12-10T18:18:19-0500
_audit_creation_method            fapswitch 2.2
_symmetry_space_group_name_H-M    P1
_symmetry_Int_Tables_number       1
_space_group_crystal_system       triclinic
_cell_length_a                    14.148157
_cell_length_b                    14.978768
_cell_length_c                    15.505542
_cell_angle_alpha                 88.677165
_cell_angle_beta                  66.304483
_cell_angle_gamma                 91.893605
_cell_volume                      3004.92029878

loop_
_atom_site_label
_atom_site_type_symbol
_atom_type_description
_atom_site_fract_x
_atom_site_fract_y
_atom_site_fract_z
_atom_type_partial_charge
C1    C     C_R   0.500841 0.672361 0.501133 0.912952
C2    C     C_R   0.499058 0.327629 0.499051 0.916821
C3    C     C_R   0.379152 0.497961 0.109015 -0.256727
C4    C     C_R   0.620317 0.503499 0.891597 -0.258157
C5    C     C_R   0.302441 0.504456 0.074408 -0.014472
C6    C     C_R   0.696432 0.493813 0.926483 -0.015292
C7    C     C_R   0.460066 0.184963 0.585754 -0.114142
C8    C     C_R   0.540284 0.815283 0.415063 -0.113034
C9    C     C_R   0.496323 0.232301 0.498855 -0.134888
C10   C     C_R   0.503157 0.767656 0.501784 -0.134166
C11   C     C_R   0.532385 0.190340 0.412357 0.096543
C12   C     C_R   0.464675 0.809350 0.588451 0.099804
C13   C     C_R   0.526960 0.096523 0.413978 0.084599
C14   C     C_R   0.469586 0.903189 0.587123 0.083540
C15   C     C_R   0.497822 0.047036 0.500767 0.013680
C16   C     C_R   0.499287 0.952812 0.500391 0.012888
C17   C     C_R   0.467614 0.091499 0.587618 0.028518
C18   C     C_R   0.530389 0.908422 0.413493 0.030020
C19   C     C_R   0.548766 0.051320 0.330576 -0.261282
C20   C     C_R   0.446801 0.948223 0.670712 -0.260587
C21   C     C_R   0.549600 0.959175 0.329256 -0.006670
C22   C     C_R   0.446941 0.040406 0.672057 -0.007295
C23   C     C_R   0.434779 0.498733 0.676589 0.889863
C24   C     C_R   0.565062 0.500563 0.323464 0.891636
C25   C     C_R   0.172892 0.439443 0.558622 0.219420
C26   C     C_R   0.828514 0.557589 0.438232 0.219577
C27   C     C_R   0.228753 0.559802 0.443388 -0.094470
C28   C     C_R   0.769274 0.444402 0.561272 -0.094569
C29   C     C_R   0.129176 0.561532 0.443017 0.017604
C30   C     C_R   0.868460 0.443420 0.562587 0.016293
C31   C     C_R   0.049422 0.501613 0.502550 0.063267
C32   C     C_R   0.948632 0.502457 0.502152 0.060675
C33   C     C_R   0.070281 0.440659 0.562142 0.023609
C34   C     C_R   0.928437 0.561944 0.440962 0.030377
C35   C     C_R   0.107611 0.622789 0.384857 -0.193031
C36   C     C_R   0.888821 0.384630 0.623520 -0.189395
C37   C     C_R   0.009092 0.623582 0.384174 -0.175467
C38   C     C_R   0.987617 0.383053 0.623465 -0.176882
C39   C     C_R   0.393194 0.499300 0.779492 -0.103422
C40   C     C_R   0.605975 0.498432 0.220747 -0.097879
C41   C     C_R   0.258047 0.528087 0.932981 0.163914
C42   C     C_R   0.738055 0.462907 0.068109 0.163135
C43   C     C_R   0.292539 0.521837 0.834291 -0.193845
C44   C     C_R   0.703574 0.468673 0.166725 -0.203380
C45   C     C_R   0.461047 0.483756 0.821477 -0.233766
C46   C     C_R   0.539165 0.517736 0.178495 -0.234477
C47   C     C_R   0.435549 0.499505 0.915885 0.061069
C48   C     C_R   0.563519 0.500686 0.084519 0.061390
C49   C     C_R   0.329917 0.511716 0.975635 0.036355
C50   C     C_R   0.668107 0.484884 0.025138 0.037922
C51   C     C_R   0.513811 0.500020 0.951449 0.065842
C52   C     C_R   0.485387 0.501389 0.048959 0.064559
H1    H     H_    0.289797 0.606258 0.398170 0.146976
H2    H     H_    0.707354 0.399857 0.608556 0.146533
H3    H     H_    0.167193 0.670391 0.339470 0.142740
H4    H     H_    0.828167 0.339319 0.671423 0.142374
H5    H     H_    0.998024 0.673796 0.338562 0.151301
H6    H     H_    0.996805 0.335982 0.672899 0.154253
H7    H     H_    0.466750 0.546495 0.220583 0.160866
H8    H     H_    0.535013 0.458067 0.778766 0.160988
H9    H     H_    0.751017 0.449103 0.202857 0.170003
H10   H     H_    0.242269 0.534554 0.798718 0.169019
H11   H     H_    0.353406 0.486514 0.184308 0.155472
H12   H     H_    0.646842 0.516444 0.816470 0.153812
H13   H     H_    0.562992 0.086980 0.264807 0.167218
H14   H     H_    0.431433 0.912346 0.736617 0.166940
N1    N     N_R   0.249980 0.499930 0.499960 -0.120131
N2    N     N_R   0.750020 0.500070 0.500040 -0.121149
O1    O     O_R   0.419720 0.632140 0.499980 -0.619480
O2    O     O_R   0.580280 0.367860 0.500020 -0.618625
O3    O     O_R   0.580270 0.632160 0.499970 -0.642039
O4    O     O_R   0.419730 0.367840 0.500030 -0.625847
O5    O     O_R   0.373870 0.499980 0.632250 -0.646863
O6    O     O_R   0.626130 0.500020 0.367750 -0.628730
O7    O     O_R   0.534420 0.500000 0.632240 -0.617060
O8    O     O_R   0.465580 0.500000 0.367760 -0.616954
Zn1   Zn    Zn3+2 0.392800 0.499980 0.500010 0.924423
Zn2   Zn    Zn3+2 0.607200 0.500020 0.499990 0.927185
C53   C     C_1   0.197320 0.492473 0.143885 0.125172
N3    N     N_1   0.113666 0.482240 0.200356 -0.216194
C54   C     C_1   0.802201 0.504408 0.858053 0.124754
N4    N     N_1   0.886561 0.513500 0.802712 -0.217718
C55   C     C_3   0.196290 0.369634 0.618801 -0.377166
C56   C     C_3   0.204796 0.276872 0.577321 -0.835541
H15   H     H_    0.262354 0.278999 0.503102 0.276961
H16   H     H_    0.229465 0.229020 0.619109 0.252587
H17   H     H_    0.129814 0.251300 0.578658 0.245599
H18   H     H_    0.267255 0.386317 0.627290 0.269497
H19   H     H_    0.137325 0.367767 0.692386 0.169834
C57   C     C_3   0.811516 0.613795 0.363471 -0.372168
C58   C     C_3   0.868258 0.578121 0.264973 -0.863733
H20   H     H_    0.859295 0.504133 0.267549 0.261695
H21   H     H_    0.836008 0.606248 0.216175 0.259691
H22   H     H_    0.951790 0.597292 0.235709 0.260356
H23   H     H_    0.730596 0.615266 0.376030 0.275502
H24   H     H_    0.834440 0.685049 0.365327 0.173615
C59   C     C_3   0.148519 0.557125 0.990283 -0.401639
C60   C     C_3   0.092888 0.600590 0.934506 -0.888282
H25   H     H_    0.140864 0.657545 0.889073 0.263929
H26   H     H_    0.074224 0.550876 0.891007 0.258840
H27   H     H_    0.018875 0.626404 0.984405 0.260398
H28   H     H_    0.100099 0.498034 0.030328 0.225738
H29   H     H_    0.151908 0.607813 0.040292 0.215599
C61   C     C_3   0.844654 0.427833 0.011229 -0.397717
C62   C     C_3   0.896317 0.378889 0.067342 -0.893126
H30   H     H_    0.919083 0.426173 0.110451 0.259964
H31   H     H_    0.843928 0.324175 0.113077 0.262970
H32   H     H_    0.967760 0.349104 0.017691 0.261263
H33   H     H_    0.837562 0.379168 0.960893 0.215525
H34   H     H_    0.897456 0.484759 0.971492 0.224595
C63   C     C_1   0.411191 0.234476 0.671025 0.155464
N5    N     N_1   0.372052 0.274680 0.738140 -0.207215
C64   C     C_1   0.592726 0.766679 0.329746 0.156542
N6    N     N_1   0.634634 0.727238 0.262571 -0.208744
C65   C     C_3   0.577658 0.246397 0.319643 -0.423283
C66   C     C_3   0.494817 0.267998 0.283536 -0.842465
H35   H     H_    0.455269 0.206008 0.274396 0.257079
H36   H     H_    0.436276 0.310287 0.333627 0.275687
H37   H     H_    0.531145 0.305094 0.214399 0.256230
H38   H     H_    0.615271 0.309941 0.327648 0.203924
H39   H     H_    0.642036 0.212817 0.264955 0.201886
C67   C     C_3   0.417935 0.753040 0.680932 -0.425125
C68   C     C_3   0.499388 0.731271 0.718695 -0.837211
H40   H     H_    0.558645 0.689214 0.669049 0.278095
H41   H     H_    0.538244 0.793203 0.728898 0.257255
H42   H     H_    0.461949 0.693875 0.787568 0.254221
H43   H     H_    0.352926 0.786532 0.735016 0.201966
H44   H     H_    0.380865 0.689549 0.672041 0.207194
C69   C     C_1   0.563030 0.920812 0.240414 0.176326
N7    N     N_1   0.573485 0.891011 0.169073 -0.188716
C70   C     C_1   0.432211 0.078143 0.761498 0.176194
N8    N     N_1   0.420654 0.107342 0.833380 -0.187909

loop_
_geom_bond_atom_site_label_1
_geom_bond_atom_site_label_2
_ccdc_geom_bond_type
C61   H34   S    
C45   H8    S    
C65   H39   S    
C22   C70   S    
O2    Zn2   S    
C34   C37   A    
O1    Zn1   S    
C63   N5    T    
N1    Zn1   S    
C56   H17   S    
C54   N4    T    
C57   H23   S    
C47   C49   A    
C40   C46   A    
C62   H31   S    
C1    O3    A    
C20   H14   S    
C28   N2    A    
C56   H16   S    
C64   N6    T    
C61   H33   S    
C46   H7    S    
C68   H41   S    
C27   C29   A    
C15   C16   A    
C18   C21   A    
C66   H35   S    
C15   C17   A    
C67   H43   S    
C38   H6    S    
C56   H15   S    
C26   C34   A    
C55   C56   S    
C66   H36   S    
C7    C17   A    
C25   N1    A    
C31   C33   A    
C5    C53   S    
C11   C65   S    
C59   H28   S    
C39   C45   A    
C48   C50   A    
C55   H18   S    
C6    C54   S    
C41   C43   A    
C5    C49   A    
C42   C44   A    
C23   O5    A    
C2    O4    A    
C41   C49   A    
C61   C62   S    
C59   C60   S    
C45   C47   A    
N2    Zn2   S    
C55   H19   S    
C62   H32   S    
C46   C48   A    
C13   C19   A    
C4    C51   A    
C35   H3    S    
C51   C52   A    
C14   C20   A    
C68   H40   S    
O8    Zn1   S    
C4    C6    A    
C23   O7    A    
C58   H20   S    
C28   H2    S    
C24   O8    A    
C68   H42   S    
C39   C43   A    
C8    C18   A    
C32   C34   A    
O4    Zn1   S    
C36   H4    S    
C58   H21   S    
C31   C32   A    
C40   C44   A    
C6    C50   A    
C9    C11   A    
C21   C69   S    
C59   H29   S    
C10   C12   A    
C8    C64   S    
C42   C50   A    
C16   C18   A    
C12   C14   A    
C65   H38   S    
C60   H26   S    
C13   C15   A    
C41   C59   S    
C70   N8    T    
C69   N7    T    
C7    C9    A    
C4    H12   S    
C35   C37   A    
C1    C10   S    
C33   C38   A    
C20   C22   A    
C3    C5    A    
C42   C61   S    
C47   C51   A    
C3    C52   A    
C27   H1    S    
C57   H24   S    
C3    H11   S    
C44   H9    S    
C26   C57   S    
C60   H27   S    
C62   H30   S    
C29   C35   A    
C17   C22   A    
C66   H37   S    
C30   C36   A    
C26   N2    A    
C28   C30   A    
C29   C31   A    
C58   H22   S    
C30   C32   A    
C11   C13   A    
C24   O6    A    
C57   C58   S    
C23   C39   S    
C36   C38   A    
C24   C40   S    
C7    C63   S    
C19   H13   S    
C14   C16   A    
C67   H44   S    
O7    Zn2   S    
C1    O1    A    
C27   N1    A    
C53   N3    T    
C48   C52   A    
C12   C67   S    
C8    C10   A    
C60   H25   S    
O6    Zn2   S    
C25   C55   S    
O5    Zn1   S    
C67   C68   S    
C2    O2    A    
C2    C9    S    
O3    Zn2   S    
C37   H5    S    
C65   C66   S    
C43   H10   S    
C25   C33   A    
C19   C21   A    
