data_mof_unit_36588.cif
_audit_creation_date              2012-12-11T14:51:41-0500
_audit_creation_method            fapswitch 2.2
_symmetry_space_group_name_H-M    P1
_symmetry_Int_Tables_number       1
_space_group_crystal_system       triclinic
_cell_length_a                    6.944904
_cell_length_b                    16.688535
_cell_length_c                    16.915473
_cell_angle_alpha                 101.273652
_cell_angle_beta                  90.915188
_cell_angle_gamma                 89.847729
_cell_volume                      1922.43379898

loop_
_atom_site_label
_atom_site_type_symbol
_atom_type_description
_atom_site_fract_x
_atom_site_fract_y
_atom_site_fract_z
_atom_type_partial_charge
O1    O     O_R   0.506340 0.439070 0.579550 -0.535278
O2    O     O_R   0.170010 0.404890 0.412100 -0.541355
O3    O     O_R   0.005010 0.560930 0.420450 -0.538253
C1    C     C_R   0.339313 0.381251 0.383496 0.669990
O4    O     O_R   0.176280 0.429360 0.578400 -0.537766
O5    O     O_R   0.011320 0.585570 0.587940 -0.542510
C2    C     C_R   0.345726 0.412130 0.603592 0.690526
O6    O     O_R   0.500030 0.414430 0.412060 -0.541521
O7    O     O_3   0.340950 0.551220 0.502940 -0.367953
V1    V     V_3+5 0.064020 0.490500 0.499460 1.401822
O8    O     O_R   0.681910 0.595110 0.587900 -0.532567
C3    C     C_R   0.852138 0.618751 0.616290 0.701342
O9    O     O_R   0.675640 0.570640 0.421600 -0.544157
C4    C     C_R   0.841622 0.586424 0.394713 0.694995
V2    V     V_3+5 0.564670 0.509500 0.500540 1.412309
O10   O     O_3   0.837610 0.448780 0.497060 -0.367888
C5    C     C_R   0.929694 0.859991 0.166399 -0.069850
C6    C     C_R   0.835989 0.639685 0.333440 -0.069303
C7    C     C_R   0.644724 0.699081 0.236425 -0.203949
C8    C     C_R   0.664445 0.643985 0.288512 -0.167757
C9    C     C_R   0.989959 0.691160 0.323622 -0.244864
C10   C     C_R   0.970081 0.747589 0.271684 0.160539
C11   C     C_R   0.795694 0.751927 0.227980 0.160249
C12   C     C_R   0.775783 0.808425 0.176099 -0.243162
C13   C     C_R   0.101290 0.855598 0.211267 -0.166735
C14   C     C_R   0.121071 0.800415 0.263246 -0.204699
H1    H     H_    0.222625 0.894619 0.205557 0.126920
H2    H     H_    0.510390 0.700807 0.203309 0.122276
H3    H     H_    0.255431 0.798650 0.296335 0.121284
H4    H     H_    0.543117 0.604980 0.294276 0.127259
H5    H     H_    0.122264 0.689184 0.358083 0.122825
C15   C     C_3   0.978121 0.813494 0.727324 -0.122099
C16   C     C_3   0.061266 0.726520 0.724134 -0.166397
H6    H     H_    0.207333 0.706426 0.702911 0.139340
H7    H     H_    0.055809 0.865158 0.709655 0.107203
C17   C     C_3   0.868343 0.689423 0.686589 -0.087111
C18   C     C_3   0.785674 0.775681 0.689308 -0.202780
C19   C     C_3   0.707611 0.775869 0.774830 -0.136405
C20   C     C_3   0.794006 0.690391 0.771354 0.459809
C21   C     C_3   0.984402 0.726941 0.810123 -0.226420
C22   C     C_3   0.900107 0.812685 0.812016 -0.055442
H8    H     H_    0.704117 0.795754 0.639661 0.117746
H9    H     H_    0.561147 0.795118 0.796224 0.120354
H10   H     H_    0.065926 0.707250 0.859990 0.110391
C23   C     C_3   0.554311 0.279255 0.278636 -0.107264
C24   C     C_3   0.486281 0.190114 0.273813 -0.151972
H11   H     H_    0.573236 0.141123 0.292924 0.100011
H12   H     H_    0.697487 0.303492 0.301782 0.114203
C25   C     C_3   0.408674 0.188907 0.187873 -0.003344
C26   C     C_3   0.476054 0.277343 0.192116 -0.147439
C27   C     C_3   0.278910 0.309331 0.226917 -0.144254
C28   C     C_3   0.210864 0.220183 0.222105 -0.097464
C29   C     C_3   0.289057 0.222180 0.308772 -0.151829
C30   C     C_3   0.356730 0.310608 0.312783 -0.008791
H13   H     H_    0.555131 0.300957 0.145324 0.109284
H14   H     H_    0.192094 0.358254 0.207592 0.102527
H15   H     H_    0.067770 0.196009 0.198769 0.114411
H16   H     H_    0.210673 0.199683 0.356808 0.101014
C31   C     C_R   0.413373 0.137937 0.832778 -0.132288
C32   C     C_R   0.351948 0.361794 0.666767 -0.047506
C33   C     C_R   0.281718 0.348182 0.804126 -0.168686
C34   C     C_R   0.277512 0.393741 0.742964 -0.207326
C35   C     C_R   0.420640 0.280998 0.650863 -0.196721
C36   C     C_R   0.417731 0.233268 0.711319 0.106375
C37   C     C_R   0.355215 0.268146 0.789911 0.052431
C38   C     C_R   0.367980 0.222026 0.852343 0.359386
C39   C     C_R   0.469939 0.103773 0.754130 -0.256107
C40   C     C_R   0.475942 0.151225 0.694499 -0.177685
H17   H     H_    0.227020 0.375870 0.862673 0.139273
H18   H     H_    0.523316 0.123274 0.634713 0.125534
H19   H     H_    0.220988 0.455414 0.755894 0.112704
O11   O     O_R   0.266070 0.085680 0.087850 -0.536949
O12   O     O_R   0.590090 0.070660 0.921580 -0.549691
O13   O     O_R   0.754780 0.914400 0.912080 -0.541118
C41   C     C_R   0.420702 0.086854 0.895429 0.754350
O14   O     O_R   0.596110 0.095130 0.087880 -0.547840
O15   O     O_R   0.760850 0.939050 0.079570 -0.538210
C42   C     C_R   0.426719 0.118600 0.116723 0.679031
O16   O     O_R   0.260010 0.061030 0.920360 -0.528631
O17   O     O_3   0.425070 0.948840 0.997010 -0.371116
V3    V     V_3+5 0.702100 0.009490 0.000550 1.398288
O18   O     O_R   0.090200 0.929250 0.078500 -0.544347
C43   C     C_R   0.924140 0.913415 0.105266 0.696755
O19   O     O_R   0.084180 0.904770 0.912200 -0.541102
C44   C     C_R   0.914402 0.882253 0.882944 0.702638
V4    V     V_3+5 0.201420 0.990350 0.999580 1.421119
O20   O     O_3   0.928580 0.051150 0.002990 -0.365865
H20   H     H_    0.643484 0.810427 0.141642 0.124389
O21   O     O_3   0.686402 0.627609 0.794328 -0.580850
C45   C     C_3   0.808699 0.562085 0.802746 0.045988
H21   H     H_    0.886846 0.576454 0.861739 0.122375
H22   H     H_    0.915050 0.548264 0.753194 0.104218
C46   C     C_3   0.684251 0.486785 0.800075 -0.279074
H23   H     H_    0.585593 0.496940 0.852209 0.190977
H24   H     H_    0.598091 0.477769 0.743522 0.212311
C47   C     C_3   0.804149 0.410477 0.800708 -0.825649
H25   H     H_    0.885618 0.394505 0.743950 0.246493
H26   H     H_    0.709013 0.358272 0.804563 0.239041
H27   H     H_    0.904073 0.420747 0.853448 0.220470
O22   O     O_3   0.337897 0.257623 0.932490 -0.583564
C48   C     C_3   0.494146 0.310062 0.963332 0.002677
H28   H     H_    0.449683 0.346359 0.022390 0.146118
H29   H     H_    0.526222 0.355278 0.925148 0.128256
C49   C     C_3   0.678276 0.262561 0.976360 -0.308225
H30   H     H_    0.646908 0.219144 0.016342 0.206007
H31   H     H_    0.729084 0.227420 0.917767 0.199095
C50   C     C_3   0.840520 0.319685 0.014186 -0.813736
H32   H     H_    0.881377 0.360916 0.973118 0.233929
H33   H     H_    0.968622 0.283066 0.024977 0.256364
H34   H     H_    0.795825 0.357137 0.072637 0.211665
H35   H     H_    0.512498 0.040164 0.739153 0.128032
H36   H     H_    0.472136 0.254931 0.591183 0.095951

loop_
_geom_bond_atom_site_label_1
_geom_bond_atom_site_label_2
_ccdc_geom_bond_type
C46   H23   S    
C29   H16   S    
C6    C9    A    
O12   C41   A    
C4    C6    S    
O2    C1    A    
C7    C8    A    
C1    O6    A    
C49   H31   S    
C8    H4    S    
C23   C24   S    
C9    H5    S    
C24   C25   S    
C48   H28   S    
C32   C35   A    
C36   C40   A    
C17   C18   S    
O14   C42   A    
C31   C38   A    
O5    C3    A    
C19   C20   S    
O15   C43   A    
O4    V1    S    
V2    O10   S    
C47   H27   S    
C35   H36   S    
C16   C17   S    
C25   C42   S    
C32   C34   A    
C27   H14   S    
C38   O22   S    
C18   H8    S    
O11   C42   A    
C31   C39   A    
O8    V2    S    
C47   H26   S    
O17   V4    S    
C11   C12   A    
O1    V2    S    
C3    C17   S    
O7    V1    S    
C46   H24   S    
O9    C4    A    
C50   H33   S    
O12   V3    S    
C49   H30   S    
C16   H6    S    
C5    C12   A    
C27   C28   S    
C16   C21   S    
C15   H7    S    
O19   C44   A    
C19   C22   S    
C20   C21   S    
O4    C2    A    
V4    O20   S    
O6    V2    S    
C13   C14   A    
O18   V4    S    
O18   C43   A    
C39   C40   A    
C5    C43   S    
C7    C11   A    
C18   C19   S    
C45   H22   S    
O15   V3    S    
C50   H32   S    
C25   C28   S    
C47   H25   S    
C26   C27   S    
C15   C18   S    
C7    H2    S    
C12   H20   S    
V3    O20   S    
O3    C4    A    
C39   H35   S    
C21   C22   S    
C23   C30   S    
C37   C38   A    
C46   C47   S    
O9    V2    S    
C50   H34   S    
C13   H1    S    
C15   C22   S    
O2    V1    S    
C31   C41   S    
C2    C32   S    
C28   C29   S    
C45   C46   S    
C23   H12   S    
C33   H17   S    
C24   H11   S    
C1    C30   S    
O1    C2    A    
C17   C20   S    
O19   V4    S    
O17   V3    S    
O14   V3    S    
O5    V1    S    
O11   V4    S    
O8    C3    A    
C29   C30   S    
C48   C49   S    
C22   C44   S    
C26   H13   S    
C27   C30   S    
C5    C13   A    
C36   C37   A    
O7    V2    S    
C19   H9    S    
O3    V1    S    
V1    O10   S    
C15   C16   S    
C45   H21   S    
C23   C26   S    
C24   C29   S    
O22   C48   S    
C34   H19   S    
C6    C8    A    
C49   C50   S    
O13   C44   A    
C33   C34   A    
C28   H15   S    
C35   C36   A    
C33   C37   A    
C21   H10   S    
C14   H3    S    
C48   H29   S    
C25   C26   S    
C10   C14   A    
C40   H18   S    
C10   C11   A    
O13   V3    S    
O21   C45   S    
C9    C10   A    
C41   O16   A    
C20   O21   S    
O16   V4    S    
