data_mof_unit_43964.cif
_audit_creation_date              2012-12-11T15:15:39-0500
_audit_creation_method            fapswitch 2.2
_symmetry_space_group_name_H-M    P1
_symmetry_Int_Tables_number       1
_space_group_crystal_system       triclinic
_cell_length_a                    20.722439
_cell_length_b                    22.686562
_cell_length_c                    6.939417
_cell_angle_alpha                 90.0
_cell_angle_beta                  86.720639
_cell_angle_gamma                 90.000011
_cell_volume                      3257.02278236

loop_
_atom_site_label
_atom_site_type_symbol
_atom_type_description
_atom_site_fract_x
_atom_site_fract_y
_atom_site_fract_z
_atom_type_partial_charge
O1    O     O_R   0.387100 0.552640 0.378490 -0.525044
O2    O     O_R   0.612900 0.052640 0.621510 -0.525045
O3    O     O_R   0.249610 0.559600 0.072250 -0.548873
O4    O     O_R   0.750390 0.059600 0.927750 -0.548874
O5    O     O_R   0.249120 0.447360 0.902040 -0.546720
O6    O     O_R   0.750880 0.947360 0.097960 -0.546721
C1    C     C_R   0.226963 0.573282 0.244674 0.676711
C2    C     C_R   0.773037 0.073282 0.755326 0.676711
O7    O     O_R   0.386610 0.559560 0.048860 -0.534133
O8    O     O_R   0.613390 0.059560 0.951140 -0.534133
O9    O     O_R   0.387100 0.447320 0.878470 -0.532450
O10   O     O_R   0.612900 0.947320 0.121530 -0.532449
C3    C     C_R   0.407701 0.574977 0.214103 0.733596
C4    C     C_R   0.592299 0.074977 0.785897 0.733597
O11   O     O_R   0.249120 0.552680 0.402050 -0.547197
O12   O     O_R   0.750880 0.052680 0.597950 -0.547197
O13   O     O_3   0.318110 0.463180 0.223790 -0.372489
O14   O     O_3   0.681890 0.963180 0.776210 -0.372489
V1    V     V_3+5 0.318110 0.506830 0.948930 1.444329
V2    V     V_3+5 0.681890 0.006830 0.051070 1.444329
O15   O     O_R   0.386610 0.440400 0.548840 -0.531455
O16   O     O_R   0.613390 0.940400 0.451160 -0.531455
C5    C     C_R   0.407981 0.425234 0.713825 0.746694
C6    C     C_R   0.592019 0.925234 0.286175 0.746694
O17   O     O_R   0.249610 0.440440 0.572240 -0.549056
O18   O     O_R   0.750390 0.940440 0.427760 -0.549056
C7    C     C_R   0.226934 0.426783 0.744657 0.681014
C8    C     C_R   0.773065 0.926783 0.255343 0.681014
V3    V     V_3+5 0.318110 0.493170 0.448930 1.446588
V4    V     V_3+5 0.681890 0.993170 0.551070 1.446587
O19   O     O_3   0.318110 0.536820 0.723940 -0.368684
O20   O     O_3   0.681890 0.036820 0.276060 -0.368684
C9    C     C_R   0.172228 0.385096 0.762294 -0.047311
C10   C     C_R   0.827773 0.885096 0.237707 -0.047312
C11   C     C_R   0.142336 0.365846 0.596832 -0.170616
C12   C     C_R   0.857657 0.865839 0.403172 -0.170615
C13   C     C_R   0.089445 0.327889 0.613061 -0.113123
C14   C     C_R   0.910548 0.827882 0.386944 -0.113122
C15   C     C_R   0.065745 0.307828 0.795402 0.169389
C16   C     C_R   0.934257 0.807830 0.204600 0.169390
C17   C     C_R   0.095258 0.327342 0.960676 -0.134479
C18   C     C_R   0.904750 0.827351 0.039323 -0.134480
C19   C     C_R   0.148116 0.365452 0.944555 -0.163705
C20   C     C_R   0.851891 0.865460 0.055443 -0.163704
C21   C     C_R   0.910788 0.171889 0.886675 -0.115193
C22   C     C_R   0.089219 0.671895 0.113319 -0.115193
C23   C     C_R   0.857846 0.133992 0.903004 -0.173126
C24   C     C_R   0.142161 0.633999 0.096992 -0.173126
C25   C     C_R   0.851667 0.134783 0.555410 -0.167210
C26   C     C_R   0.148325 0.634774 0.444592 -0.167207
C27   C     C_R   0.904584 0.172822 0.539189 -0.139362
C28   C     C_R   0.095407 0.672813 0.460811 -0.139363
C29   C     C_R   0.934319 0.192107 0.704359 0.168019
C30   C     C_R   0.065680 0.692105 0.295638 0.168019
C31   C     C_2   0.009239 0.268147 0.819702 -0.189681
C32   C     C_2   0.990764 0.768150 0.180303 -0.189684
C33   C     C_2   0.990858 0.231740 0.680003 -0.187226
C34   C     C_2   0.009139 0.731737 0.319992 -0.187227
C35   C     C_R   0.827739 0.114964 0.737651 -0.046656
C36   C     C_R   0.172261 0.614964 0.262348 -0.046657
H1    H     H_    0.159100 0.380802 0.454466 0.122296
H2    H     H_    0.840888 0.880788 0.545540 0.122297
H3    H     H_    0.841225 0.118891 0.045333 0.122458
H4    H     H_    0.158788 0.618906 0.954660 0.122458
H5    H     H_    0.829736 0.120778 0.425079 0.123226
H6    H     H_    0.170249 0.620763 0.574925 0.123225
H7    H     H_    0.017426 0.231031 0.540745 0.126251
H8    H     H_    0.982564 0.731020 0.459241 0.126255
H9    H     H_    0.077495 0.312852 0.102733 0.099620
H10   H     H_    0.922519 0.812868 0.897264 0.099619
H11   H     H_    0.933822 0.183892 0.016925 0.099734
H12   H     H_    0.066190 0.683905 0.983065 0.099731
H13   H     H_    0.169863 0.379640 0.074975 0.123132
H14   H     H_    0.830150 0.879655 0.925021 0.123130
H15   H     H_    0.982642 0.268849 0.958923 0.123333
H16   H     H_    0.017368 0.768859 0.041091 0.123336
H17   H     H_    0.066593 0.315718 0.482673 0.098376
H18   H     H_    0.933395 0.815705 0.517336 0.098375
H19   H     H_    0.922213 0.187446 0.397151 0.099434
H20   H     H_    0.077772 0.687430 0.602851 0.099434
C37   C     C_R   0.575146 0.360201 0.632821 -0.160089
C38   C     C_R   0.424853 0.860201 0.367170 -0.160090
H21   H     H_    0.664499 0.276809 0.618481 0.130859
H22   H     H_    0.335500 0.776810 0.381501 0.130860
H23   H     H_    0.623583 0.375724 0.593437 0.151208
H24   H     H_    0.376417 0.875725 0.406548 0.151208
C39   C     C_R   0.462294 0.382586 0.709222 -0.098192
C40   C     C_R   0.537706 0.882586 0.290778 -0.098191
C41   C     C_R   0.476082 0.095810 0.836071 -0.176260
C42   C     C_R   0.523918 0.595810 0.163932 -0.176260
C43   C     C_R   0.421524 0.130406 0.814826 0.239419
C44   C     C_R   0.578476 0.630406 0.185181 0.239419
C45   C     C_R   0.427535 0.188974 0.747594 0.096724
C46   C     C_R   0.572464 0.688974 0.252414 0.096722
C47   C     C_R   0.489950 0.216267 0.734900 0.045047
C48   C     C_R   0.510050 0.716267 0.265103 0.045047
C49   C     C_R   0.545362 0.178225 0.739190 0.031635
C50   C     C_R   0.454637 0.678226 0.260808 0.031635
C51   C     C_R   0.500192 0.279024 0.713538 0.101366
C52   C     C_R   0.499808 0.779024 0.286462 0.101366
C53   C     C_R   0.563686 0.299911 0.665216 0.094952
C54   C     C_R   0.436313 0.799911 0.334778 0.094952
C55   C     C_R   0.615934 0.260867 0.653722 -0.177003
C56   C     C_R   0.384066 0.760868 0.346266 -0.177003
C57   C     C_R   0.607283 0.201452 0.695553 -0.163231
C58   C     C_R   0.392716 0.701452 0.304438 -0.163231
C59   C     C_R   0.450918 0.322310 0.748185 -0.262886
C60   C     C_R   0.549082 0.822309 0.251818 -0.262886
C61   C     C_R   0.524930 0.401129 0.650473 0.148402
C62   C     C_R   0.475070 0.901129 0.349521 0.148400
C63   C     C_R   0.537694 0.117490 0.786474 -0.128323
C64   C     C_R   0.462306 0.617490 0.213526 -0.128323
H25   H     H_    0.403574 0.310497 0.808113 0.133369
H26   H     H_    0.596426 0.810496 0.191896 0.133369
H27   H     H_    0.470047 0.050250 0.880607 0.168792
H28   H     H_    0.529953 0.550251 0.119397 0.168793
H29   H     H_    0.649815 0.173661 0.692750 0.103609
H30   H     H_    0.350185 0.673661 0.307237 0.103608
I1    I     I_    0.547284 0.491163 0.595700 -0.367822
I2    I     I_    0.452716 0.991164 0.404288 -0.367820
C65   C     C_3   0.369419 0.215570 0.657906 -0.739626
H31   H     H_    0.334180 0.232080 0.771849 0.214552
H32   H     H_    0.383141 0.250818 0.552763 0.204189
H33   H     H_    0.345143 0.181868 0.571351 0.245889
C66   C     C_3   0.630579 0.715569 0.342112 -0.739626
H34   H     H_    0.665820 0.732078 0.228175 0.214554
H35   H     H_    0.616856 0.750817 0.447253 0.204190
H36   H     H_    0.654853 0.681866 0.428671 0.245889
I3    I     I_    0.330420 0.089278 0.875514 -0.336991
I4    I     I_    0.669581 0.589278 0.124502 -0.336992

loop_
_geom_bond_atom_site_label_1
_geom_bond_atom_site_label_2
_ccdc_geom_bond_type
C19   H13   S    
V4    O20   S    
C41   H27   S    
C32   H16   S    
C21   H11   S    
O13   V3    S    
C42   C64   A    
O4    C2    A    
V1    O19   S    
C56   C58   A    
C15   C17   A    
C37   C53   A    
C7    C9    S    
O9    V1    S    
C25   H5    S    
O10   V2    S    
C38   C62   A    
C11   C13   A    
C45   C65   S    
C3    C64   S    
O3    C1    A    
C2    C35   S    
C23   H3    S    
C49   C63   A    
C47   C51   A    
C24   H4    S    
O12   V4    S    
C18   H10   S    
C60   H26   S    
O7    C3    A    
C59   H25   S    
C65   H33   S    
C9    C11   A    
O5    C7    A    
O7    V1    S    
O6    C8    A    
O8    V2    S    
C16   C32   S    
C48   C50   A    
C66   H36   S    
C26   C28   A    
O3    V1    S    
O14   V4    S    
C42   H28   S    
C41   C43   A    
C22   H12   S    
C40   C62   A    
C24   C36   A    
C31   H15   S    
C16   C18   A    
C8    C10   S    
C2    O12   A    
C5    C39   S    
C58   H30   S    
C43   I3    S    
C17   C19   A    
C57   H29   S    
C18   C20   A    
C33   H7    S    
C12   H2    S    
O1    V3    S    
C28   C30   A    
O11   V3    S    
C21   C23   A    
O17   V3    S    
C4    C63   S    
C13   C15   A    
C22   C24   A    
C52   C60   A    
C23   C35   A    
C50   C64   A    
C9    C19   A    
C20   H14   S    
C10   C20   A    
C11   H1    S    
O8    C4    A    
C62   I2    S    
C29   C33   S    
C1    O11   A    
C14   H18   S    
C25   C27   A    
C38   H24   S    
C13   H17   S    
C27   C29   A    
C44   I4    S    
C43   C45   A    
C6    C40   S    
C42   C44   A    
C22   C30   A    
C44   C46   A    
C38   C54   A    
C55   C57   A    
C46   C48   A    
C26   H6    S    
C65   H31   S    
H21   C55   S    
O5    V1    S    
C34   H8    S    
C51   C53   A    
C37   C61   A    
O18   V4    S    
C31   C33   D    
C66   H34   S    
H22   C56   S    
O16   C6    A    
O1    C3    A    
C12   C14   A    
C1    C36   S    
C51   C59   A    
C61   I1    S    
C17   H9    S    
C52   C54   A    
V2    O20   S    
C46   C66   S    
C41   C63   A    
O16   V4    S    
C25   C35   A    
C47   C49   A    
C39   C61   A    
C15   C31   S    
O6    V2    S    
O10   C6    A    
O18   C8    A    
C50   C58   A    
C54   C56   A    
O2    V4    S    
C26   C36   A    
O15   C5    A    
C49   C57   A    
V3    O19   S    
C14   C16   A    
C45   C47   A    
O15   V3    S    
C40   C60   A    
C48   C52   A    
O9    C5    A    
O13   V1    S    
C10   C12   A    
C32   C34   D    
O14   V2    S    
O2    C4    A    
C27   H19   S    
C65   H32   S    
C21   C29   A    
O4    V2    S    
C39   C59   A    
C53   C55   A    
C30   C34   S    
C66   H35   S    
C28   H20   S    
C37   H23   S    
O17   C7    A    
