data_mof_unit_52366.cif
_audit_creation_date              2012-12-11T16:33:23-0500
_audit_creation_method            fapswitch 2.2
_symmetry_space_group_name_H-M    P1
_symmetry_Int_Tables_number       1
_space_group_crystal_system       triclinic
_cell_length_a                    6.956398
_cell_length_b                    18.213843
_cell_length_c                    20.255502
_cell_angle_alpha                 68.611914
_cell_angle_beta                  89.6378
_cell_angle_gamma                 90.296257
_cell_volume                      2389.55725823

loop_
_atom_site_label
_atom_site_type_symbol
_atom_type_description
_atom_site_fract_x
_atom_site_fract_y
_atom_site_fract_z
_atom_type_partial_charge
O1    O     O_R   0.488960 0.443750 0.941980 -0.529046
O2    O     O_R   0.823890 0.406510 0.087590 -0.536930
O3    O     O_R   0.999680 0.556250 0.058020 -0.532459
C1    C     C_R   0.654545 0.384225 0.115599 0.715625
O4    O     O_R   0.818360 0.434410 0.944340 -0.532185
O5    O     O_R   0.994110 0.584350 0.913750 -0.534808
C2    C     C_R   0.650885 0.420858 0.923405 0.726171
O6    O     O_R   0.494530 0.415650 0.086250 -0.535754
O7    O     O_3   0.662590 0.549160 0.990130 -0.361061
V1    V     V_3+5 0.935320 0.490880 0.001830 1.559042
O8    O     O_R   0.324180 0.593490 0.912410 -0.530440
C3    C     C_R   0.156950 0.616053 0.884403 0.751956
O9    O     O_R   0.329720 0.565590 0.055660 -0.524053
C4    C     C_R   0.161078 0.579890 0.076117 0.765836
V2    V     V_3+5 0.435990 0.509120 0.998170 1.565179
O10   O     O_3   0.158850 0.450840 0.009870 -0.363689
C5    C     C_3   0.058125 0.714097 0.306173 -0.144324
C6    C     C_3   0.243797 0.693648 0.274133 0.263269
H1    H     H_    0.991551 0.677415 0.357704 0.199392
H2    H     H_    0.467347 0.794891 0.265314 0.209121
C7    C     C_1   0.153734 0.628781 0.119201 -0.041577
C8    C     C_1   0.115463 0.879751 0.374372 -0.118775
C9    C     C_3   0.959743 0.738359 0.232484 -0.196692
C10   C     C_3   0.146582 0.717524 0.201133 -0.042752
C11   C     C_3   0.037651 0.823249 0.214046 0.428250
C12   C     C_3   0.133745 0.799043 0.286663 -0.053249
C13   C     C_3   0.221849 0.802858 0.181763 0.126618
C14   C     C_3   0.319292 0.779029 0.255188 -0.276272
C15   C     C_1   0.150411 0.669351 0.155519 0.166293
C16   C     C_1   0.124565 0.843412 0.334862 0.124827
H3    H     H_    0.811139 0.722510 0.222659 0.194215
H4    H     H_    0.338709 0.533154 0.680215 0.202892
C17   C     C_R   0.089843 0.777575 0.873209 0.027361
C18   C     C_R   0.968675 0.838191 0.874528 0.210823
C19   C     C_R   0.897267 0.891380 0.810617 0.177481
C20   C     C_R   0.955561 0.885653 0.746656 -0.225324
C21   C     C_R   0.056086 0.818809 0.745776 0.024555
C22   C     C_R   0.101063 0.758731 0.811431 0.002164
C23   C     C_R   0.107110 0.810170 0.681361 -0.116978
C24   C     C_R   0.158164 0.733924 0.682900 0.022125
C25   C     C_R   0.182646 0.669338 0.749232 0.002385
C26   C     C_R   0.152593 0.682285 0.814136 -0.126828
C27   C     C_R   0.167241 0.717662 0.619680 0.088989
C28   C     C_R   0.258805 0.650422 0.618991 -0.089996
C29   C     C_R   0.292230 0.588991 0.682196 -0.034197
C30   C     C_R   0.233436 0.594298 0.746273 0.095444
H5    H     H_    0.909391 0.931269 0.698288 0.149580
H6    H     H_    0.272645 0.639671 0.569997 0.175626
H7    H     H_    0.804838 0.347459 0.431363 0.173006
C31   C     C_R   0.521661 0.101352 0.252305 -0.204923
C32   C     C_R   0.474738 0.091149 0.189495 -0.089932
C33   C     C_R   0.479430 0.154984 0.125376 0.419259
C34   C     C_R   0.534229 0.229524 0.124018 -0.229879
C35   C     C_R   0.581876 0.241914 0.187139 0.011711
C36   C     C_R   0.573403 0.176405 0.252685 0.062700
C37   C     C_R   0.640893 0.317661 0.185323 -0.099849
C38   C     C_R   0.685754 0.328124 0.250217 -0.049693
C39   C     C_R   0.657231 0.263380 0.315823 0.009233
C40   C     C_R   0.614103 0.186777 0.317137 -0.115731
C41   C     C_R   0.757510 0.400490 0.253968 0.051271
C42   C     C_R   0.836083 0.399555 0.318283 0.453901
C43   C     C_R   0.780007 0.340559 0.381221 -0.195490
C44   C     C_R   0.668060 0.278435 0.379273 0.072714
H8    H     H_    0.515126 0.049736 0.300591 0.133343
H9    H     H_    0.433787 0.033118 0.190926 0.210281
H10   H     H_    0.539035 0.277471 0.073155 0.140717
O11   O     O_R   0.770540 0.084530 0.414050 -0.538464
O12   O     O_R   0.445710 0.065660 0.555720 -0.524532
O13   O     O_R   0.270420 0.915650 0.586190 -0.534943
C45   C     C_R   0.613202 0.078799 0.577243 0.741277
O14   O     O_R   0.441140 0.093540 0.412470 -0.532477
O15   O     O_R   0.265820 0.943740 0.441930 -0.544360
C46   C     C_R   0.609695 0.117590 0.385711 0.714518
O16   O     O_R   0.775150 0.056440 0.558310 -0.537785
O17   O     O_3   0.602370 0.950960 0.510050 -0.365958
V3    V     V_3+5 0.329450 0.009140 0.498150 1.523175
O18   O     O_R   0.935790 0.934280 0.444060 -0.524478
C47   C     C_R   0.104810 0.923312 0.421403 0.739497
O19   O     O_R   0.940370 0.906390 0.587310 -0.535957
C48   C     C_R   0.107449 0.881065 0.613531 0.722797
V4    V     V_3+5 0.828810 0.990710 0.501460 1.517846
O20   O     O_3   0.105780 0.049100 0.489960 -0.361492
C49   C     C_3   0.727339 0.322231 0.711649 0.377041
C50   C     C_3   0.537671 0.296135 0.687578 -0.178100
H11   H     H_    0.456389 0.330470 0.639278 0.209180
H12   H     H_    0.316274 0.281938 0.781779 0.218843
C51   C     C_1   0.617110 0.126096 0.621476 -0.099870
C52   C     C_1   0.648207 0.377082 0.876268 -0.055000
C53   C     C_3   0.813154 0.239732 0.727144 0.060643
C54   C     C_3   0.622563 0.213180 0.704496 -0.009824
C55   C     C_3   0.736344 0.213217 0.804390 0.182237
C56   C     C_3   0.651147 0.296010 0.788319 -0.064031
C57   C     C_3   0.545684 0.185826 0.781426 -0.094044
C58   C     C_3   0.460990 0.269315 0.765238 -0.136571
C59   C     C_1   0.616546 0.165731 0.658475 0.130368
C60   C     C_1   0.651261 0.340882 0.836416 0.166979
H13   H     H_    0.467492 0.129895 0.810258 0.209518
I1    I     I_    0.429314 0.597547 0.326447 -0.121577
I2    I     I_    0.707224 0.983029 0.806601 -0.302767
I3    I     I_    0.943449 0.751787 0.544583 -0.344523
I4    I     I_    0.177580 0.480243 0.823300 -0.270707
S1    S     S_3+6 0.416596 0.140436 0.046856 0.080271
O21   O     O_2   0.208278 0.116815 0.051398 -0.264290
O22   O     O_2   0.447999 0.214261 0.982865 -0.342431
O23   O     O_3   0.549609 0.067317 0.038937 -0.419649
H14   H     H_    0.682471 0.078871 0.049760 0.373080
I5    I     I_    0.686024 0.515513 0.180841 -0.195299
S2    S     S_3+6 0.997456 0.472560 0.322180 0.046663
O24   O     O_2   0.141579 0.489343 0.262885 -0.317296
O25   O     O_2   0.891591 0.546921 0.314151 -0.328534
O26   O     O_3   0.113895 0.440722 0.400038 -0.460391
H15   H     H_    0.032770 0.456823 0.432714 0.366706
I6    I     I_    0.436804 0.249321 0.452913 -0.297863
S3    S     S_3+6 0.848721 0.412927 0.664542 0.056872
O27   O     O_2   0.745841 0.479217 0.676807 -0.300350
O28   O     O_2   0.051803 0.409291 0.690252 -0.321876
O29   O     O_3   0.850308 0.429248 0.577322 -0.464195
H16   H     H_    0.909411 0.381617 0.573425 0.341617
I7    I     I_    0.899547 0.148757 0.896019 -0.117663
I8    I     I_    0.076082 0.208639 0.689379 -0.366423
I9    I     I_    0.360282 0.873305 0.084863 -0.043590
S4    S     S_3+6 0.904231 0.912278 0.177519 0.040413
O30   O     O_2   0.727304 0.907401 0.221814 -0.337979
O31   O     O_2   0.026261 0.980500 0.177870 -0.323386
O32   O     O_3   0.839214 0.926390 0.094138 -0.444809
H17   H     H_    0.936325 0.963356 0.063432 0.396982
I10   I     I_    0.327902 0.751978 0.943461 -0.298463
I11   I     I_    0.892083 0.846185 0.973383 -0.175047

loop_
_geom_bond_atom_site_label_1
_geom_bond_atom_site_label_2
_ccdc_geom_bond_type
C52   C60   T    
C25   C26   A    
C57   C58   S    
C36   C40   A    
C31   H8    S    
H4    C29   S    
C19   C20   A    
C10   C13   S    
C17   I10   S    
C1    O6    A    
V4    O20   S    
C13   I9    S    
C54   C59   S    
O18   C47   A    
C37   C38   A    
C49   C56   S    
C33   S1    S    
C5    C9    S    
S1    O23   S    
C6    C10   S    
C5    C12   S    
C4    C7    S    
C20   C21   A    
C21   C22   A    
C22   C26   A    
O5    C3    A    
O14   V3    S    
V2    O10   S    
C56   C60   S    
S2    O24   D    
C20   H5    S    
C18   C19   A    
C32   H9    S    
C42   S2    S    
C10   C15   S    
O15   C47   A    
H12   C58   S    
O8    V2    S    
C24   C27   A    
C2    C52   S    
C51   C59   T    
C45   O16   A    
C3    C26   S    
C25   C30   A    
O11   C46   A    
C53   C55   S    
C11   S4    S    
C40   C46   S    
O15   V3    S    
O9    C4    A    
C1    C37   S    
C49   S3    S    
C42   C43   A    
C50   C54   S    
C19   I2    S    
C45   C51   S    
C5    C6    S    
C17   C18   A    
C49   C53   S    
C30   I4    S    
C35   C37   A    
C32   C33   A    
C6    C14   S    
C27   I3    S    
C8    C47   S    
S3    O27   D    
V3    O20   S    
C23   C24   A    
O19   V4    S    
O17   V4    S    
C38   C41   A    
H2    C14   S    
C11   C12   S    
C34   C35   A    
C7    C15   T    
C41   C42   A    
C9    H3    S    
O2    C1    A    
O17   V3    S    
C43   C44   A    
C55   C57   S    
C49   C50   S    
C53   I8    S    
O18   V4    S    
C9    C10   S    
C56   C58   S    
C31   C32   A    
C50   C58   S    
C50   H11   S    
S1    O22   D    
C34   H10   S    
O3    C4    A    
C41   I5    S    
O1    V2    S    
O12   C45   A    
C24   C25   A    
O11   V4    S    
O6    V2    S    
O9    V2    S    
C27   C28   A    
O32   H17   S    
C55   I7    S    
O12   V3    S    
O16   V4    S    
S4    O31   D    
O2    V1    S    
C57   H13   S    
C55   C56   S    
C33   C34   A    
C54   C57   S    
O4    C2    A    
O7    V1    S    
C39   C44   A    
C35   C36   A    
H7    C43   S    
C8    C16   T    
O26   H15   S    
O1    C2    A    
C28   C29   A    
C31   C36   A    
O5    V1    S    
S3    O28   D    
O8    C3    A    
C12   C16   S    
C11   C13   S    
O23   H14   S    
C12   C14   S    
C17   C22   A    
S2    O26   S    
C23   C48   S    
S4    O32   S    
C39   C40   A    
O4    V1    S    
C21   C23   A    
O3    V1    S    
V1    O10   S    
O29   H16   S    
C38   C39   A    
C5    H1    S    
S2    O25   D    
C9    C11   S    
O7    V2    S    
S1    O21   D    
S3    O29   S    
O19   C48   A    
C44   I6    S    
C29   C30   A    
O13   V3    S    
C18   I11   S    
O14   C46   A    
C13   C14   S    
O13   C48   A    
C6    I1    S    
S4    O30   D    
C53   C54   S    
C28   H6    S    
