data_mof_unit_39807.cif
_audit_creation_date              2012-10-26T17:12:42-0400
_audit_creation_method            fapswitch 2.2
_symmetry_space_group_name_H-M    P1
_symmetry_Int_Tables_number       1
_space_group_crystal_system       triclinic
_cell_length_a                    27.807746
_cell_length_b                    19.003181
_cell_length_c                    16.664493
_cell_angle_alpha                 89.933031
_cell_angle_beta                  63.123822
_cell_angle_gamma                 89.920622
_cell_volume                      7854.91565238

loop_
_atom_site_label
_atom_site_type_symbol
_atom_type_description
_atom_site_fract_x
_atom_site_fract_y
_atom_site_fract_z
_atom_type_partial_charge
C1    C     C_R   0.297578 0.733909 0.327662 0.586616
C2    C     C_R   0.597949 0.997824 0.513694 0.018919
C3    C     C_R   0.682718 0.727950 0.913994 -0.013053
C4    C     C_R   0.171012 0.907899 0.976242 0.104605
C5    C     C_R   0.887309 0.180266 0.948108 0.124598
C6    C     C_R   0.829241 0.908763 0.021542 0.104516
C7    C     C_R   0.113324 0.179890 0.051185 0.124233
C8    C     C_R   0.670886 0.410270 0.978541 0.103683
C9    C     C_R   0.386893 0.680448 0.948891 0.124627
C10   C     C_R   0.328871 0.407989 0.023538 0.104782
C11   C     C_R   0.614753 0.677289 0.051112 0.124000
C12   C     C_R   0.198991 0.890655 0.025166 -0.050348
C13   C     C_R   0.916221 0.499940 0.434311 0.019738
C14   C     C_R   0.853554 0.188322 0.907149 -0.045444
C15   C     C_R   0.801349 0.890670 0.972625 -0.049980
C16   C     C_R   0.147535 0.186662 0.091442 -0.048059
C17   C     C_R   0.698927 0.392499 0.027434 -0.051360
C18   C     C_R   0.352706 0.687153 0.908596 -0.048768
C19   C     C_R   0.300717 0.390828 0.974892 -0.049532
C20   C     C_R   0.649219 0.683973 0.090960 -0.045902
C21   C     C_R   0.231730 0.689792 0.809613 0.108644
C22   C     C_R   0.770842 0.315810 0.197891 0.108791
C23   C     C_R   0.771417 0.690835 0.187163 0.109348
C24   C     C_R   0.111543 0.500101 0.463414 0.019601
C25   C     C_R   0.230142 0.318454 0.801497 0.113046
C26   C     C_R   0.730921 0.193460 0.811903 0.110730
C27   C     C_R   0.269333 0.818573 0.198883 0.111913
C28   C     C_R   0.268610 0.189838 0.190327 0.109616
C29   C     C_R   0.729851 0.814811 0.802060 0.110655
C30   C     C_R   0.264542 0.676485 0.852495 0.094666
C31   C     C_R   0.739287 0.335208 0.155340 0.108221
C32   C     C_R   0.738037 0.676286 0.145998 0.104243
C33   C     C_R   0.261513 0.335940 0.845318 0.104289
C34   C     C_R   0.765145 0.179930 0.851669 0.102900
C35   C     C_R   0.578151 0.879611 0.576427 -0.102922
C36   C     C_R   0.237831 0.835608 0.155079 0.101412
C37   C     C_R   0.235775 0.176453 0.147571 0.097223
C38   C     C_R   0.761613 0.833617 0.844359 0.111384
C39   C     C_R   0.923489 0.907394 0.069398 0.562966
C40   C     C_R   0.070909 0.100999 0.935973 0.536467
C41   C     C_R   0.076205 0.906566 0.930835 0.560979
C42   C     C_R   0.929180 0.100826 0.063881 0.537386
C43   C     C_R   0.423748 0.406652 0.069215 0.561536
C44   C     C_R   0.570956 0.600687 0.936029 0.537213
C45   C     C_R   0.576652 0.407643 0.930562 0.562400
C46   C     C_R   0.421297 0.116359 0.425539 -0.105329
C47   C     C_R   0.429120 0.601076 0.063993 0.536838
C48   C     C_R   0.068616 0.627143 0.435031 0.015773
C49   C     C_R   0.971897 0.372766 0.420732 0.016620
C50   C     C_R   0.971596 0.627210 0.420945 0.015770
C51   C     C_R   0.069186 0.373045 0.434309 0.014733
C52   C     C_R   0.570072 0.113731 0.437032 0.018248
C53   C     C_R   0.430911 0.881147 0.561554 0.019137
C54   C     C_R   0.471469 0.114859 0.426819 0.017050
C55   C     C_R   0.528911 0.880313 0.572573 0.017493
C56   C     C_R   0.048076 0.690182 0.418728 -0.119788
C57   C     C_R   0.382855 0.881140 0.554256 -0.112974
C58   C     C_R   0.000486 0.309860 0.411227 -0.117931
C59   C     C_R   0.999834 0.690232 0.411921 -0.119261
C60   C     C_R   0.048868 0.310028 0.417696 -0.121860
C61   C     C_R   0.556457 0.170813 0.397617 -0.120208
C62   C     C_R   0.444553 0.823815 0.600437 -0.121653
C63   C     C_R   0.507483 0.171500 0.392903 -0.119599
C64   C     C_R   0.493271 0.823304 0.605634 -0.119320
C65   C     C_R   0.993128 0.563668 0.433221 0.027247
C66   C     C_R   0.041972 0.436380 0.440409 0.027815
C67   C     C_R   0.041731 0.563684 0.440678 0.028178
C68   C     C_R   0.617785 0.114230 0.446017 -0.112999
C69   C     C_R   0.993302 0.436300 0.433070 0.027250
C70   C     C_R   0.485726 0.056348 0.463591 0.026506
C71   C     C_R   0.514945 0.938774 0.535309 0.025864
C72   C     C_R   0.534945 0.055950 0.469218 0.027445
C73   C     C_R   0.465888 0.939085 0.529441 0.027428
C74   C     C_R   0.451116 0.997982 0.493844 0.004055
C75   C     C_R   0.549385 0.997426 0.505778 0.003581
C76   C     C_R   0.967324 0.499954 0.434090 0.003428
C77   C     C_R   0.064824 0.500047 0.449151 0.004365
C78   C     C_R   0.369383 0.937436 0.512570 -0.031577
C79   C     C_R   0.116720 0.373516 0.443385 -0.112081
C80   C     C_R   0.630232 0.059048 0.490842 -0.028510
C81   C     C_R   0.614269 0.936765 0.543684 -0.020175
C82   C     C_R   0.384331 0.060100 0.461216 -0.020017
C83   C     C_R   0.891105 0.435155 0.434101 -0.021784
C84   C     C_R   0.135160 0.564917 0.468562 -0.029888
C85   C     C_R   0.135493 0.435367 0.468296 -0.022181
C86   C     C_R   0.891111 0.564767 0.434180 -0.021995
C87   C     C_R   0.323591 0.935689 0.496543 0.024283
C88   C     C_R   0.673176 0.062951 0.515047 0.008377
C89   C     C_R   0.665830 0.935375 0.541685 0.003409
C90   C     C_R   0.922379 0.626904 0.417401 -0.105813
C91   C     C_R   0.330271 0.063211 0.472261 0.001922
C92   C     C_R   0.836820 0.434790 0.446460 0.009171
C93   C     C_R   0.179060 0.565009 0.491289 0.022724
C94   C     C_R   0.179359 0.435369 0.491338 -0.006752
C95   C     C_R   0.836906 0.565299 0.446835 0.008111
C96   C     C_R   0.300437 0.999559 0.489475 0.072448
C97   C     C_R   0.690739 0.000531 0.540744 0.077055
C98   C     C_R   0.812211 0.500274 0.443592 0.087841
C99   C     C_R   0.203119 0.500516 0.495003 0.064097
C100  C     C_R   0.922514 0.372999 0.417497 -0.105405
C101  C     C_R   0.703303 0.267713 0.672098 0.600930
C102  C     C_R   0.116059 0.626819 0.444254 -0.114611
C103  C     C_R   0.228913 0.781622 0.943942 -0.008401
C104  C     C_R   0.789941 0.251383 0.036954 -0.004466
C105  C     C_R   0.771258 0.782481 0.055853 -0.006621
C106  C     C_R   0.210531 0.251092 0.962409 -0.006271
C107  C     C_R   0.730564 0.285308 0.942762 -0.006757
C108  C     C_R   0.289436 0.751259 0.037737 -0.006742
C109  C     C_R   0.271021 0.281744 0.056156 -0.007933
C110  C     C_R   0.711797 0.748627 0.961790 -0.004113
C111  C     C_R   0.266086 0.725335 0.915591 0.028776
C112  C     C_R   0.702878 0.732703 0.672263 0.590940
C113  C     C_R   0.749781 0.304570 0.071243 0.038114
C114  C     C_R   0.734989 0.725150 0.084174 0.031663
C115  C     C_R   0.250756 0.303917 0.928892 0.035649
C116  C     C_R   0.767670 0.228815 0.913648 0.030813
C117  C     C_R   0.248936 0.803766 0.071351 0.034656
C118  C     C_R   0.234008 0.225325 0.084537 0.029849
C119  C     C_R   0.751527 0.802252 0.927926 0.039140
C120  C     C_R   0.301652 0.718101 0.954963 0.015739
C121  C     C_R   0.724870 0.327026 0.016819 0.008057
C122  C     C_R   0.699772 0.716173 0.044711 0.015631
C123  C     C_R   0.297016 0.266924 0.327918 0.584245
C124  C     C_R   0.275907 0.324887 0.983461 0.009838
C125  C     C_R   0.802748 0.219988 0.953291 0.014801
C126  C     C_R   0.223829 0.824698 0.016703 0.009585
C127  C     C_R   0.198460 0.217900 0.045151 0.015826
C128  C     C_R   0.776332 0.824660 0.982405 0.009250
C129  C     C_R   0.163619 0.856062 0.921375 0.002860
C130  C     C_R   0.865344 0.187661 0.043327 0.016778
C131  C     C_R   0.836060 0.857902 0.078248 0.003481
C132  C     C_R   0.134690 0.188642 0.956268 0.016763
C133  C     C_R   0.664613 0.359430 0.921379 0.003518
C134  C     C_R   0.797158 0.232751 0.327729 0.579106
C135  C     C_R   0.365449 0.689108 0.043794 0.016618
C136  C     C_R   0.336345 0.356167 0.078505 0.002864
C137  C     C_R   0.635917 0.685824 0.956096 0.017122
C138  C     C_R   0.124548 0.860718 0.887849 -0.021989
C139  C     C_R   0.889771 0.160104 0.096472 -0.022834
C140  C     C_R   0.874902 0.862610 0.112484 -0.018220
C141  C     C_R   0.110132 0.161046 0.903421 -0.024908
C142  C     C_R   0.625557 0.363400 0.887427 -0.019162
C143  C     C_R   0.389984 0.661337 0.096582 -0.025866
C144  C     C_R   0.375405 0.360829 0.112144 -0.021025
C145  C     C_R   0.202971 0.766869 0.672116 0.589837
C146  C     C_R   0.610744 0.659505 0.903425 -0.022284
C147  C     C_R   0.132356 0.819485 0.812050 0.052378
C148  C     C_R   0.871247 0.183859 0.186232 0.056753
C149  C     C_R   0.866931 0.821773 0.188745 0.057702
C150  C     C_R   0.128204 0.185810 0.814075 0.049930
C151  C     C_R   0.633595 0.322365 0.811380 0.055394
C152  C     C_R   0.371977 0.686160 0.185869 0.051253
C153  C     C_R   0.367614 0.319555 0.187989 0.052196
C154  C     C_R   0.628906 0.683935 0.813978 0.055840
C155  C     C_R   0.177815 0.776410 0.771717 0.038973
C156  C     C_R   0.202489 0.233729 0.672312 0.600658
C157  C     C_R   0.824665 0.225605 0.227108 0.033920
C158  C     C_R   0.821706 0.778721 0.228658 0.040579
C159  C     C_R   0.174295 0.228746 0.773295 0.030800
C160  C     C_R   0.679092 0.279775 0.771190 0.039967
C161  C     C_R   0.325815 0.729142 0.226705 0.032612
C162  C     C_R   0.322207 0.276509 0.228309 0.038087
C163  C     C_R   0.675539 0.725428 0.772931 0.033597
C164  C     C_R   0.203488 0.754177 0.824240 -0.031423
C165  C     C_R   0.802499 0.254934 0.172713 -0.027638
C166  C     C_R   0.796543 0.756644 0.175675 -0.023110
C167  C     C_R   0.796858 0.767455 0.327941 0.590218
C168  C     C_R   0.196229 0.258922 0.827842 -0.029217
C169  C     C_R   0.705049 0.258755 0.823496 -0.024633
C170  C     C_R   0.303757 0.759357 0.172254 -0.031602
C171  C     C_R   0.296607 0.254299 0.175761 -0.028715
C172  C     C_R   0.698084 0.754062 0.827083 -0.024638
C173  C     C_R   0.201863 0.631471 0.508775 0.590186
C174  C     C_R   0.803907 0.368026 0.469604 0.564450
C175  C     C_R   0.803921 0.632035 0.469781 0.565326
C176  C     C_R   0.201933 0.368644 0.508817 0.569877
C177  C     C_R   0.700016 0.130969 0.515394 0.565631
C178  C     C_R   0.401639 0.998510 0.488930 0.018564
C179  C     C_R   0.298510 0.868611 0.489217 0.586290
C180  C     C_R   0.302366 0.131305 0.476065 0.563420
C181  C     C_R   0.696454 0.868066 0.528788 0.559970
C182  C     C_R   0.198314 0.796834 0.897074 -0.023297
C183  C     C_R   0.818511 0.229830 0.085263 -0.013689
C184  C     C_R   0.801376 0.798940 0.103046 -0.018882
C185  C     C_R   0.181095 0.231784 0.914600 -0.017497
C186  C     C_R   0.700047 0.301187 0.895985 -0.018751
C187  C     C_R   0.318964 0.732198 0.085491 -0.018582
C188  C     C_R   0.301680 0.296967 0.102918 -0.022492
Cu1   Cu    Cu3+1 0.209920 0.785290 0.495070 0.973826
Cu2   Cu    Cu3+1 0.504760 0.500000 0.075850 0.871771
Cu3   Cu    Cu3+1 0.995240 0.000000 0.924150 0.876803
Cu4   Cu    Cu3+1 0.004760 0.000000 0.075850 0.874999
Cu5   Cu    Cu3+1 0.790080 0.214710 0.504930 0.976411
Cu6   Cu    Cu3+1 0.790080 0.785290 0.504930 0.960451
Cu7   Cu    Cu3+1 0.209920 0.214710 0.495070 0.952825
Cu8   Cu    Cu3+1 0.709920 0.285290 0.495070 0.964222
Cu9   Cu    Cu3+1 0.290080 0.714710 0.504930 0.985580
Cu10  Cu    Cu3+1 0.290080 0.285290 0.504930 0.956538
Cu11  Cu    Cu3+1 0.709920 0.714710 0.495070 0.976984
Cu12  Cu    Cu3+1 0.495240 0.500000 0.924150 0.880525
H1    H     H_    0.503179 0.778154 0.635132 0.118683
H2    H     H_    0.412346 0.160909 0.394180 0.151593
H3    H     H_    0.355183 0.838241 0.585589 0.140175
H4    H     H_    0.645281 0.157363 0.415466 0.143124
H5    H     H_    0.139444 0.325376 0.425166 0.150928
H6    H     H_    0.910538 0.675421 0.397824 0.156395
H7    H     H_    0.910690 0.324435 0.398196 0.156580
H8    H     H_    0.138426 0.675181 0.426681 0.150691
H9    H     H_    0.205604 0.932614 0.062608 0.168306
H10   H     H_    0.870229 0.179024 0.835443 0.151278
H11   H     H_    0.795163 0.932048 0.933902 0.172072
H12   H     H_    0.497498 0.216758 0.363698 0.116374
H13   H     H_    0.131067 0.176754 0.162992 0.145517
H14   H     H_    0.704484 0.433818 0.066763 0.174217
H15   H     H_    0.369219 0.677344 0.837034 0.143782
H16   H     H_    0.293980 0.432874 0.937583 0.168616
H17   H     H_    0.633061 0.673776 0.162414 0.150360
H18   H     H_    0.220918 0.027494 0.564283 0.243111
H19   H     H_    0.241094 0.014011 0.449640 0.295710
H20   H     H_    0.717318 0.038784 0.623737 0.272120
H21   H     H_    0.739066 0.962023 0.598216 0.277036
H22   H     H_    0.759010 0.461120 0.400136 0.265807
H23   H     H_    0.417788 0.779005 0.625992 0.108364
H24   H     H_    0.764108 0.539317 0.392365 0.263564
H25   H     H_    0.283627 0.474773 0.439476 0.241250
H26   H     H_    0.252204 0.486560 0.556161 0.300189
H27   H     H_    0.094531 0.867394 0.746174 0.262602
H28   H     H_    0.056062 0.806169 0.825964 0.255054
H29   H     H_    0.895963 0.117995 0.258036 0.265249
H30   H     H_    0.941806 0.183080 0.197056 0.247616
H31   H     H_    0.904961 0.869128 0.254607 0.263700
H32   H     H_    0.943129 0.807247 0.175253 0.253133
H33   H     H_    0.104415 0.118891 0.742373 0.259718
H34   H     H_    0.583232 0.215597 0.371971 0.110875
H35   H     H_    0.057809 0.183304 0.802996 0.252275
H36   H     H_    0.594859 0.368731 0.745852 0.264856
H37   H     H_    0.557299 0.306879 0.825843 0.255557
H38   H     H_    0.395945 0.619307 0.257591 0.262705
H39   H     H_    0.442524 0.683471 0.196465 0.250442
H40   H     H_    0.405386 0.367330 0.253860 0.260006
H41   H     H_    0.443906 0.306074 0.174164 0.252387
H42   H     H_    0.603580 0.619090 0.742315 0.267045
H43   H     H_    0.558040 0.684175 0.804209 0.246486
H44   H     H_    0.128491 0.996698 0.032328 0.272241
H45   H     H_    0.069881 0.260686 0.411302 0.106304
H46   H     H_    0.151680 0.992201 0.917653 0.241564
H47   H     H_    0.956938 0.136908 0.852681 0.249901
H48   H     H_    0.966260 0.193192 0.925326 0.242505
H49   H     H_    0.872822 0.996284 0.963118 0.271457
H50   H     H_    0.848858 0.993863 0.078032 0.243002
H51   H     H_    0.043992 0.136361 0.147161 0.248476
H52   H     H_    0.034112 0.193092 0.075390 0.242890
H53   H     H_    0.626495 0.497054 0.037634 0.270814
H54   H     H_    0.650433 0.495120 0.922648 0.244460
H55   H     H_    0.456298 0.636996 0.852930 0.249008
H56   H     H_    0.984208 0.739670 0.401014 0.112077
H57   H     H_    0.466046 0.693405 0.924923 0.242330
H58   H     H_    0.371575 0.496556 0.967086 0.272657
H59   H     H_    0.348208 0.492292 0.081822 0.241091
H60   H     H_    0.545099 0.634689 0.147479 0.249810
H61   H     H_    0.535548 0.692449 0.076230 0.243054
H62   H     H_    0.315943 0.602409 0.770761 0.240758
H63   H     H_    0.263051 0.569927 0.864242 0.266192
H64   H     H_    0.709543 0.430765 0.210165 0.255907
H65   H     H_    0.670262 0.361361 0.264853 0.238365
H66   H     H_    0.690710 0.598729 0.226666 0.241551
H67   H     H_    0.985060 0.260420 0.400119 0.112652
H68   H     H_    0.742662 0.570095 0.129452 0.271257
H69   H     H_    0.293173 0.431883 0.794447 0.252842
H70   H     H_    0.330880 0.362180 0.736047 0.250114
H71   H     H_    0.812641 0.102816 0.770083 0.243318
H72   H     H_    0.762243 0.073736 0.868884 0.270050
H73   H     H_    0.204999 0.930978 0.206590 0.253783
H74   H     H_    0.168066 0.860570 0.264365 0.243216
H75   H     H_    0.184721 0.102155 0.229358 0.240449
H76   H     H_    0.237642 0.069905 0.135730 0.267578
H77   H     H_    0.791150 0.929582 0.790706 0.255257
H78   H     H_    0.068826 0.739609 0.412768 0.107452
H79   H     H_    0.830320 0.860448 0.734613 0.245802
H80   H     H_    0.586725 0.835517 0.609069 0.148952
I1    I     I_    0.212366 0.603704 0.746569 -0.322382
I2    I     I_    0.805421 0.399874 0.235967 -0.389614
I3    I     I_    0.804268 0.605787 0.228525 -0.390175
I4    I     I_    0.214284 0.401655 0.730789 -0.332531
I5    I     I_    0.696213 0.107087 0.777827 -0.375565
I6    I     I_    0.283548 0.901983 0.271302 -0.323090
I7    I     I_    0.288706 0.103791 0.252665 -0.350755
I8    I     I_    0.696592 0.899461 0.762040 -0.392937
N1    N     N_3   0.244882 0.998390 0.506678 -0.583935
N2    N     N_3   0.401811 0.671498 0.235417 -0.585034
N3    N     N_3   0.405504 0.318649 0.224677 -0.598520
N4    N     N_3   0.598518 0.671115 0.764937 -0.596225
N5    N     N_3   0.160276 0.981280 0.971217 -0.618266
N6    N     N_3   0.944270 0.183554 0.889593 -0.623235
N7    N     N_3   0.840573 0.982150 0.024365 -0.617332
N8    N     N_3   0.056458 0.183164 0.110491 -0.630581
N9    N     N_3   0.658842 0.483481 0.976234 -0.615076
N10   N     N_3   0.443768 0.683728 0.889688 -0.633524
N11   N     N_3   0.339703 0.481335 0.028203 -0.618712
N12   N     N_3   0.732813 0.005928 0.568379 -0.555127
N13   N     N_3   0.557994 0.681475 0.110891 -0.623476
N14   N     N_3   0.291740 0.610089 0.839631 -0.644442
N15   N     N_3   0.694879 0.382318 0.201284 -0.654166
N16   N     N_3   0.712825 0.608612 0.157762 -0.643343
N17   N     N_3   0.306851 0.381890 0.800571 -0.647589
N18   N     N_3   0.791384 0.112818 0.839083 -0.644182
N19   N     N_3   0.191943 0.880763 0.200027 -0.650431
N20   N     N_3   0.208811 0.109959 0.160469 -0.644921
N21   N     N_3   0.805927 0.880839 0.798596 -0.649348
N22   N     N_3   0.761421 0.501644 0.439010 -0.545188
N23   N     N_3   0.254968 0.502696 0.494342 -0.583134
N24   N     N_3   0.094450 0.818686 0.775402 -0.585107
N25   N     N_3   0.901256 0.170149 0.235754 -0.595231
N26   N     N_3   0.904807 0.820510 0.225487 -0.598504
N27   N     N_3   0.098514 0.171110 0.764360 -0.586891
N28   N     N_3   0.595443 0.320333 0.775235 -0.585800
O1    O     O_R   0.255040 0.869590 0.478480 -0.449226
O2    O     O_R   0.817950 0.203450 0.375560 -0.480144
O3    O     O_R   0.817950 0.796550 0.375560 -0.483220
O4    O     O_R   0.182050 0.203450 0.624440 -0.474207
O5    O     O_R   0.682050 0.296550 0.624440 -0.472104
O6    O     O_R   0.317950 0.703450 0.375560 -0.475101
O7    O     O_R   0.317950 0.296550 0.375560 -0.492913
O8    O     O_R   0.682050 0.703450 0.624440 -0.474476
O9    O     O_R   0.250530 0.763330 0.367210 -0.514732
O10   O     O_R   0.749470 0.236670 0.632790 -0.498905
O11   O     O_R   0.749470 0.763330 0.632790 -0.501456
O12   O     O_R   0.744960 0.130410 0.521520 -0.471259
O13   O     O_R   0.250530 0.236670 0.367210 -0.508537
O14   O     O_R   0.750530 0.263330 0.367210 -0.518456
O15   O     O_R   0.249470 0.736670 0.632790 -0.512431
O16   O     O_R   0.249470 0.263330 0.632790 -0.491900
O17   O     O_R   0.750530 0.736670 0.367210 -0.501455
O18   O     O_R   0.177260 0.690030 0.513710 -0.535298
O19   O     O_R   0.822740 0.309970 0.486290 -0.528495
O20   O     O_R   0.822740 0.690030 0.486290 -0.528407
O21   O     O_R   0.177260 0.309970 0.513710 -0.518885
O22   O     O_R   0.677260 0.190030 0.513710 -0.523831
O23   O     O_R   0.744960 0.869590 0.521520 -0.495943
O24   O     O_R   0.322740 0.809970 0.486290 -0.530245
O25   O     O_R   0.322740 0.190030 0.486290 -0.518408
O26   O     O_R   0.677260 0.809970 0.513710 -0.521333
O27   O     O_R   0.051640 0.926880 0.885090 -0.514262
O28   O     O_R   0.948360 0.073120 0.114910 -0.524838
O29   O     O_R   0.948360 0.926880 0.114910 -0.514100
O30   O     O_R   0.051640 0.073120 0.885090 -0.525624
O31   O     O_R   0.551640 0.426880 0.885090 -0.513271
O32   O     O_R   0.448360 0.573120 0.114910 -0.525456
O33   O     O_R   0.448360 0.426880 0.114910 -0.514769
O34   O     O_R   0.255040 0.130410 0.478480 -0.506115
O35   O     O_R   0.551640 0.573120 0.885090 -0.524094
O36   O     O_R   0.940620 0.926560 0.986760 -0.500482
O37   O     O_R   0.059380 0.073440 0.013240 -0.527586
O38   O     O_R   0.059380 0.926560 0.013240 -0.499877
O39   O     O_R   0.940620 0.073440 0.986760 -0.529092
O40   O     O_R   0.440620 0.426560 0.986760 -0.498850
O41   O     O_R   0.559380 0.573440 0.013240 -0.530389
O42   O     O_R   0.559380 0.426560 0.013240 -0.502210
O43   O     O_R   0.440620 0.573440 0.986760 -0.526858
O44   O     O_R   0.755040 0.369590 0.478480 -0.488504
O45   O     O_R   0.244960 0.630410 0.521520 -0.447460
O46   O     O_R   0.244960 0.369590 0.521520 -0.502682
O47   O     O_R   0.755040 0.630410 0.478480 -0.481045
O48   O     O_R   0.182050 0.796550 0.624440 -0.480710

loop_
_geom_bond_atom_site_label_1
_geom_bond_atom_site_label_2
_ccdc_geom_bond_type
C54   C70   A    
Cu12  O43   S    
C167  O3    A    
C108  C120  A    
C63   H12   S    
C64   H1    S    
H73   N19   S    
C88   C177  S    
C123  O7    A    
C50   C59   A    
H72   N18   S    
C52   C61   A    
C11   N13   S    
H70   N17   S    
C12   C126  A    
C54   C63   A    
C58   C60   A    
C47   C143  S    
H43   N4    S    
Cu2   O33   S    
C61   C63   A    
C103  C126  A    
C95   C175  S    
C62   C64   A    
C131  C140  A    
C91   C96   A    
H75   N20   S    
C50   C90   A    
C28   I7    S    
C162  C171  A    
C170  C187  A    
C70   C74   A    
C4    C12   A    
C147  C155  A    
C24   C85   A    
C88   C97   A    
Cu7   Cu10  S    
C119  C128  A    
C49   C69   A    
C43   C144  S    
C43   O33   A    
C109  C118  A    
H25   N23   S    
H37   N28   S    
C45   O31   A    
C11   C20   A    
C150  C159  A    
Cu3   Cu4   S    
C165  C183  A    
C137  C146  A    
C166  C184  A    
C86   C90   A    
C71   C73   A    
Cu10  O7    S    
Cu3   O39   S    
C35   C55   A    
C106  C127  A    
C82   C91   A    
C51   C66   A    
C89   C181  S    
C142  C151  A    
Cu7   O34   S    
C52   C72   A    
C131  C184  A    
C105  C114  A    
C146  C154  A    
C82   C178  A    
C176  O21   A    
C163  C172  A    
C9    N10   S    
Cu4   O29   S    
H69   N17   S    
C38   C119  A    
C5    C130  A    
C101  O5    A    
H65   N15   S    
C29   I8    S    
C83   C100  A    
H66   N16   S    
C45   C142  S    
C79   C85   A    
Cu1   Cu9   S    
C66   C77   A    
C39   C140  S    
H50   N7    S    
H62   N14   S    
C57   C78   A    
C152  N2    S    
C177  O22   A    
Cu11  O26   S    
H32   N26   S    
Cu1   O18   S    
C8    C17   A    
C56   C59   A    
C106  C115  A    
C40   O30   A    
H76   N20   S    
H54   N9    S    
C31   N15   S    
C5    N6    S    
C27   I6    S    
H77   N21   S    
C32   N16   S    
H39   N2    S    
C93   C173  S    
Cu4   O37   S    
C7    C132  A    
C84   C93   A    
C105  C184  A    
H44   N5    S    
C34   N18   S    
H30   N25   S    
C47   O43   A    
C86   C95   A    
C24   C77   A    
Cu11  O17   S    
C104  C183  A    
C80   C88   A    
C40   O37   A    
C2    C81   A    
C102  H8    S    
C55   C71   A    
C2    C75   A    
C78   C87   A    
C68   H4    S    
C84   C102  A    
C20   H17   S    
C67   C77   A    
C1    O6    A    
C149  N26   S    
Cu9   O24   S    
H59   N11   S    
C133  C142  A    
C36   N19   S    
H51   N8    S    
C12   H9    S    
C130  C183  A    
C37   C118  A    
H71   N18   S    
C42   O28   A    
C3    C110  A    
C69   C76   A    
C53   C62   A    
C21   I1    S    
C10   N11   S    
C46   C82   A    
Cu10  O25   S    
C101  C160  S    
Cu2   O42   S    
C58   H67   S    
Cu8   O5    S    
Cu5   O19   S    
Cu11  O47   S    
H53   N9    S    
C149  C158  A    
C20   C122  A    
C152  C161  A    
C135  C143  A    
C60   H45   S    
C48   C67   A    
C44   O35   A    
C40   C141  S    
C136  C188  A    
C97   N12   S    
C72   C75   A    
C135  C187  A    
Cu9   O6    S    
H36   N28   S    
C141  C150  A    
C25   C168  A    
C139  C148  A    
C35   H80   S    
Cu8   O14   S    
Cu5   O10   S    
C4    N5    S    
C26   I5    S    
C22   I2    S    
C157  C165  A    
C6    N7    S    
C112  O8    A    
H22   N22   S    
C92   C174  S    
C79   H5    S    
C147  N24   S    
C98   N22   S    
H41   N3    S    
H57   N10   S    
H42   N4    S    
H58   N11   S    
C160  C169  A    
Cu5   Cu8   S    
C91   C180  S    
C175  O20   A    
C9    C135  A    
C116  C125  A    
C118  C127  A    
C17   H14   S    
Cu10  O46   S    
C132  C141  A    
C101  O10   A    
C174  O44   A    
C108  C117  A    
C110  C119  A    
C7    N8    S    
C23   I3    S    
H31   N26   S    
C28   C37   A    
H20   N12   S    
C156  O4    A    
Cu7   O21   S    
C148  C157  A    
C16   C127  A    
C51   C79   A    
C107  C116  A    
C104  C113  A    
C156  O16   A    
C9    C18   A    
C113  C121  A    
C51   C60   A    
C140  C149  A    
C31   C113  A    
C25   C33   A    
C129  C182  A    
H21   N12   S    
Cu5   O12   S    
Cu6   O20   S    
C73   C74   A    
C181  O23   A    
Cu8   O22   S    
H38   N2    S    
Cu2   Cu12  S    
H47   N6    S    
C65   C76   A    
C171  C188  A    
C169  C186  A    
Cu9   O15   S    
C3    C172  A    
C103  C111  A    
C145  O15   A    
C90   H6    S    
C104  C125  A    
C65   C67   A    
C158  C167  S    
C44   O41   A    
C3    C137  A    
C93   C99   A    
C81   C89   A    
C8    C133  A    
C1    C161  S    
C21   C164  A    
H29   N25   S    
C130  C139  A    
C180  O25   A    
C100  H7    S    
H74   N19   S    
H79   N21   S    
H60   N13   S    
H49   N7    S    
C39   O36   A    
C33   C115  A    
C45   O42   A    
H63   N14   S    
C96   N1    S    
C112  C163  S    
Cu1   O48   S    
C53   C57   A    
Cu7   O4    S    
H19   N1    S    
Cu6   O23   S    
Cu12  O35   S    
C176  O46   A    
Cu2   O32   S    
C132  C185  A    
C180  O34   A    
C181  O26   A    
Cu7   O13   S    
C112  O11   A    
C10   C19   A    
C48   C102  A    
C46   C54   A    
Cu4   O38   S    
H48   N6    S    
Cu5   O2    S    
H55   N10   S    
C27   C170  A    
C5    C14   A    
C17   C121  A    
C143  C152  A    
C134  O14   A    
C15   C128  A    
C107  C121  A    
H35   N27   S    
C158  C166  A    
C145  O48   A    
C150  N27   S    
H40   N3    S    
C115  C124  A    
C59   H56   S    
C78   C178  A    
C106  C185  A    
H24   N22   S    
C6    C131  A    
C4    C129  A    
C107  C186  A    
C27   C36   A    
C21   C30   A    
C13   C83   A    
H46   N5    S    
Cu6   O11   S    
C153  C162  A    
C23   C32   A    
C11   C137  A    
H64   N15   S    
C136  C144  A    
C110  C122  A    
Cu1   O1    S    
C153  N3    S    
C154  N4    S    
Cu10  O16   S    
C41   O27   A    
C164  C182  A    
H18   N1    S    
C46   H2    S    
C8    N9    S    
C41   O38   A    
Cu12  O40   S    
Cu1   O9    S    
Cu3   O27   S    
Cu8   O44   S    
C94   C176  S    
C68   C80   A    
C74   C178  A    
C103  C182  A    
C108  C187  A    
C99   N23   S    
C18   H15   S    
H68   N16   S    
Cu6   O3    S    
C134  O2    A    
C35   C81   A    
C95   C98   A    
C92   C98   A    
C83   C92   A    
H27   N24   S    
C14   C125  A    
Cu3   O30   S    
C10   C136  A    
C66   C69   A    
C123  O13   A    
C34   C116  A    
C159  C168  A    
C19   H16   S    
C144  C153  A    
C15   H11   S    
C148  N25   S    
C22   C165  A    
C179  O24   A    
C26   C34   A    
C129  C138  A    
C26   C169  A    
C30   N14   S    
C13   C86   A    
C44   C146  S    
C179  O1    A    
C85   C94   A    
C6    C15   A    
C61   H34   S    
C57   H3    S    
C38   N21   S    
C167  O17   A    
C50   C65   A    
Cu4   O28   S    
C109  C188  A    
C174  O19   A    
C19   C124  A    
C22   C31   A    
C14   H10   S    
C56   H78   S    
C154  C163  A    
C123  C162  S    
H61   N13   S    
C39   O29   A    
C49   C58   A    
C89   C97   A    
C111  C120  A    
C177  O12   A    
C114  C122  A    
C29   C38   A    
C173  O18   A    
C36   C117  A    
C23   C166  A    
C47   O32   A    
C28   C171  A    
Cu6   Cu11  S    
C13   C76   A    
C138  C147  A    
Cu2   O41   S    
C87   C96   A    
C41   C138  S    
C62   H23   S    
C25   I4    S    
C133  C186  A    
C161  C170  A    
C151  N28   S    
C33   N17   S    
C18   C120  A    
H26   N23   S    
C48   C56   A    
Cu12  O31   S    
Cu9   O45   S    
C7    C16   A    
C168  C185  A    
C105  C128  A    
C42   C139  S    
H52   N8    S    
Cu3   O36   S    
C156  C159  S    
C53   C73   A    
C173  O45   A    
C52   C68   A    
C109  C124  A    
C55   C64   A    
C155  C164  A    
C30   C111  A    
C151  C160  A    
H33   N27   S    
C24   C84   A    
C49   C100  A    
C71   C75   A    
Cu11  O8    S    
C94   C99   A    
C175  O47   A    
C29   C172  A    
C16   H13   S    
H28   N24   S    
C2    C80   A    
C87   C179  S    
C145  C155  S    
C134  C157  S    
C43   O40   A    
C37   N20   S    
C117  C126  A    
C70   C72   A    
C32   C114  A    
C42   O39   A    
C1    O9    A    
