data_mof_unit_37675.cif
_audit_creation_date              2012-12-10T21:00:59-0500
_audit_creation_method            fapswitch 2.2
_symmetry_space_group_name_H-M    P1
_symmetry_Int_Tables_number       1
_space_group_crystal_system       triclinic
_cell_length_a                    15.83435
_cell_length_b                    15.08248
_cell_length_c                    10.518242
_cell_angle_alpha                 89.993159
_cell_angle_beta                  90.108375
_cell_angle_gamma                 90.068725
_cell_volume                      2511.9735651

loop_
_atom_site_label
_atom_site_type_symbol
_atom_type_description
_atom_site_fract_x
_atom_site_fract_y
_atom_site_fract_z
_atom_type_partial_charge
C1    C     C_R   0.338904 0.499935 0.499825 0.885169
C2    C     C_R   0.661067 0.500022 0.499627 0.876590
C3    C     C_1   0.824003 0.500777 0.510248 0.116117
C4    C     C_1   0.175977 0.500791 0.512542 0.107669
C5    C     C_R   0.956383 0.571266 0.455903 0.321690
C6    C     C_R   0.043621 0.435455 0.585306 0.348052
C7    C     C_R   0.044282 0.573320 0.461700 0.319017
C8    C     C_R   0.955532 0.435119 0.582946 0.346435
C9    C     C_R   0.912893 0.502727 0.517519 -0.245091
C10   C     C_R   0.087166 0.503609 0.521721 -0.249040
C11   C     C_R   0.497444 0.500024 0.257033 0.982826
C12   C     C_R   0.503160 0.500043 0.742958 0.980779
C13   C     C_1   0.250658 0.499902 0.505487 -0.182773
C14   C     C_1   0.749295 0.500107 0.504472 -0.169943
C15   C     C_R   0.486555 0.953133 0.387026 -0.165488
C16   C     C_R   0.513163 0.046866 0.613092 -0.164153
C17   C     C_R   0.513138 0.953139 0.613097 -0.163977
C18   C     C_R   0.486583 0.046857 0.387016 -0.162318
C19   C     C_R   0.499854 0.905032 0.500053 0.079244
C20   C     C_R   0.499900 0.094965 0.500048 0.079627
C21   C     C_3   0.461164 0.574041 0.038913 0.377633
C22   C     C_3   0.540135 0.426457 0.961190 0.376089
C23   C     C_3   0.543246 0.572277 0.961358 0.381891
C24   C     C_3   0.458041 0.428197 0.038682 0.381735
C25   C     C_3   0.419742 0.502080 0.955959 -0.076743
C26   C     C_3   0.581536 0.498469 0.044280 -0.086727
C27   C     C_3   0.502242 0.500256 0.877334 -0.306495
C28   C     C_3   0.498974 0.500151 0.122747 -0.309786
C29   C     C_1   0.499929 0.807147 0.500020 0.050290
C30   C     C_1   0.499959 0.192852 0.500028 0.055677
H1    H     H_    0.476186 0.081808 0.298403 0.132130
H2    H     H_    0.523544 0.918185 0.701705 0.131860
H3    H     H_    0.523591 0.081824 0.701688 0.133104
H4    H     H_    0.476135 0.918178 0.298433 0.133029
N1    N     N_1   0.500000 0.270550 0.500000 -0.078850
N2    N     N_1   0.500000 0.729450 0.500000 -0.080135
O1    O     O_R   0.378020 0.573650 0.500040 -0.615567
O2    O     O_R   0.621980 0.426350 0.499960 -0.610896
O3    O     O_R   0.621980 0.573650 0.499960 -0.607739
O4    O     O_R   0.378020 0.426350 0.500040 -0.607166
O5    O     O_R   0.499980 0.573650 0.313960 -0.596924
O6    O     O_R   0.500020 0.426350 0.686040 -0.597597
O7    O     O_R   0.500020 0.573650 0.686040 -0.600797
O8    O     O_R   0.499980 0.426350 0.313960 -0.599313
Zn1   Zn    Zn3+2 0.500000 0.598370 0.500000 0.998324
Zn2   Zn    Zn3+2 0.500000 0.401630 0.500000 1.002903
C31   C     C_3   0.331353 0.504402 0.896973 -0.414671
C32   C     C_3   0.262552 0.506414 0.998687 -0.811218
H5    H     H_    0.263884 0.445234 0.057039 0.274178
H6    H     H_    0.270794 0.564006 0.062991 0.284160
H7    H     H_    0.199725 0.511707 0.952493 0.217802
H8    H     H_    0.325596 0.563742 0.835180 0.190118
H9    H     H_    0.322805 0.445298 0.835549 0.187624
C33   C     C_3   0.669890 0.496403 0.103688 -0.376595
C34   C     C_3   0.738698 0.495249 0.002102 -0.861783
H10   H     H_    0.728259 0.440155 0.934287 0.280421
H11   H     H_    0.739296 0.558032 0.947415 0.271968
H12   H     H_    0.801361 0.486516 0.047840 0.225745
H13   H     H_    0.678461 0.555094 0.166025 0.191908
H14   H     H_    0.675768 0.436648 0.164618 0.191664
O9    O     O_3   0.422216 0.648585 0.095196 -0.593642
C35   C     C_3   0.394079 0.708572 0.001096 0.115374
H15   H     H_    0.330038 0.689584 0.968151 0.153181
H16   H     H_    0.436475 0.712130 0.917002 0.171608
C36   C     C_3   0.388477 0.800813 0.058907 -0.860996
H17   H     H_    0.451641 0.822433 0.092896 0.248274
H18   H     H_    0.365607 0.848642 0.986366 0.208690
H19   H     H_    0.343903 0.800495 0.140340 0.266385
O10   O     O_3   0.578985 0.351884 0.904840 -0.596781
C37   C     C_3   0.607942 0.292382 0.998974 0.112221
H20   H     H_    0.566212 0.289209 0.083893 0.173737
H21   H     H_    0.672266 0.311622 0.030371 0.154313
C38   C     C_3   0.613099 0.199848 0.942052 -0.861079
H22   H     H_    0.656916 0.199722 0.859740 0.264782
H23   H     H_    0.636667 0.152430 0.014639 0.212209
H24   H     H_    0.549664 0.177996 0.909553 0.248855
O11   O     O_3   0.585389 0.645142 0.905524 -0.593307
C39   C     C_3   0.615245 0.703964 0.000060 0.111452
H25   H     H_    0.678025 0.682217 0.034509 0.152966
H26   H     H_    0.572372 0.709550 0.083309 0.173621
C40   C     C_3   0.625321 0.795790 0.942247 -0.852449
H27   H     H_    0.563504 0.820076 0.906546 0.247865
H28   H     H_    0.649346 0.842663 0.015295 0.210663
H29   H     H_    0.670779 0.793422 0.862029 0.267406
O12   O     O_3   0.416047 0.355240 0.094497 -0.592738
C41   C     C_3   0.385730 0.296765 0.999896 0.114165
H30   H     H_    0.428462 0.291129 0.916471 0.174168
H31   H     H_    0.322953 0.318923 0.965918 0.151919
C42   C     C_3   0.375389 0.204884 0.057409 -0.853295
H32   H     H_    0.330033 0.207298 0.137756 0.268841
H33   H     H_    0.351106 0.158231 0.984264 0.208942
H34   H     H_    0.437169 0.180316 0.092866 0.248439
O13   O     O_3   0.088363 0.638559 0.397358 -0.581047
C43   C     C_3   0.103317 0.709708 0.481556 0.141078
H35   H     H_    0.137202 0.687188 0.568793 0.117696
H36   H     H_    0.042735 0.741776 0.509197 0.164913
C44   C     C_3   0.158269 0.778385 0.415476 -0.806963
H37   H     H_    0.125910 0.803289 0.328786 0.258066
H38   H     H_    0.170355 0.834956 0.480603 0.203629
H39   H     H_    0.219634 0.748339 0.388117 0.262501
O14   O     O_3   0.911914 0.363044 0.631230 -0.549624
C45   C     C_3   0.886806 0.381916 0.757038 0.121218
H40   H     H_    0.844676 0.440938 0.760564 0.130741
H41   H     H_    0.942509 0.393748 0.819233 0.131895
C46   C     C_3   0.838673 0.302671 0.809622 -0.797262
H42   H     H_    0.878078 0.241973 0.802817 0.263472
H43   H     H_    0.822777 0.314100 0.911029 0.196474
H44   H     H_    0.779381 0.292663 0.754806 0.265040
O15   O     O_3   0.912824 0.637901 0.393539 -0.579071
C47   C     C_3   0.903356 0.613712 0.264562 0.157340
H45   H     H_    0.872257 0.547700 0.254748 0.122001
H46   H     H_    0.965828 0.612065 0.216181 0.167191
C48   C     C_3   0.848130 0.681867 0.197895 -0.846291
H47   H     H_    0.877464 0.748614 0.204876 0.266401
H48   H     H_    0.841058 0.664094 0.095988 0.202219
H49   H     H_    0.784634 0.683569 0.242550 0.252094
O16   O     O_3   0.085617 0.364284 0.639515 -0.550240
C49   C     C_3   0.122566 0.390647 0.756100 0.115505
H50   H     H_    0.083388 0.439552 0.809360 0.090426
H51   H     H_    0.185616 0.420258 0.738676 0.144973
C50   C     C_3   0.134303 0.309500 0.840087 -0.811434
H52   H     H_    0.177020 0.261285 0.793041 0.256337
H53   H     H_    0.162424 0.329460 0.932528 0.201899
H54   H     H_    0.072283 0.277389 0.857936 0.261349

loop_
_geom_bond_atom_site_label_1
_geom_bond_atom_site_label_2
_ccdc_geom_bond_type
C15   C18   A    
C34   H10   S    
O13   C43   S    
C7    C10   A    
C38   H22   S    
C44   H39   S    
C40   H27   S    
C33   H14   S    
O11   C39   S    
C15   C19   A    
C46   H43   S    
C29   N2    T    
O14   C45   S    
C30   N1    T    
C12   O7    A    
C45   H41   S    
C39   H26   S    
C45   C46   S    
O6    Zn2   S    
C23   C26   S    
C4    C13   T    
C49   H50   S    
C50   H54   S    
C35   H16   S    
C1    O4    A    
C40   H28   S    
C47   H45   S    
C2    O3    A    
C32   H7    S    
C8    C9    A    
C36   H18   S    
C12   O6    A    
C37   H20   S    
C23   C27   S    
C42   H33   S    
C8    O14   S    
C25   C31   S    
C15   H4    S    
C21   O9    S    
C1    O1    A    
O3    Zn1   S    
C48   H49   S    
C32   H6    S    
C38   H23   S    
O10   C37   S    
C26   C33   S    
C44   H38   S    
O8    Zn2   S    
C44   H37   S    
C49   H51   S    
C33   H13   S    
C7    O13   S    
C46   H44   S    
O2    Zn2   S    
C12   C27   S    
C45   H40   S    
C11   O8    A    
C24   C25   S    
C5    C7    A    
C39   H25   S    
C16   C17   A    
C20   C30   S    
C43   C44   S    
O12   C41   S    
C49   C50   S    
O4    Zn2   S    
C5    C9    A    
C35   H15   S    
C3    C9    S    
C16   H3    S    
C2    O2    A    
C31   C32   S    
C16   C20   A    
C36   H19   S    
C37   C38   S    
N2    Zn1   S    
C23   O11   S    
C42   H34   S    
C43   H36   S    
O7    Zn1   S    
C47   C48   S    
C50   H52   S    
C3    C14   T    
C32   H5    S    
C21   C28   S    
C43   H35   S    
C22   C27   S    
C21   C23   S    
C38   H24   S    
C22   C24   S    
C1    C13   S    
O1    Zn1   S    
C19   C29   S    
C40   H29   S    
C48   H47   S    
C24   O12   S    
C17   H2    S    
C21   C25   S    
C33   C34   S    
C6    O16   S    
C35   C36   S    
C41   H30   S    
C24   C28   S    
C41   C42   S    
C6    C10   A    
C18   C20   A    
C6    C8    A    
C31   H8    S    
C25   C27   S    
C46   H42   S    
C26   C28   S    
C31   H9    S    
C34   H11   S    
O16   C49   S    
C39   C40   S    
C5    O15   S    
C11   C28   S    
C17   C19   A    
C11   O5    A    
C41   H31   S    
O9    C35   S    
C2    C14   S    
C47   H46   S    
C50   H53   S    
C36   H17   S    
C22   C26   S    
C34   H12   S    
C22   O10   S    
O5    Zn1   S    
C37   H21   S    
C18   H1    S    
C42   H32   S    
O15   C47   S    
N1    Zn2   S    
C4    C10   S    
C48   H48   S    
