data_mof_unit_67313.cif
_audit_creation_date              2013-03-05T16:05:14-0500
_audit_creation_method            fapswitch 2.2
_symmetry_space_group_name_H-M    P1
_symmetry_Int_Tables_number       1
_space_group_crystal_system       triclinic
_cell_length_a                    8.485104
_cell_length_b                    15.547881
_cell_length_c                    15.183533
_cell_angle_alpha                 98.842955
_cell_angle_beta                  98.04932
_cell_angle_gamma                 99.21103
_cell_volume                      1925.72921388

loop_
_atom_site_label
_atom_site_type_symbol
_atom_site_description
_atom_site_fract_x
_atom_site_fract_y
_atom_site_fract_z
_atom_type_partial_charge
P1    P     P_3+3 0.996570 0.418570 0.288410 0.496301
O1    O     O_2   0.826460 0.445380 0.275370 -0.340423
O2    O     O_3   0.098920 0.448470 0.388920 -0.369221
O3    O     O_3   0.628660 0.613390 0.338240 -0.372074
O4    O     O_2   0.672453 0.532574 0.180911 -0.290899
O5    O     O_3   0.907643 0.305058 0.267952 -0.560710
O6    O     O_3   0.655997 0.696351 0.180784 -0.548555
H1    H     H_    0.692395 0.786594 0.300497 0.107082
C1    C     C_3   0.668080 0.854920 0.182652 -0.239282
P2    P     P_3+3 0.693070 0.712070 0.580610 0.454042
P3    P     P_3+3 0.138155 0.772285 0.380900 0.588571
O7    O     O_2   0.863170 0.725020 0.553760 -0.288888
O8    O     O_3   0.060910 0.661460 0.386100 -0.256821
O9    O     O_2   0.019557 0.822554 0.427011 -0.307693
O10   O     O_3   0.740268 0.743994 0.698840 -0.619746
O11   O     O_3   0.097012 0.789493 0.268668 -0.530631
C2    C     C_3   0.074153 0.708616 0.208182 0.940140
H2    H     H_    0.181756 0.676900 0.219234 -0.099895
C3    C     C_3   0.044296 0.722974 0.109813 -0.728383
H3    H     H_    0.032223 0.658449 0.064322 0.197334
H4    H     H_    0.928140 0.745639 0.096092 0.190180
C4    C     C_3   0.342848 0.736771 0.691926 0.157625
H5    H     H_    0.440567 0.698505 0.684641 0.141108
C5    C     C_3   0.430069 0.831162 0.740428 -0.721732
H6    H     H_    0.467000 0.831685 0.813146 0.232763
H7    H     H_    0.541981 0.850007 0.712522 0.176712
Ba1   Ba    Ba6+2 0.844900 0.542440 0.457470 1.640523
C6    C     C_3   0.010936 0.250091 0.297770 0.122091
H8    H     H_    0.111440 0.289440 0.348524 0.146321
C7    C     C_3   0.080074 0.206655 0.217906 -0.773751
H9    H     H_    0.121067 0.260308 0.181895 0.220709
H10   H     H_    0.184137 0.179071 0.245309 0.224069
C8    C     C_3   0.801330 0.679686 0.742142 0.709351
H11   H     H_    0.901595 0.657525 0.710015 0.036071
C9    C     C_3   0.869495 0.722425 0.842372 0.533684
P4    P     P_3+3 0.193140 0.581510 0.711600 0.468786
O12   O     O_2   0.363260 0.554650 0.724690 -0.343827
O13   O     O_3   0.090800 0.551610 0.611090 -0.391394
O14   O     O_3   0.561050 0.386690 0.661770 -0.410510
O15   O     O_3   0.237299 0.698055 0.743966 -0.563335
P5    P     P_3+3 0.081307 0.224914 0.610128 0.511760
O16   O     O_3   0.598950 0.388690 0.448890 -0.404328
O17   O     O_3   0.128800 0.338610 0.613910 -0.371157
O18   O     O_2   0.188334 0.184410 0.546995 -0.302758
O19   O     O_3   0.165643 0.202063 0.713977 -0.508083
Ba2   Ba    Ba6+2 0.344940 0.457640 0.542540 1.641839
P6    P     P_3+3 0.573743 0.599899 0.218494 0.530605
C10   C     C_3   0.621783 0.774043 0.230864 0.742047
O20   O     O_3   0.590770 0.611390 0.551120 -0.478346
C11   C     C_3   0.475273 0.296944 0.253102 0.192243
H12   H     H_    0.378003 0.334044 0.266708 0.114354
H13   H     H_    0.593936 0.341295 0.270054 0.184333
C12   C     C_3   0.439082 0.256740 0.150586 -0.686016
H14   H     H_    0.328641 0.205290 0.137519 0.210788
P7    P     P_3+3 0.503894 0.273841 0.423101 0.532118
O21   O     O_2   0.326540 0.275010 0.446300 -0.324524
O22   O     O_3   0.470345 0.230208 0.305790 -0.535105
C13   C     C_3   0.065634 0.219913 0.778164 0.221686
H15   H     H_    0.059355 0.291695 0.789377 0.078368
H16   H     H_    0.941657 0.180336 0.755036 0.024490
C14   C     C_3   0.137894 0.195942 0.868142 0.612209
P8    P     P_3+3 0.614273 0.397046 0.777698 0.576299
C15   C     C_3   0.597193 0.229776 0.740724 0.352486
H17   H     H_    0.727276 0.248058 0.735910 -0.032441
O23   O     O_2   0.506408 0.456250 0.822110 -0.328214
O24   O     O_3   0.550274 0.292915 0.803439 -0.418737
H18   H     H_    0.522475 0.223448 0.672957 0.055708
H19   H     H_    0.606981 0.090923 0.719183 0.133199
C16   C     C_3   0.568630 0.139759 0.769298 0.090021
H20   H     H_    0.437277 0.118582 0.769802 0.194760
C17   C     C_R   0.358088 0.545450 0.166972 0.113427
H21   H     H_    0.501190 0.608815 0.035276 0.199527
C18   C     C_R   0.104165 0.464751 0.197833 0.012272
C19   C     C_R   0.926197 0.480681 0.762431 -0.551825
C20   C     C_R   0.832162 0.441047 0.818642 0.154313
C21   C     C_R   0.902775 0.431880 0.904555 0.455708
C22   C     C_R   0.057636 0.484189 0.946318 -0.073627
C23   C     C_R   0.150980 0.527808 0.888224 -0.029282
C24   C     C_R   0.123337 0.494634 0.042375 0.076244
C25   C     C_R   0.287976 0.538266 0.074477 -0.070734
C26   C     C_R   0.376854 0.575556 0.014082 -0.133227
C27   C     C_R   0.308097 0.572485 0.924640 -0.000603
C28   C     C_R   0.029260 0.466908 0.108219 0.362840
C29   C     C_R   0.266035 0.505551 0.224075 -0.434816
C30   C     C_R   0.085651 0.524137 0.794441 0.279506
H22   H     H_    0.873418 0.478810 0.692998 0.166530
H23   H     H_    0.381366 0.604207 0.883057 0.217158
C31   C     C_R   0.354894 0.823021 0.436525 0.266272
H24   H     H_    0.434040 0.699701 0.435729 0.221449
H25   H     H_    0.207846 0.946009 0.380165 0.233718
C32   C     C_R   0.597555 0.796559 0.525398 0.218142
C33   C     C_R   0.759602 0.229788 0.534695 -0.489426
C34   C     C_R   0.861871 0.175356 0.566788 0.149697
C35   C     C_R   0.803729 0.083746 0.558191 -0.171793
C36   C     C_R   0.638163 0.045019 0.519653 -0.057966
C37   C     C_R   0.538853 0.101958 0.480349 -0.100810
C38   C     C_R   0.571624 0.950702 0.510520 0.138780
C39   C     C_R   0.415321 0.915630 0.457327 0.001586
C40   C     C_R   0.324632 0.972255 0.421420 -0.302134
C41   C     C_R   0.383479 0.062350 0.429681 0.570772
C42   C     C_R   0.650034 0.888675 0.553003 -0.269319
C43   C     C_R   0.461692 0.767561 0.459948 -0.411997
C44   C     C_R   0.602653 0.195355 0.487577 0.332020
H26   H     H_    0.745967 0.908860 0.609986 0.168010
H27   H     H_    0.808448 0.299357 0.539241 0.158352
C45   C     C_2   0.329062 0.900911 0.732502 1.251834
O25   O     O_2   0.364904 0.958614 0.688744 -0.699987
O26   O     O_R   0.185988 0.894180 0.767687 -0.688120
H28   H     H_    0.113462 0.933821 0.743969 0.365481
C46   C     C_2   0.921600 0.180897 0.341950 1.055519
O27   O     O_2   0.997212 0.141859 0.391336 -0.546507
O28   O     O_R   0.754013 0.156220 0.323909 -0.762681
H29   H     H_    0.704197 0.180029 0.270961 0.347028
C47   C     C_2   0.973230 0.133093 0.148330 1.192306
O29   O     O_2   0.840945 0.097468 0.160244 -0.620529
O30   O     O_R   0.030594 0.104241 0.069168 -0.748600
H30   H     H_    0.949500 0.055624 0.026189 0.359624
O31   O     O_3   0.676062 0.608391 0.739741 -0.749274
H31   H     H_    0.680314 0.562213 0.688005 0.334364
C48   C     C_2   0.846318 0.897003 0.209151 1.030103
O32   O     O_2   0.907467 0.914995 0.288979 -0.540573
O33   O     O_R   0.938718 0.925347 0.146229 -0.712770
H32   H     H_    0.876953 0.916975 0.082725 0.350285
O34   O     O_3   0.007483 0.786655 0.845269 -0.689256
H33   H     H_    0.104833 0.760912 0.860675 0.403726
O35   O     O_3   0.911098 0.657854 0.892782 -0.827844
H34   H     H_    0.810483 0.618053 0.898240 0.336763
C49   C     C_2   0.747151 0.768400 0.884656 1.018265
O36   O     O_2   0.774593 0.848776 0.909695 -0.609357
O37   O     O_R   0.601616 0.718254 0.894403 -0.836047
H35   H     H_    0.527864 0.755195 0.922821 0.346122
O38   O     O_3   0.457653 0.763515 0.237913 -0.821002
H36   H     H_    0.400254 0.738721 0.175821 0.309136
C50   C     C_2   0.579875 0.928904 0.209267 1.202557
O39   O     O_2   0.505747 0.960887 0.151305 -0.477967
O40   O     O_R   0.593535 0.965631 0.300017 -0.799298
H37   H     H_    0.542676 0.020104 0.306420 0.349604
C51   C     C_2   0.403193 0.325928 0.095088 1.010157
O41   O     O_2   0.265338 0.339630 0.080899 -0.639936
O42   O     O_R   0.522897 0.370727 0.055537 -0.694978
H38   H     H_    0.479728 0.410548 0.014869 0.364849
C52   C     C_2   0.565046 0.209336 0.115106 1.131385
O43   O     O_2   0.532538 0.129114 0.089149 -0.526699
O44   O     O_R   0.712549 0.256978 0.104316 -0.762602
H39   H     H_    0.773299 0.220429 0.064822 0.328707
O45   O     O_3   0.624772 0.827459 0.088372 -0.744007
H40   H     H_    0.692523 0.784563 0.068444 0.345844
C53   C     C_2   0.173336 0.788598 0.085888 1.150297
O46   O     O_2   0.205178 0.864894 0.126602 -0.510724
O47   O     O_R   0.255271 0.762442 0.015814 -0.801535
H41   H     H_    0.331340 0.813936 0.001973 0.369591
O48   O     O_3   0.303389 0.233714 0.887203 -0.666989
H42   H     H_    0.350747 0.215794 0.943422 0.329978
O49   O     O_3   0.063478 0.232307 0.938003 -0.759613
H43   H     H_    0.947991 0.203019 0.925875 0.340411
C54   C     C_2   0.113719 0.096256 0.862987 0.995423
O50   O     O_2   0.229895 0.060260 0.878955 -0.591817
O51   O     O_R   0.956450 0.046410 0.845049 -0.762706
H44   H     H_    0.953872 0.981805 0.849100 0.385697
O52   O     O_3   0.935876 0.653545 0.220530 -0.653712
H45   H     H_    0.965278 0.596159 0.228497 0.329099
O53   O     O_3   0.659559 0.142344 0.854393 -0.685175
H46   H     H_    0.599178 0.168061 0.900101 0.378693
C55   C     C_2   0.331744 0.521823 0.318255 1.063556
O54   O     O_2   0.285448 0.577163 0.367858 -0.632956
O55   O     O_R   0.444901 0.475812 0.351861 -0.783624
H47   H     H_    0.494779 0.505849 0.415302 0.391819
O56   O     O_3   0.864447 0.457217 0.088452 -0.668961
H48   H     H_    0.818000 0.411020 0.119738 0.416640
O57   O     O_3   0.824280 0.363335 0.939004 -0.671086
H49   H     H_    0.906123 0.341348 0.977890 0.363143
C56   C     C_2   0.928071 0.030893 0.579256 1.077162
O58   O     O_2   0.978874 0.028691 0.657904 -0.686594
O59   O     O_R   0.996125 0.989311 0.510064 -0.688090
H50   H     H_    0.091445 0.963414 0.535160 0.351836
O60   O     O_3   0.294397 0.109546 0.379326 -0.671734
H51   H     H_    0.211926 0.068793 0.332018 0.349785
C57   C     C_2   0.247633 0.734685 0.600610 0.930571
O61   O     O_2   0.166085 0.790588 0.587836 -0.574859
O62   O     O_R   0.238514 0.663636 0.531725 -0.704752
H52   H     H_    0.314911 0.622992 0.546926 0.321532

loop_
_geom_bond_atom_site_label_1
_geom_bond_atom_site_label_2
_geom_bond_distance
_ccdc_geom_bond_type
P2    Ba1   3.515327 S    
C7    H10   1.099974 S    
P7    O21   1.595074 D    
C34   C35   1.410333 A    
O5    C6    1.396842 S    
H24   C43   1.039599 S    
O26   H28   1.007900 S    
C36   C37   1.452698 A    
C4    C57   1.496735 S    
C14   O49   1.400373 S    
C47   O29   1.219853 D    
C12   H14   1.102980 S    
C56   O58   1.219073 D    
O4    P6    1.534194 D    
Ba2   O20   2.883432 S    
C6    H8    1.095161 S    
O35   H34   0.992530 S    
C9    O34   1.402792 S    
C3    H4    1.102376 S    
C5    H7    1.108544 S    
O45   H40   0.988060 S    
P2    O10   1.757949 S    
C7    H9    1.102913 S    
O59   H50   1.013215 S    
P3    O9    1.547441 D    
C45   O25   1.221196 D    
Ba1   O13   2.872956 S    
C13   H16   1.109711 S    
C27   H23   1.065787 S    
P7    C44   1.901218 S    
C1    O45   1.407501 S    
O30   H30   1.013293 S    
C12   C52   1.505702 S    
O16   Ba2   2.990948 S    
C2    O52   1.390782 S    
O31   H31   0.988274 S    
C17   C25   1.426623 A    
C33   C44   1.399683 A    
C35   C56   1.467846 S    
C46   O27   1.213321 D    
C54   O51   1.399208 S    
P5    C34   1.880220 S    
C15   C16   1.520952 S    
C48   O33   1.396498 S    
O38   H36   0.987011 S    
C41   O60   1.372059 S    
C11   H13   1.098229 S    
P4    Ba2   3.486755 S    
O1    Ba1   2.909812 S    
C18   C29   1.392016 A    
H21   C26   1.078469 S    
C29   C55   1.428302 S    
C1    C50   1.504673 S    
C13   C14   1.541560 S    
C15   O24   1.404569 S    
C8    O31   1.399781 S    
C15   H17   1.110405 S    
C49   O36   1.223289 D    
P5    O17   1.739192 S    
C55   O54   1.205690 D    
O55   H47   1.004650 S    
C16   H20   1.111914 S    
C32   C42   1.408611 A    
O28   H29   1.004226 S    
C14   O48   1.403736 S    
C56   O59   1.391304 S    
C38   C39   1.428871 A    
C22   C24   1.461105 A    
O42   H38   1.012717 S    
C15   H18   1.112010 S    
O19   C13   1.403847 S    
C11   C12   1.553517 S    
C52   O43   1.222872 D    
C19   C20   1.392766 A    
P8    O24   1.743956 S    
O7    Ba1   2.956275 S    
C12   C51   1.507222 S    
C57   O61   1.215994 D    
P4    O15   1.767095 S    
C21   C22   1.433926 A    
C16   O53   1.400433 S    
H19   C16   1.110060 S    
C50   O40   1.389352 S    
C6    C46   1.511680 S    
C13   H15   1.113805 S    
C22   C23   1.439757 A    
C26   C27   1.391475 A    
P1    O5    1.766377 S    
C47   O30   1.396720 S    
P1    O2    1.606472 S    
O6    P6    1.762014 S    
C17   C29   1.395198 A    
C9    O35   1.411514 S    
C20   C21   1.395189 A    
H1    C10   1.112041 S    
O16   P7    1.796649 S    
P3    O11   1.760916 S    
C23   C27   1.394475 A    
C38   C42   1.437097 A    
C57   O62   1.383825 S    
C40   C41   1.389893 A    
P3    C31   1.900910 S    
C4    O15   1.400217 S    
C2    H2    1.109774 S    
C48   O32   1.220558 D    
C11   H12   1.104597 S    
C5    H6    1.103105 S    
C21   O57   1.376474 S    
P6    C17   1.891185 S    
O49   H43   0.991126 S    
P2    O7    1.544956 D    
O14   Ba2   2.861573 S    
Ba1   Ba2   4.655171 S    
O56   H48   0.981621 S    
P2    C32   1.890601 S    
C42   H26   1.071062 S    
P7    O22   1.771604 S    
O51   H44   1.012706 S    
P5    O18   1.543195 D    
C52   O44   1.392800 S    
P8    C20   1.847982 S    
C5    C45   1.494605 S    
C32   C43   1.376527 A    
C2    C3    1.536063 S    
P4    O13   1.606441 S    
C14   C54   1.518818 S    
H25   C40   1.076555 S    
O3    Ba1   2.862253 S    
O62   H52   1.003451 S    
C23   C30   1.442926 A    
O53   H46   0.991897 S    
C7    C47   1.508107 S    
O14   P8    1.730643 S    
P4    O12   1.560680 D    
P8    O23   1.546433 D    
O47   H41   1.012946 S    
C11   O22   1.403228 S    
C10   O38   1.397105 S    
C53   O47   1.394766 S    
C25   C26   1.401043 A    
O10   C8    1.404635 S    
C49   O37   1.390368 S    
C31   C43   1.394768 A    
C36   C38   1.462497 A    
C50   O39   1.223556 D    
C51   O42   1.396556 S    
P4    C30   1.901424 S    
C19   H22   1.080283 S    
C28   O56   1.367314 S    
C37   C41   1.421114 A    
O2    Ba2   2.873572 S    
C3    C53   1.496505 S    
O44   H39   1.011834 S    
P1    C18   1.919839 S    
O6    C10   1.418900 S    
C3    H3    1.108272 S    
O2    Ba1   3.005416 S    
O37   H35   1.011036 S    
O12   Ba2   2.910349 S    
C6    C7    1.531322 S    
O52   H45   0.984340 S    
C24   C28   1.438173 A    
P3    O8    1.760581 S    
Ba1   O16   2.884025 S    
O11   C2    1.406856 S    
C45   O26   1.388624 S    
P1    O1    1.560231 D    
C55   O55   1.374382 S    
C33   C34   1.396474 A    
C8    C9    1.552937 S    
C8    H11   1.113040 S    
C4    C5    1.552805 S    
C53   O46   1.219623 D    
C19   C30   1.394820 A    
C35   C36   1.438470 A    
O17   Ba2   2.837124 S    
C46   O28   1.388611 S    
O13   Ba2   3.006276 S    
C51   O41   1.217919 D    
O60   H51   0.992207 S    
C24   C25   1.433032 A    
C33   H27   1.082613 S    
C54   O50   1.222773 D    
O48   H42   0.990283 S    
C1    C10   1.573779 S    
C39   C40   1.382555 A    
O57   H49   0.985369 S    
C37   C44   1.447921 A    
Ba2   O21   2.956509 S    
C9    C49   1.511264 S    
P1    Ba1   3.486136 S    
C1    C48   1.519579 S    
P5    O19   1.749931 S    
C4    H5    1.103214 S    
O8    Ba1   2.836373 S    
O33   H32   1.009651 S    
P2    O20   1.626335 S    
C18   C28   1.426590 A    
C31   C39   1.419280 A    
O40   H37   1.008175 S    
Ba1   O20   2.991810 S    
O34   H33   0.988813 S    
O3    P6    1.783544 S    
