data_mof_unit_8677.cif
_audit_creation_date              2012-12-10T21:07:45-0500
_audit_creation_method            fapswitch 2.2
_symmetry_space_group_name_H-M    P1
_symmetry_Int_Tables_number       1
_space_group_crystal_system       triclinic
_cell_length_a                    8.592644
_cell_length_b                    17.52791
_cell_length_c                    16.827857
_cell_angle_alpha                 89.382967
_cell_angle_beta                  97.970537
_cell_angle_gamma                 91.330156
_cell_volume                      2509.22841083

loop_
_atom_site_label
_atom_site_type_symbol
_atom_type_description
_atom_site_fract_x
_atom_site_fract_y
_atom_site_fract_z
_atom_type_partial_charge
C1    C     C_R   0.502097 0.353175 0.500484 0.917028
C2    C     C_R   0.380144 0.463288 0.244757 -0.019268
C3    C     C_R   0.623829 0.538758 0.839778 -0.265997
C4    C     C_R   0.375494 0.461564 0.160223 -0.266299
C5    C     C_R   0.503237 0.503108 0.876225 0.162482
C6    C     C_R   0.496350 0.496913 0.123734 0.162979
C7    C     C_1   0.502084 0.501418 0.963729 -0.040244
C8    C     C_1   0.497363 0.498613 0.036219 -0.040278
C9    C     C_R   0.200993 0.499474 0.479323 0.984079
C10   C     C_R   0.799007 0.500488 0.520678 0.983343
C11   C     C_2   0.036529 0.497315 0.468032 -0.360476
C12   C     C_R   0.501744 0.646880 0.499798 0.915582
C13   C     C_2   0.963468 0.502578 0.531976 -0.357916
C14   C     C_R   0.547363 0.847285 0.575991 0.498731
C15   C     C_R   0.565133 0.154921 0.432636 0.497296
C16   C     C_R   0.527266 0.768325 0.573966 -0.314018
C17   C     C_R   0.538744 0.232899 0.431048 -0.306925
C18   C     C_R   0.515944 0.729684 0.500675 -0.100800
C19   C     C_R   0.519124 0.270847 0.501912 -0.103210
C20   C     C_R   0.526481 0.770376 0.429340 -0.151478
C21   C     C_R   0.524046 0.230154 0.574394 -0.162795
C22   C     C_R   0.549872 0.848903 0.431447 -0.241383
C23   C     C_1   0.574015 0.967046 0.505195 0.015085
C24   C     C_R   0.546981 0.152083 0.575797 -0.241148
C25   C     C_R   0.561667 0.886736 0.504582 0.032542
C26   C     C_R   0.566542 0.114917 0.505109 0.027242
C27   C     C_3   0.410077 0.895342 0.669268 0.084308
C28   C     C_3   0.422839 0.944936 0.743577 -0.794887
C29   C     C_3   0.735556 0.122510 0.347926 0.083162
C30   C     C_3   0.754123 0.075964 0.274220 -0.793205
C31   C     C_2   0.249003 0.422064 0.697100 0.418102
C32   C     C_2   0.751761 0.577376 0.302761 0.416252
C33   C     C_1   0.575361 0.034728 0.505796 0.012490
C34   C     C_R   0.381169 0.467073 0.826419 -0.341412
C35   C     C_R   0.618876 0.532633 0.173509 -0.342144
C36   C     C_R   0.381456 0.464523 0.742763 0.139175
C37   C     C_R   0.618812 0.535186 0.257182 0.138631
C38   C     C_R   0.619387 0.537018 0.755259 -0.019825
H1    H     H_    0.975987 0.490575 0.407304 0.160679
H2    H     H_    0.713495 0.560485 0.146897 0.137076
H3    H     H_    0.712460 0.565313 0.728245 0.134238
H4    H     H_    0.286828 0.435234 0.271790 0.133289
H5    H     H_    0.720722 0.567750 0.876190 0.142700
H6    H     H_    0.278229 0.432822 0.123834 0.142100
H7    H     H_    0.355918 0.839312 0.683223 0.143098
H8    H     H_    0.331994 0.924381 0.620185 0.139766
H9    H     H_    0.474892 0.001672 0.731103 0.250183
H10   H     H_    0.304221 0.952953 0.760879 0.208485
H11   H     H_    0.498264 0.917234 0.794182 0.258095
H12   H     H_    0.024012 0.509302 0.592708 0.160925
H13   H     H_    0.816665 0.099422 0.399640 0.141355
H14   H     H_    0.769646 0.182924 0.336438 0.140975
H15   H     H_    0.676445 0.098134 0.221137 0.257012
H16   H     H_    0.877957 0.079893 0.262255 0.208807
H17   H     H_    0.722476 0.015159 0.284315 0.253669
H18   H     H_    0.131356 0.428634 0.712314 0.018558
H19   H     H_    0.869114 0.570937 0.287104 0.018926
H20   H     H_    0.521417 0.737657 0.629753 0.174726
H21   H     H_    0.534863 0.263417 0.374501 0.176130
H22   H     H_    0.517973 0.741630 0.372211 0.195671
H23   H     H_    0.509778 0.258459 0.629740 0.194355
H24   H     H_    0.557499 0.880193 0.376150 0.168306
H25   H     H_    0.547327 0.120546 0.631586 0.163695
H26   H     H_    0.286751 0.438992 0.852988 0.137103
N1    N     N_R   0.500040 0.500030 0.707230 -0.099975
N2    N     N_R   0.499960 0.499970 0.292770 -0.099609
O1    O     O_R   0.500000 0.389130 0.566570 -0.565158
O2    O     O_3   0.577740 0.116953 0.362322 -0.613024
O3    O     O_2   0.269730 0.374803 0.647384 -0.554846
O4    O     O_2   0.731770 0.624261 0.352977 -0.554866
O5    O     O_R   0.500000 0.610870 0.433430 -0.566490
O6    O     O_R   0.499990 0.389100 0.433480 -0.643378
O7    O     O_R   0.500010 0.610900 0.566520 -0.641981
O8    O     O_R   0.271750 0.500010 0.550980 -0.595951
O9    O     O_R   0.728250 0.499990 0.449020 -0.595939
O10   O     O_R   0.271740 0.499980 0.417890 -0.645352
O11   O     O_R   0.728260 0.500020 0.582110 -0.645854
O12   O     O_3   0.561695 0.885578 0.648157 -0.612686
Zn1   Zn    Zn3+2 0.500010 0.500020 0.588860 0.975717
Zn2   Zn    Zn3+2 0.499990 0.499980 0.411140 0.974669

loop_
_geom_bond_atom_site_label_1
_geom_bond_atom_site_label_2
_ccdc_geom_bond_type
C28   H9    S    
N1    Zn1   S    
C27   O12   S    
C7    C8    T    
C30   H16   S    
C3    H5    S    
C19   C21   A    
C24   C26   A    
C6    C35   A    
C18   C20   A    
C10   O9    A    
C17   C19   A    
C3    C38   A    
C23   C33   T    
C22   C25   A    
C9    O10   A    
C31   H18   S    
C20   H22   S    
O9    Zn2   S    
C21   H23   S    
C27   H7    S    
C14   O12   S    
C12   O7    A    
C5    C34   A    
C32   H19   S    
O5    Zn2   S    
C10   O11   A    
O11   Zn1   S    
C30   H15   S    
C1    C19   S    
C1    O6    A    
O1    Zn1   S    
C38   H3    S    
C4    C6    A    
C5    C7    S    
C36   N1    A    
C15   C26   A    
C32   O4    D    
C4    H6    S    
C3    C5    A    
C2    C4    A    
C29   C30   S    
C22   H24   S    
C29   O2    S    
C28   H11   S    
C26   C33   S    
C38   N1    A    
C37   N2    A    
C34   H26   S    
O7    Zn1   S    
C16   H20   S    
C32   C37   S    
C11   H1    S    
C9    C11   S    
C17   H21   S    
C27   H8    S    
C12   O5    A    
C20   C22   A    
C24   H25   S    
O8    Zn1   S    
C14   C16   A    
C9    O8    A    
C29   H13   S    
C15   C17   A    
C28   H10   S    
C35   C37   A    
O10   Zn2   S    
C2    N2    A    
C10   C13   S    
C6    C8    S    
N2    Zn2   S    
C30   H17   S    
C35   H2    S    
O6    Zn2   S    
C11   C13   D    
C2    H4    S    
C15   O2    S    
C1    O1    A    
C34   C36   A    
C23   C25   S    
C14   C25   A    
C13   H12   S    
C31   O3    D    
C16   C18   A    
C21   C24   A    
C12   C18   S    
C27   C28   S    
C31   C36   S    
C29   H14   S    
