data_mof_unit_66416.cif
_audit_creation_date              2012-12-10T19:58:54-0500
_audit_creation_method            fapswitch 2.2
_symmetry_space_group_name_H-M    P1
_symmetry_Int_Tables_number       1
_space_group_crystal_system       tetragonal
_cell_length_a                    18.422184
_cell_length_b                    18.422184
_cell_length_c                    22.420303
_cell_angle_alpha                 90.0
_cell_angle_beta                  90.0
_cell_angle_gamma                 90.0
_cell_volume                      7608.93210704

loop_
_atom_site_label
_atom_site_type_symbol
_atom_type_description
_atom_site_fract_x
_atom_site_fract_y
_atom_site_fract_z
_atom_type_partial_charge
C1    C     C_R   0.500000 0.000000 0.340111 0.848386
C2    C     C_R   0.860042 0.640007 0.500035 0.816438
C3    C     C_R   0.359992 0.860042 0.500035 0.816438
C4    C     C_R   0.139958 0.359992 0.500035 0.816438
C5    C     C_R   0.359992 0.139958 0.500035 0.816438
C6    C     C_R   0.139958 0.640007 0.500035 0.816437
C7    C     C_R   0.640007 0.860042 0.500035 0.816438
C8    C     C_R   0.860042 0.359992 0.500035 0.816438
C9    C     C_R   0.140007 0.639958 0.000035 0.816437
C10   C     C_R   0.360042 0.140007 0.000035 0.816438
C11   C     C_R   0.859993 0.360042 0.000035 0.816438
C12   C     C_R   0.000000 0.500000 0.340111 0.848386
C13   C     C_R   0.639958 0.859993 0.000035 0.816438
C14   C     C_R   0.859993 0.639958 0.000035 0.816438
C15   C     C_R   0.639958 0.140007 0.000035 0.816437
C16   C     C_R   0.140007 0.360042 0.000035 0.816438
C17   C     C_R   0.360042 0.859993 0.000035 0.816438
C18   C     C_R   0.691615 0.743466 0.464862 -0.076300
C19   C     C_R   0.256534 0.691615 0.464862 -0.076300
C20   C     C_R   0.308385 0.256534 0.464862 -0.076300
C21   C     C_R   0.743466 0.308385 0.464862 -0.076300
C22   C     C_R   0.308385 0.743466 0.464862 -0.076300
C23   C     C_R   1.000000 0.500000 0.840111 0.848386
C24   C     C_R   0.743466 0.691615 0.464862 -0.076300
C25   C     C_R   0.691615 0.256534 0.464862 -0.076300
C26   C     C_R   0.256534 0.308385 0.464862 -0.076300
C27   C     C_R   0.191615 0.243466 0.964862 -0.076300
C28   C     C_R   0.756534 0.191615 0.964862 -0.076300
C29   C     C_R   0.808385 0.756534 0.964862 -0.076300
C30   C     C_R   0.243465 0.808385 0.964862 -0.076300
C31   C     C_R   0.808385 0.243466 0.964862 -0.076300
C32   C     C_R   0.243466 0.191615 0.964862 -0.076300
C33   C     C_R   0.191615 0.756534 0.964862 -0.076300
C34   C     C_R   0.500000 1.000000 0.840111 0.848386
C35   C     C_R   0.756534 0.808385 0.964862 -0.076300
C36   C     C_R   0.696064 0.804983 0.500409 -0.049643
C37   C     C_R   0.195017 0.696063 0.500409 -0.049643
C38   C     C_R   0.303936 0.195017 0.500409 -0.049643
C39   C     C_R   0.804983 0.303936 0.500409 -0.049643
C40   C     C_R   0.303936 0.804983 0.500409 -0.049643
C41   C     C_R   0.804983 0.696063 0.500409 -0.049643
C42   C     C_R   0.696063 0.195017 0.500409 -0.049643
C43   C     C_R   0.195017 0.303936 0.500409 -0.049643
C44   C     C_R   0.196064 0.304983 0.000409 -0.049643
C45   C     C_R   0.500000 1.000000 0.659899 0.833581
C46   C     C_R   0.695017 0.196064 0.000409 -0.049643
C47   C     C_R   0.803936 0.695017 0.000409 -0.049643
C48   C     C_R   0.304983 0.803936 0.000409 -0.049643
C49   C     C_R   0.803936 0.304983 0.000409 -0.049643
C50   C     C_R   0.304983 0.196064 0.000409 -0.049643
C51   C     C_R   0.196063 0.695017 0.000409 -0.049643
C52   C     C_R   0.695017 0.803936 0.000409 -0.049643
C53   C     C_R   0.757865 0.811846 0.537309 -0.177392
C54   C     C_R   0.188154 0.757865 0.537309 -0.177391
C55   C     C_R   0.242135 0.188154 0.537309 -0.177392
C56   C     C_R   1.000000 0.500000 0.659899 0.833581
C57   C     C_R   0.811846 0.242135 0.537309 -0.177392
C58   C     C_R   0.242135 0.811846 0.537309 -0.177392
C59   C     C_R   0.811846 0.757865 0.537309 -0.177392
C60   C     C_R   0.757865 0.188154 0.537309 -0.177391
C61   C     C_R   0.188154 0.242135 0.537309 -0.177392
C62   C     C_R   0.257865 0.311846 0.037310 -0.177392
C63   C     C_R   0.688154 0.257865 0.037309 -0.177391
C64   C     C_R   0.742135 0.688154 0.037310 -0.177392
C65   C     C_R   0.311846 0.742135 0.037309 -0.177391
C66   C     C_R   0.742135 0.311846 0.037309 -0.177391
C67   C     C_R   1.000000 0.500000 0.159898 0.833581
C68   C     C_R   0.311846 0.257865 0.037310 -0.177392
C69   C     C_R   0.257865 0.688154 0.037309 -0.177391
C70   C     C_R   0.688154 0.742135 0.037310 -0.177392
C71   C     C_1   0.000000 0.500000 0.276716 -0.091473
C72   C     C_1   0.500000 0.000000 0.276716 -0.091473
C73   C     C_1   0.500000 1.000000 0.776716 -0.091473
C74   C     C_1   1.000000 0.500000 0.776716 -0.091473
C75   C     C_1   0.500000 1.000000 0.723295 -0.108099
C76   C     C_1   1.000000 0.500000 0.723295 -0.108099
C77   C     C_1   0.000000 0.500000 0.223295 -0.108099
C78   C     C_R   0.500000 0.000000 0.159898 0.833581
C79   C     C_1   0.500000 0.000000 0.223295 -0.108099
C80   C     C_3   0.704999 0.645828 0.420137 0.485514
C81   C     C_3   0.354172 0.704999 0.420137 0.485514
C82   C     C_3   0.295001 0.354172 0.420137 0.485514
C83   C     C_3   0.645828 0.295001 0.420137 0.485515
C84   C     C_3   0.295001 0.645828 0.420137 0.485515
C85   C     C_3   0.645828 0.704999 0.420137 0.485514
C86   C     C_3   0.704999 0.354172 0.420137 0.485514
C87   C     C_3   0.354172 0.295001 0.420137 0.485514
C88   C     C_3   0.204999 0.145828 0.920137 0.485514
C89   C     C_R   0.640007 0.139958 0.500035 0.816437
C90   C     C_3   0.854172 0.204999 0.920137 0.485515
C91   C     C_3   0.795001 0.854172 0.920137 0.485514
C92   C     C_3   0.145828 0.795001 0.920137 0.485515
C93   C     C_3   0.795001 0.145828 0.920137 0.485515
C94   C     C_3   0.145828 0.204999 0.920137 0.485514
C95   C     C_3   0.204999 0.854172 0.920137 0.485515
C96   C     C_3   0.854172 0.795001 0.920137 0.485514
F1    F     F_    0.742951 0.641997 0.366927 -0.559253
F2    F     F_    0.858003 0.242951 0.866927 -0.559253
F3    F     F_    0.757049 0.858003 0.866927 -0.559253
F4    F     F_    0.141997 0.757049 0.866927 -0.559253
F5    F     F_    0.757049 0.141997 0.866927 -0.559253
F6    F     F_    0.141997 0.242951 0.866927 -0.559253
F7    F     F_    0.242951 0.858003 0.866927 -0.559253
F8    F     F_    0.858003 0.757049 0.866927 -0.559253
F9    F     F_    0.358003 0.742951 0.366927 -0.559253
F10   F     F_    0.257049 0.358003 0.366927 -0.559253
F11   F     F_    0.641997 0.257049 0.366927 -0.559253
F12   F     F_    0.257049 0.641997 0.366927 -0.559253
F13   F     F_    0.641997 0.742951 0.366927 -0.559253
F14   F     F_    0.742951 0.358003 0.366927 -0.559253
F15   F     F_    0.358003 0.257049 0.366927 -0.559253
F16   F     F_    0.242951 0.141997 0.866927 -0.559253
H1    H     H_    0.687249 0.592452 0.438052 -0.002111
H2    H     H_    0.907548 0.187249 0.938052 -0.002111
H3    H     H_    0.812751 0.907548 0.938052 -0.002111
H4    H     H_    0.092452 0.812751 0.938052 -0.002111
H5    H     H_    0.812751 0.092452 0.938052 -0.002111
H6    H     H_    0.092452 0.187249 0.938052 -0.002111
H7    H     H_    0.187249 0.907548 0.938052 -0.002111
H8    H     H_    0.907548 0.812751 0.938052 -0.002111
H9    H     H_    0.764705 0.858558 0.566091 0.185139
H10   H     H_    0.141442 0.764705 0.566091 0.185139
H11   H     H_    0.235295 0.141442 0.566091 0.185139
H12   H     H_    0.407548 0.687249 0.438053 -0.002111
H13   H     H_    0.858558 0.235295 0.566091 0.185139
H14   H     H_    0.235295 0.858558 0.566091 0.185139
H15   H     H_    0.858558 0.764705 0.566091 0.185139
H16   H     H_    0.764705 0.141442 0.566091 0.185139
H17   H     H_    0.141442 0.235295 0.566091 0.185139
H18   H     H_    0.264705 0.358558 0.066091 0.185139
H19   H     H_    0.641442 0.264705 0.066091 0.185139
H20   H     H_    0.735295 0.641442 0.066091 0.185139
H21   H     H_    0.358558 0.735295 0.066091 0.185139
H22   H     H_    0.735295 0.358558 0.066091 0.185139
H23   H     H_    0.312751 0.407548 0.438052 -0.002111
H24   H     H_    0.358558 0.264705 0.066091 0.185139
H25   H     H_    0.264705 0.641442 0.066091 0.185139
H26   H     H_    0.641442 0.735295 0.066091 0.185139
H27   H     H_    0.592452 0.312751 0.438053 -0.002112
H28   H     H_    0.312751 0.592452 0.438053 -0.002112
H29   H     H_    0.592452 0.687249 0.438052 -0.002111
H30   H     H_    0.687249 0.407548 0.438053 -0.002111
H31   H     H_    0.407548 0.312751 0.438052 -0.002111
H32   H     H_    0.187249 0.092452 0.938052 -0.002111
O1    O     O_3   0.500000 0.000000 0.500000 -0.515990
O2    O     O_R   0.560750 0.000000 0.867980 -0.603329
O3    O     O_R   1.000000 0.560750 0.867980 -0.603329
O4    O     O_R   0.439250 0.000000 0.867980 -0.603329
O5    O     O_R   0.560720 0.000000 0.632020 -0.629128
O6    O     O_R   1.000000 0.560720 0.632020 -0.629128
O7    O     O_R   0.439280 0.000000 0.632020 -0.629128
O8    O     O_R   1.000000 0.439280 0.632020 -0.629128
O9    O     O_R   0.060720 0.500000 0.132020 -0.629128
O10   O     O_R   0.500000 0.060720 0.132020 -0.629128
O11   O     O_R   0.939280 0.500000 0.132020 -0.629128
O12   O     O_3   1.000000 0.500000 0.500000 -0.515990
O13   O     O_R   0.500000 0.939280 0.132020 -0.629128
O14   O     O_R   0.585450 0.146130 0.465380 -0.614785
O15   O     O_R   0.853870 0.585450 0.465380 -0.614785
O16   O     O_R   0.414550 0.853870 0.465380 -0.614785
O17   O     O_R   0.146130 0.414550 0.465380 -0.614785
O18   O     O_R   0.414550 0.146130 0.465380 -0.614785
O19   O     O_R   0.146130 0.585450 0.465380 -0.614785
O20   O     O_R   0.585450 0.853870 0.465380 -0.614785
O21   O     O_R   0.853870 0.414550 0.465380 -0.614785
O22   O     O_R   0.085450 0.646130 0.965380 -0.614785
O23   O     O_3   0.000000 0.500000 0.000000 -0.515990
O24   O     O_R   0.353870 0.085450 0.965380 -0.614785
O25   O     O_R   0.914550 0.353870 0.965380 -0.614786
O26   O     O_R   0.646130 0.914550 0.965380 -0.614785
O27   O     O_R   0.914550 0.646130 0.965380 -0.614785
O28   O     O_R   0.646130 0.085450 0.965380 -0.614785
O29   O     O_R   0.085450 0.353870 0.965380 -0.614785
O30   O     O_R   0.353870 0.914550 0.965380 -0.614786
O31   O     O_R   0.353850 0.914510 0.534610 -0.650578
O32   O     O_R   0.085490 0.353850 0.534610 -0.650578
O33   O     O_R   0.646150 0.085490 0.534610 -0.650578
O34   O     O_3   0.500000 0.000000 0.000000 -0.515990
O35   O     O_R   0.914510 0.646150 0.534610 -0.650578
O36   O     O_R   0.646150 0.914510 0.534610 -0.650578
O37   O     O_R   0.914510 0.353850 0.534610 -0.650578
O38   O     O_R   0.353850 0.085490 0.534610 -0.650578
O39   O     O_R   0.085490 0.646150 0.534610 -0.650578
O40   O     O_R   0.853850 0.414510 0.034610 -0.650578
O41   O     O_R   0.585490 0.853850 0.034610 -0.650578
O42   O     O_R   0.146150 0.585490 0.034610 -0.650578
O43   O     O_R   0.414510 0.146150 0.034610 -0.650578
O44   O     O_R   0.146150 0.414510 0.034610 -0.650578
O45   O     O_R   0.500000 0.939250 0.367980 -0.603329
O46   O     O_R   0.414510 0.853850 0.034610 -0.650578
O47   O     O_R   0.853850 0.585490 0.034610 -0.650578
O48   O     O_R   0.585490 0.146150 0.034610 -0.650578
O49   O     O_R   0.060750 0.500000 0.367980 -0.603329
O50   O     O_R   0.500000 0.060750 0.367980 -0.603329
O51   O     O_R   0.939250 0.500000 0.367980 -0.603329
O52   O     O_R   0.000000 0.439250 0.867980 -0.603329
Zn1   Zn    Zn3+2 0.586760 1.000000 0.549450 0.986580
Zn2   Zn    Zn3+2 0.913280 0.500000 0.450540 1.048617
Zn3   Zn    Zn3+2 0.500000 0.913280 0.450540 1.048617
Zn4   Zn    Zn3+2 0.086720 0.500000 0.450540 1.048617
Zn5   Zn    Zn3+2 1.000000 0.586720 0.950540 1.048617
Zn6   Zn    Zn3+2 0.413280 1.000000 0.950540 1.048617
Zn7   Zn    Zn3+2 1.000000 0.413280 0.950540 1.048617
Zn8   Zn    Zn3+2 0.586720 1.000000 0.950540 1.048617
Zn9   Zn    Zn3+2 1.000000 0.586760 0.549450 0.986580
Zn10  Zn    Zn3+2 0.413240 1.000000 0.549450 0.986580
Zn11  Zn    Zn3+2 1.000000 0.413240 0.549450 0.986580
Zn12  Zn    Zn3+2 0.086760 0.500000 0.049450 0.986580
Zn13  Zn    Zn3+2 0.500000 0.086760 0.049450 0.986580
Zn14  Zn    Zn3+2 0.913240 0.500000 0.049450 0.986580
Zn15  Zn    Zn3+2 0.500000 0.913240 0.049450 0.986580
Zn16  Zn    Zn3+2 0.500000 0.086720 0.450540 1.048617

loop_
_geom_bond_atom_site_label_1
_geom_bond_atom_site_label_2
_ccdc_geom_bond_type
C16   O29   A    
C8    O37   A    
C15   O48   A    
O35   Zn9   S    
C56   C76   S    
O34   Zn8   S    
C80   F1    S    
C34   O2    A    
C7    C36   S    
C62   H18   S    
O8    Zn11  S    
C67   C77   S    
C17   C48   S    
C83   H27   S    
C53   C59   A    
O4    Zn6   S    
C89   O14   A    
C35   C91   S    
C90   H2    S    
C28   C46   A    
C80   C85   S    
C74   C76   T    
C29   C47   A    
C18   C24   A    
O32   Zn11  S    
C30   C48   A    
C9    O22   A    
O37   Zn11  S    
C83   F11   S    
O1    Zn3   S    
C72   C79   T    
C85   F13   S    
C8    O21   A    
C57   H13   S    
C64   C70   A    
C87   F15   S    
C2    C41   S    
C59   H15   S    
C82   C87   S    
C39   C57   A    
C20   C87   S    
O30   Zn6   S    
C67   O11   A    
C12   O49   A    
C82   H23   S    
O28   Zn8   S    
O12   Zn11  S    
O2    Zn8   S    
O36   Zn1   S    
C19   C37   A    
C50   C68   A    
C91   C96   S    
C66   H22   S    
C34   O4    A    
C27   C44   A    
C24   C80   S    
O15   Zn2   S    
C38   C55   A    
O43   Zn13  S    
C91   H3    S    
C2    O15   A    
C9    C51   S    
C23   O52   A    
C7    O36   A    
O41   Zn15  S    
C36   C53   A    
C8    C39   S    
C63   H19   S    
C48   C65   A    
C56   O8    A    
C16   C44   S    
O26   Zn8   S    
O17   Zn4   S    
O20   Zn3   S    
C61   H17   S    
O51   Zn2   S    
O45   Zn3   S    
O23   Zn5   S    
C54   H10   S    
C63   C66   A    
C26   C82   S    
O33   Zn1   S    
C5    C38   S    
C69   H25   S    
C24   C41   A    
C73   C75   T    
O12   Zn4   S    
C93   H5    S    
C31   C49   A    
O1    Zn10  S    
C58   H14   S    
C95   F7    S    
C26   C43   A    
O16   Zn3   S    
C55   H11   S    
O11   Zn14  S    
O14   Zn16  S    
C88   C94   S    
C18   C85   S    
C40   C58   A    
C49   C66   A    
C81   H12   S    
C1    C72   S    
C22   C81   S    
C64   H20   S    
C68   H24   S    
C19   C22   A    
C13   O41   A    
C41   C59   A    
C9    O42   A    
C16   O44   A    
C33   C92   S    
C85   H29   S    
C47   C64   A    
C92   F4    S    
C93   F5    S    
C78   C79   S    
C78   O10   A    
C57   C60   A    
O47   Zn14  S    
C44   C62   A    
C23   O3    A    
C92   C95   S    
O34   Zn13  S    
C28   C93   S    
C45   O7    A    
O22   Zn5   S    
O27   Zn5   S    
O46   Zn15  S    
O1    Zn1   S    
C30   C95   S    
C11   C49   S    
O25   Zn7   S    
O9    Zn12  S    
C20   C38   A    
O29   Zn7   S    
C78   O13   A    
C21   C39   A    
C88   H32   S    
O3    Zn5   S    
C31   C90   S    
C22   C40   A    
C10   O43   A    
O23   Zn14  S    
C6    C37   S    
C6    O19   A    
O52   Zn7   S    
O40   Zn14  S    
O12   Zn9   S    
C92   H4    S    
C32   C50   A    
C45   C75   S    
C37   C54   A    
C3    O31   A    
C13   O26   A    
C12   C71   S    
C3    C40   S    
O13   Zn15  S    
O23   Zn7   S    
C89   O33   A    
C96   F8    S    
C3    O16   A    
O39   Zn9   S    
C12   O51   A    
C33   C51   A    
C2    O35   A    
C14   O47   A    
C23   C74   S    
C56   O6    A    
C19   C84   S    
C10   C50   S    
C42   C60   A    
C5    O38   A    
C71   C77   T    
C81   C84   S    
C17   O30   A    
C86   H30   S    
C90   C93   S    
C54   C58   A    
C81   F9    S    
C21   C25   A    
C21   C86   S    
O44   Zn12  S    
C30   C33   A    
C86   F14   S    
C27   C32   A    
C96   H8    S    
C28   C31   A    
O12   Zn2   S    
C11   O40   A    
C60   H16   S    
C14   O27   A    
C20   C26   A    
C25   C42   A    
O19   Zn4   S    
C29   C96   S    
C11   O25   A    
C14   C47   S    
C4    C43   S    
C62   C68   A    
C17   O46   A    
O10   Zn13  S    
O49   Zn4   S    
C7    O20   A    
C29   C35   A    
C15   C46   S    
O42   Zn12  S    
C6    O39   A    
C67   O9    A    
C42   C89   S    
C95   H7    S    
C5    O18   A    
O1    Zn16  S    
O34   Zn6   S    
C1    O50   A    
C53   H9    S    
O21   Zn2   S    
O23   Zn12  S    
O38   Zn10  S    
C94   H6    S    
C70   H26   S    
C43   C61   A    
C46   C63   A    
O18   Zn16  S    
C13   C52   S    
C65   C69   A    
C55   C61   A    
C84   F12   S    
O24   Zn6   S    
O34   Zn15  S    
C45   O5    A    
C82   F10   S    
O7    Zn10  S    
O48   Zn13  S    
C52   C70   A    
O6    Zn9   S    
C34   C73   S    
O50   Zn16  S    
C15   O28   A    
C88   F16   S    
C83   C86   S    
C87   H31   S    
C80   H1    S    
C84   H28   S    
C10   O24   A    
C4    O32   A    
O5    Zn1   S    
C35   C52   A    
C25   C83   S    
C4    O17   A    
C27   C94   S    
C51   C69   A    
O31   Zn10  S    
C91   F3    S    
C18   C36   A    
C90   F2    S    
C65   H21   S    
C94   F6    S    
C1    O45   A    
C32   C88   S    
