data_mof_unit_49209.cif
_audit_creation_date              2012-10-26T18:59:58-0400
_audit_creation_method            fapswitch 2.2
_symmetry_space_group_name_H-M    P1
_symmetry_Int_Tables_number       1
_space_group_crystal_system       triclinic
_cell_length_a                    9.579889
_cell_length_b                    10.820123
_cell_length_c                    17.102374
_cell_angle_alpha                 87.919315
_cell_angle_beta                  94.363884
_cell_angle_gamma                 89.607486
_cell_volume                      1766.36946031

loop_
_atom_site_label
_atom_site_type_symbol
_atom_type_description
_atom_site_fract_x
_atom_site_fract_y
_atom_site_fract_z
_atom_type_partial_charge
C1    C     C_R   0.500260 0.262447 0.501217 0.594398
C2    C     C_R   0.501598 0.128908 0.507602 -0.054869
C3    C     C_R   0.391465 0.063048 0.539485 0.402094
C4    C     C_R   0.517811 0.497661 0.650862 0.593598
C5    C     C_R   0.391155 0.933938 0.539338 0.400021
C6    C     C_R   0.501570 0.870294 0.507978 -0.095282
C7    C     C_R   0.618130 0.936540 0.486667 0.038099
C8    C     C_3   0.691929 0.933279 0.412909 0.265548
C9    C     C_3   0.687428 0.073535 0.410366 -0.175016
C10   C     C_R   0.066619 0.586651 0.456204 0.202663
C11   C     C_R   0.084589 0.422400 0.548031 0.057535
C12   C     C_R   0.658949 0.494940 0.779519 -0.133668
C13   C     C_R   0.937014 0.419174 0.548511 0.323525
C14   C     C_R   0.919296 0.586792 0.456188 0.198841
C15   C     C_3   0.902598 0.604067 0.368983 -0.250552
C16   C     C_R   0.499855 0.737442 0.501342 0.562981
C17   C     C_3   0.060644 0.605025 0.369288 -0.267053
C18   C     C_R   0.482289 0.500684 0.349294 0.529104
C19   C     C_R   0.528200 0.491510 0.736926 -0.074329
C20   C     C_R   0.406622 0.478827 0.776927 -0.087710
C21   C     C_R   0.414510 0.471121 0.858291 0.394739
C22   C     C_R   0.545904 0.477594 0.901735 0.217076
C23   C     C_R   0.581512 0.448530 0.144867 0.423556
C24   C     C_R   0.668646 0.487187 0.861512 0.169209
C25   C     C_R   0.585919 0.449720 0.226231 -0.114150
C26   C     C_R   0.462455 0.496455 0.099217 0.230806
C27   C     C_R   0.473206 0.497440 0.263627 -0.050111
C28   C     C_R   0.354243 0.542510 0.218649 -0.166009
C29   C     C_R   0.349232 0.541775 0.137062 -0.124288
C30   C     C_R   0.616891 0.063759 0.485290 -0.022496
Cu1   Cu    Cu3+1 0.640670 0.499980 0.500000 1.068900
Cu2   Cu    Cu3+1 0.359330 0.500020 0.500000 1.049794
F1    F     F_    0.281649 0.872259 0.567689 -0.531974
F2    F     F_    0.826968 0.887519 0.427591 -0.591860
F3    F     F_    0.693127 0.399791 0.111977 -0.554650
F4    F     F_    0.293613 0.454654 0.893826 -0.549057
F5    F     F_    0.282501 0.122806 0.568384 -0.548753
H1    H     H_    0.677523 0.411963 0.260074 0.148610
H2    H     H_    0.753338 0.503639 0.748859 0.201233
H3    H     H_    0.266611 0.580689 0.246304 0.143391
H4    H     H_    0.257181 0.578140 0.102922 0.191410
H5    H     H_    0.304602 0.473573 0.745281 0.196274
H6    H     H_    0.983544 0.183354 0.705035 0.403389
H7    H     H_    0.972707 0.419994 0.830455 0.376616
H8    H     H_    0.630788 0.889860 0.363445 0.097423
H9    H     H_    0.792450 0.116310 0.417597 0.228327
H10   H     H_    0.617623 0.113689 0.360810 0.074678
H11   H     H_    0.150076 0.357138 0.583739 0.222647
H12   H     H_    0.855900 0.522524 0.339698 0.141827
H13   H     H_    0.852804 0.694011 0.349488 0.200006
H14   H     H_    0.102416 0.524170 0.339995 0.150499
H15   H     H_    0.102862 0.696185 0.351106 0.162715
N1    N     N_2   0.559109 0.472603 0.985043 -0.072569
N2    N     N_2   0.450408 0.501190 0.015961 -0.125278
N3    N     N_R   0.147870 0.500930 0.499500 -0.287633
N4    N     N_R   0.851960 0.500890 0.499500 -0.273259
O1    O     O_R   0.618810 0.319640 0.500000 -0.452897
O2    O     O_2   0.888427 0.177353 0.557019 -0.244726
O3    O     O_3   0.000959 0.267758 0.683780 -0.531162
O4    O     O_2   0.841350 0.600324 0.965314 -0.180615
O5    O     O_2   0.857890 0.375083 0.963865 -0.174318
O6    O     O_3   0.963398 0.503534 0.851459 -0.443893
O7    O     O_R   0.381230 0.319680 0.499990 -0.464629
O8    O     O_R   0.631790 0.498830 0.613930 -0.455925
O9    O     O_R   0.394210 0.498870 0.613920 -0.502248
O10   O     O_R   0.618770 0.680320 0.500010 -0.478569
O11   O     O_R   0.381190 0.680360 0.500000 -0.441559
O12   O     O_R   0.605790 0.501130 0.386080 -0.534519
O13   O     O_R   0.368210 0.501170 0.386070 -0.519105
O14   O     O_2   0.742232 0.295935 0.638148 -0.258546
S1    S     S_3+6 0.882964 0.289139 0.606242 0.052783
S2    S     S_3+6 0.835384 0.491160 0.913347 0.118963

loop_
_geom_bond_atom_site_label_1
_geom_bond_atom_site_label_2
_ccdc_geom_bond_type
Cu1   O10   S    
C14   N4    A    
C6    C7    A    
C1    O1    A    
Cu1   N4    S    
C25   C27   A    
C4    O8    A    
Cu2   N3    S    
C20   H5    S    
C19   C20   A    
H6    O3    S    
C2    C30   A    
C13   N4    A    
C29   H4    S    
C17   H14   S    
C18   O13   A    
C15   H12   S    
C2    C3    A    
O6    S2    S    
C9    H9    S    
C7    C30   A    
C8    F2    S    
C21   C22   A    
C20   C21   A    
C21   F4    S    
C10   N3    A    
C11   C13   A    
Cu1   O1    S    
C11   H11   S    
C4    O9    A    
C9    C30   S    
C12   H2    S    
Cu2   O11   S    
C1    O7    A    
C17   H15   S    
O5    S2    D    
C28   C29   A    
C12   C19   A    
C9    H10   S    
C22   N1    S    
C23   F3    S    
C23   C25   A    
C24   S2    S    
C5    C6    A    
C25   H1    S    
C22   C24   A    
O2    S1    D    
C23   C26   A    
C16   O10   A    
C8    H8    S    
O4    S2    D    
C10   C17   S    
C6    C16   S    
C26   N2    S    
C7    C8    S    
O14   S1    D    
C11   N3    A    
Cu1   O12   S    
C3    F5    S    
C26   C29   A    
C15   C17   S    
C1    C2    S    
C10   C14   A    
C15   H13   S    
C27   C28   A    
C16   O11   A    
C28   H3    S    
C14   C15   S    
C8    C9    S    
C12   C24   A    
C13   S1    S    
H7    O6    S    
N1    N2    D    
C4    C19   S    
C18   O12   A    
Cu1   O8    S    
Cu2   O13   S    
C18   C27   S    
Cu1   Cu2   S    
Cu2   O7    S    
O3    S1    S    
Cu2   O9    S    
C3    C5    A    
C5    F1    S    
